MODEL 1
REMARK VINA RESULT:      -7.6      0.000      0.000
REMARK  9 active torsions:
REMARK  status: ('A' for Active; 'I' for Inactive)
REMARK    1  A    between atoms: O_2  and  C_12 
REMARK    2  A    between atoms: O_2  and  P_3 
REMARK    3  A    between atoms: P_3  and  O_8 
REMARK    4  A    between atoms: C_4  and  C_6 
REMARK    5  A    between atoms: C_6  and  C_16 
REMARK    6  A    between atoms: C_6  and  N_19 
REMARK    7  A    between atoms: N_10  and  C_17 
REMARK    8  A    between atoms: C_15  and  C_16 
REMARK    9  A    between atoms: C_17  and  C_18 
REMARK       I    between atoms: C_18  and  N_19 
ROOT
HETATM    1  C           1     -36.536  -0.618 -12.250  0.00  0.00     0.189 C 
ENDROOT
BRANCH   1   2
HETATM    2  C           1     -36.963  -0.098 -10.899  0.00  0.00     0.197 C 
HETATM    3  O           1     -36.206   0.657 -10.252  0.00  0.00    -0.646 OA
HETATM    4  O           1     -38.075  -0.422 -10.428  0.00  0.00    -0.646 OA
ENDBRANCH   1   2
BRANCH   1   5
HETATM    5  C           1     -35.014  -0.649 -12.324  0.00  0.00     0.074 C 
BRANCH   5   6
HETATM    6  C           1     -34.529  -2.037 -12.038  0.00  0.00    -0.056 A 
HETATM    7  C           1     -34.612  -3.021 -13.024  0.00  0.00     0.010 A 
HETATM    8  C           1     -34.161  -4.313 -12.758  0.00  0.00     0.038 A 
HETATM    9  C           1     -33.625  -4.621 -11.507  0.00  0.00     0.081 A 
HETATM   10  C           1     -33.542  -3.638 -10.522  0.00  0.00     0.038 A 
HETATM   11  C           1     -33.993  -2.344 -10.788  0.00  0.00     0.010 A 
BRANCH   9  12
HETATM   12  O           1     -33.185  -5.877 -11.249  0.00  0.00    -0.247 OA
BRANCH  12  13
HETATM   13  P           1     -34.246  -6.948 -10.669  0.00  0.00     0.411 P 
HETATM   14  O           1     -35.029  -6.326  -9.578  0.00  0.00    -0.624 OA
HETATM   15  O           1     -33.521  -8.127 -10.146  0.00  0.00    -0.624 OA
BRANCH  13  16
HETATM   16  O           1     -35.245  -7.410 -11.851  0.00  0.00    -0.300 OA
HETATM   17  H           1     -34.803  -8.123 -12.279  0.00  0.00     0.223 HD
ENDBRANCH  13  16
ENDBRANCH  12  13
ENDBRANCH   9  12
ENDBRANCH   5   6
ENDBRANCH   1   5
BRANCH   1  18
HETATM   18  N           1     -37.051   0.255 -13.287  0.00  0.00    -0.344 N 
HETATM   19  C           1     -37.091  -0.175 -14.587  0.00  0.00     0.248 C 
HETATM   20  O           1     -38.069  -0.748 -15.003  0.00  0.00    -0.271 OA
HETATM   21  H           1     -37.382   1.182 -13.050  0.00  0.00     0.163 HD
BRANCH  19  22
HETATM   22  C           1     -35.912   0.065 -15.498  0.00  0.00     0.270 C 
HETATM   23  C           1     -35.775   1.558 -15.769  0.00  0.00     0.050 C 
BRANCH  22  24
HETATM   24  N           1     -36.125  -0.660 -16.792  0.00  0.00    -0.067 N 
HETATM   25  H           1     -35.401  -1.407 -16.898  0.00  0.00     0.275 HD
HETATM   26  H           1     -37.076  -1.096 -16.795  0.00  0.00     0.275 HD
HETATM   27  H           1     -36.049   0.014 -17.587  0.00  0.00     0.275 HD
ENDBRANCH  22  24
ENDBRANCH  19  22
ENDBRANCH   1  18
TORSDOF 9
ENDMDL
MODEL 2
REMARK VINA RESULT:      -7.3     12.950     15.747
REMARK  9 active torsions:
REMARK  status: ('A' for Active; 'I' for Inactive)
REMARK    1  A    between atoms: O_2  and  C_12 
REMARK    2  A    between atoms: O_2  and  P_3 
REMARK    3  A    between atoms: P_3  and  O_8 
REMARK    4  A    between atoms: C_4  and  C_6 
REMARK    5  A    between atoms: C_6  and  C_16 
REMARK    6  A    between atoms: C_6  and  N_19 
REMARK    7  A    between atoms: N_10  and  C_17 
REMARK    8  A    between atoms: C_15  and  C_16 
REMARK    9  A    between atoms: C_17  and  C_18 
REMARK       I    between atoms: C_18  and  N_19 
ROOT
HETATM    1  C           1     -21.594  -5.593  -6.666  0.00  0.00     0.189 C 
ENDROOT
BRANCH   1   2
HETATM    2  C           1     -20.093  -5.632  -6.514  0.00  0.00     0.197 C 
HETATM    3  O           1     -19.457  -6.652  -6.855  0.00  0.00    -0.646 OA
HETATM    4  O           1     -19.486  -4.644  -6.047  0.00  0.00    -0.646 OA
ENDBRANCH   1   2
BRANCH   1   5
HETATM    5  C           1     -22.024  -4.199  -7.101  0.00  0.00     0.074 C 
BRANCH   5   6
HETATM    6  C           1     -22.474  -4.238  -8.529  0.00  0.00    -0.056 A 
HETATM    7  C           1     -21.537  -4.394  -9.552  0.00  0.00     0.010 A 
HETATM    8  C           1     -21.956  -4.430 -10.881  0.00  0.00     0.038 A 
HETATM    9  C           1     -23.311  -4.312 -11.189  0.00  0.00     0.081 A 
HETATM   10  C           1     -24.248  -4.155 -10.167  0.00  0.00     0.038 A 
HETATM   11  C           1     -23.829  -4.120  -8.837  0.00  0.00     0.010 A 
BRANCH   9  12
HETATM   12  O           1     -23.719  -4.347 -12.481  0.00  0.00    -0.247 OA
BRANCH  12  13
HETATM   13  P           1     -23.977  -2.942 -13.234  0.00  0.00     0.411 P 
HETATM   14  O           1     -25.393  -2.544 -13.065  0.00  0.00    -0.624 OA
HETATM   15  O           1     -23.676  -3.093 -14.675  0.00  0.00    -0.624 OA
BRANCH  13  16
HETATM   16  O           1     -23.020  -1.807 -12.599  0.00  0.00    -0.300 OA
HETATM   17  H           1     -22.240  -2.265 -12.336  0.00  0.00     0.223 HD
ENDBRANCH  13  16
ENDBRANCH  12  13
ENDBRANCH   9  12
ENDBRANCH   5   6
ENDBRANCH   1   5
BRANCH   1  18
HETATM   18  N           1     -22.215  -5.915  -5.396  0.00  0.00    -0.344 N 
HETATM   19  C           1     -21.591  -6.769  -4.525  0.00  0.00     0.248 C 
HETATM   20  O           1     -20.826  -6.334  -3.697  0.00  0.00    -0.271 OA
HETATM   21  H           1     -23.109  -5.508  -5.152  0.00  0.00     0.163 HD
BRANCH  19  22
HETATM   22  C           1     -21.859  -8.252  -4.600  0.00  0.00     0.270 C 
HETATM   23  C           1     -21.610  -8.883  -3.237  0.00  0.00     0.050 C 
BRANCH  22  24
HETATM   24  N           1     -20.945  -8.873  -5.613  0.00  0.00    -0.067 N 
HETATM   25  H           1     -21.047  -9.913  -5.583  0.00  0.00     0.275 HD
HETATM   26  H           1     -21.196  -8.527  -6.567  0.00  0.00     0.275 HD
HETATM   27  H           1     -19.956  -8.613  -5.397  0.00  0.00     0.275 HD
ENDBRANCH  22  24
ENDBRANCH  19  22
ENDBRANCH   1  18
TORSDOF 9
ENDMDL
MODEL 3
REMARK VINA RESULT:      -7.2     13.684     16.587
REMARK  9 active torsions:
REMARK  status: ('A' for Active; 'I' for Inactive)
REMARK    1  A    between atoms: O_2  and  C_12 
REMARK    2  A    between atoms: O_2  and  P_3 
REMARK    3  A    between atoms: P_3  and  O_8 
REMARK    4  A    between atoms: C_4  and  C_6 
REMARK    5  A    between atoms: C_6  and  C_16 
REMARK    6  A    between atoms: C_6  and  N_19 
REMARK    7  A    between atoms: N_10  and  C_17 
REMARK    8  A    between atoms: C_15  and  C_16 
REMARK    9  A    between atoms: C_17  and  C_18 
REMARK       I    between atoms: C_18  and  N_19 
ROOT
HETATM    1  C           1     -21.667  -6.770  -5.391  0.00  0.00     0.189 C 
ENDROOT
BRANCH   1   2
HETATM    2  C           1     -20.892  -8.042  -5.151  0.00  0.00     0.197 C 
HETATM    3  O           1     -19.656  -7.996  -4.971  0.00  0.00    -0.646 OA
HETATM    4  O           1     -21.486  -9.142  -5.131  0.00  0.00    -0.646 OA
ENDBRANCH   1   2
BRANCH   1   5
HETATM    5  C           1     -20.700  -5.645  -5.737  0.00  0.00     0.074 C 
BRANCH   5   6
HETATM    6  C           1     -21.094  -5.033  -7.047  0.00  0.00    -0.056 A 
HETATM    7  C           1     -22.323  -4.386  -7.173  0.00  0.00     0.010 A 
HETATM    8  C           1     -22.690  -3.818  -8.392  0.00  0.00     0.038 A 
HETATM    9  C           1     -21.826  -3.895  -9.485  0.00  0.00     0.081 A 
HETATM   10  C           1     -20.598  -4.543  -9.359  0.00  0.00     0.038 A 
HETATM   11  C           1     -20.230  -5.111  -8.139  0.00  0.00     0.010 A 
BRANCH   9  12
HETATM   12  O           1     -22.182  -3.342 -10.671  0.00  0.00    -0.247 OA
BRANCH  12  13
HETATM   13  P           1     -23.497  -3.917 -11.412  0.00  0.00     0.411 P 
HETATM   14  O           1     -24.651  -3.039 -11.121  0.00  0.00    -0.624 OA
HETATM   15  O           1     -23.780  -5.284 -10.921  0.00  0.00    -0.624 OA
BRANCH  13  16
HETATM   16  O           1     -23.240  -3.959 -13.006  0.00  0.00    -0.300 OA
HETATM   17  H           1     -24.052  -3.676 -13.391  0.00  0.00     0.223 HD
ENDBRANCH  13  16
ENDBRANCH  12  13
ENDBRANCH   9  12
ENDBRANCH   5   6
ENDBRANCH   1   5
BRANCH   1  18
HETATM   18  N           1     -22.404  -6.421  -4.192  0.00  0.00    -0.344 N 
HETATM   19  C           1     -21.755  -6.343  -2.988  0.00  0.00     0.248 C 
HETATM   20  O           1     -21.271  -5.295  -2.631  0.00  0.00    -0.271 OA
HETATM   21  H           1     -23.397  -6.235  -4.245  0.00  0.00     0.163 HD
BRANCH  19  22
HETATM   22  C           1     -21.646  -7.564  -2.109  0.00  0.00     0.270 C 
HETATM   23  C           1     -22.358  -7.305  -0.787  0.00  0.00     0.050 C 
BRANCH  22  24
HETATM   24  N           1     -20.200  -7.863  -1.847  0.00  0.00    -0.067 N 
HETATM   25  H           1     -19.773  -7.077  -1.307  0.00  0.00     0.275 HD
HETATM   26  H           1     -20.122  -8.747  -1.294  0.00  0.00     0.275 HD
HETATM   27  H           1     -19.697  -7.975  -2.756  0.00  0.00     0.275 HD
ENDBRANCH  22  24
ENDBRANCH  19  22
ENDBRANCH   1  18
TORSDOF 9
ENDMDL
MODEL 4
REMARK VINA RESULT:      -7.0     13.870     16.698
REMARK  9 active torsions:
REMARK  status: ('A' for Active; 'I' for Inactive)
REMARK    1  A    between atoms: O_2  and  C_12 
REMARK    2  A    between atoms: O_2  and  P_3 
REMARK    3  A    between atoms: P_3  and  O_8 
REMARK    4  A    between atoms: C_4  and  C_6 
REMARK    5  A    between atoms: C_6  and  C_16 
REMARK    6  A    between atoms: C_6  and  N_19 
REMARK    7  A    between atoms: N_10  and  C_17 
REMARK    8  A    between atoms: C_15  and  C_16 
REMARK    9  A    between atoms: C_17  and  C_18 
REMARK       I    between atoms: C_18  and  N_19 
ROOT
HETATM    1  C           1     -20.623  -7.467  -5.781  0.00  0.00     0.189 C 
ENDROOT
BRANCH   1   2
HETATM    2  C           1     -19.361  -8.243  -5.498  0.00  0.00     0.197 C 
HETATM    3  O           1     -18.534  -8.446  -6.413  0.00  0.00    -0.646 OA
HETATM    4  O           1     -19.142  -8.682  -4.348  0.00  0.00    -0.646 OA
ENDBRANCH   1   2
BRANCH   1   5
HETATM    5  C           1     -20.333  -5.974  -5.688  0.00  0.00     0.074 C 
BRANCH   5   6
HETATM    6  C           1     -20.800  -5.295  -6.938  0.00  0.00    -0.056 A 
HETATM    7  C           1     -20.011  -5.333  -8.089  0.00  0.00     0.010 A 
HETATM    8  C           1     -20.446  -4.700  -9.253  0.00  0.00     0.038 A 
HETATM    9  C           1     -21.670  -4.032  -9.268  0.00  0.00     0.081 A 
HETATM   10  C           1     -22.458  -3.994  -8.119  0.00  0.00     0.038 A 
HETATM   11  C           1     -22.025  -4.627  -6.953  0.00  0.00     0.010 A 
BRANCH   9  12
HETATM   12  O           1     -22.093  -3.417 -10.400  0.00  0.00    -0.247 OA
BRANCH  12  13
HETATM   13  P           1     -23.432  -3.975 -11.110  0.00  0.00     0.411 P 
HETATM   14  O           1     -24.565  -3.075 -10.800  0.00  0.00    -0.624 OA
HETATM   15  O           1     -23.728  -5.334 -10.606  0.00  0.00    -0.624 OA
BRANCH  13  16
HETATM   16  O           1     -23.210  -4.029 -12.709  0.00  0.00    -0.300 OA
HETATM   17  H           1     -22.755  -4.839 -12.865  0.00  0.00     0.223 HD
ENDBRANCH  13  16
ENDBRANCH  12  13
ENDBRANCH   9  12
ENDBRANCH   5   6
ENDBRANCH   1   5
BRANCH   1  18
HETATM   18  N           1     -21.637  -7.823  -4.807  0.00  0.00    -0.344 N 
HETATM   19  C           1     -22.127  -6.873  -3.950  0.00  0.00     0.248 C 
HETATM   20  O           1     -23.091  -6.216  -4.265  0.00  0.00    -0.271 OA
HETATM   21  H           1     -21.982  -8.773  -4.760  0.00  0.00     0.163 HD
BRANCH  19  22
HETATM   22  C           1     -21.463  -6.646  -2.614  0.00  0.00     0.270 C 
HETATM   23  C           1     -21.391  -7.963  -1.852  0.00  0.00     0.050 C 
BRANCH  22  24
HETATM   24  N           1     -22.260  -5.654  -1.822  0.00  0.00    -0.067 N 
HETATM   25  H           1     -23.175  -6.078  -1.550  0.00  0.00     0.275 HD
HETATM   26  H           1     -21.730  -5.390  -0.960  0.00  0.00     0.275 HD
HETATM   27  H           1     -22.429  -4.801  -2.402  0.00  0.00     0.275 HD
ENDBRANCH  22  24
ENDBRANCH  19  22
ENDBRANCH   1  18
TORSDOF 9
ENDMDL
MODEL 5
REMARK VINA RESULT:      -6.5     14.354     16.654
REMARK  9 active torsions:
REMARK  status: ('A' for Active; 'I' for Inactive)
REMARK    1  A    between atoms: O_2  and  C_12 
REMARK    2  A    between atoms: O_2  and  P_3 
REMARK    3  A    between atoms: P_3  and  O_8 
REMARK    4  A    between atoms: C_4  and  C_6 
REMARK    5  A    between atoms: C_6  and  C_16 
REMARK    6  A    between atoms: C_6  and  N_19 
REMARK    7  A    between atoms: N_10  and  C_17 
REMARK    8  A    between atoms: C_15  and  C_16 
REMARK    9  A    between atoms: C_17  and  C_18 
REMARK       I    between atoms: C_18  and  N_19 
ROOT
HETATM    1  C           1     -20.771  -5.088  -6.163  0.00  0.00     0.189 C 
ENDROOT
BRANCH   1   2
HETATM    2  C           1     -19.645  -5.369  -7.128  0.00  0.00     0.197 C 
HETATM    3  O           1     -19.430  -6.538  -7.514  0.00  0.00    -0.646 OA
HETATM    4  O           1     -18.929  -4.432  -7.542  0.00  0.00    -0.646 OA
ENDBRANCH   1   2
BRANCH   1   5
HETATM    5  C           1     -21.576  -6.362  -5.938  0.00  0.00     0.074 C 
BRANCH   5   6
HETATM    6  C           1     -21.379  -6.835  -4.530  0.00  0.00    -0.056 A 
HETATM    7  C           1     -22.044  -6.199  -3.481  0.00  0.00     0.010 A 
HETATM    8  C           1     -21.860  -6.639  -2.171  0.00  0.00     0.038 A 
HETATM    9  C           1     -21.012  -7.715  -1.910  0.00  0.00     0.081 A 
HETATM   10  C           1     -20.347  -8.350  -2.958  0.00  0.00     0.038 A 
HETATM   11  C           1     -20.531  -7.911  -4.269  0.00  0.00     0.010 A 
BRANCH   9  12
HETATM   12  O           1     -20.833  -8.144  -0.636  0.00  0.00    -0.247 OA
BRANCH  12  13
HETATM   13  P           1     -21.982  -9.068   0.022  0.00  0.00     0.411 P 
HETATM   14  O           1     -22.948  -8.213   0.747  0.00  0.00    -0.624 OA
HETATM   15  O           1     -21.364 -10.025   0.966  0.00  0.00    -0.624 OA
BRANCH  13  16
HETATM   16  O           1     -22.752  -9.880  -1.143  0.00  0.00    -0.300 OA
HETATM   17  H           1     -22.309  -9.642  -1.939  0.00  0.00     0.223 HD
ENDBRANCH  13  16
ENDBRANCH  12  13
ENDBRANCH   9  12
ENDBRANCH   5   6
ENDBRANCH   1   5
BRANCH   1  18
HETATM   18  N           1     -21.635  -4.063  -6.715  0.00  0.00    -0.344 N 
HETATM   19  C           1     -22.811  -4.414  -7.325  0.00  0.00     0.248 C 
HETATM   20  O           1     -23.826  -4.494  -6.676  0.00  0.00    -0.271 OA
HETATM   21  H           1     -21.370  -3.089  -6.650  0.00  0.00     0.163 HD
BRANCH  19  22
HETATM   22  C           1     -22.837  -4.700  -8.806  0.00  0.00     0.270 C 
HETATM   23  C           1     -21.843  -3.791  -9.517  0.00  0.00     0.050 C 
BRANCH  22  24
HETATM   24  N           1     -24.215  -4.447  -9.339  0.00  0.00    -0.067 N 
HETATM   25  H           1     -24.398  -3.418  -9.360  0.00  0.00     0.275 HD
HETATM   26  H           1     -24.290  -4.832 -10.308  0.00  0.00     0.275 HD
HETATM   27  H           1     -24.919  -4.914  -8.723  0.00  0.00     0.275 HD
ENDBRANCH  22  24
ENDBRANCH  19  22
ENDBRANCH   1  18
TORSDOF 9
ENDMDL
MODEL 6
REMARK VINA RESULT:      -6.5     12.551     14.391
REMARK  9 active torsions:
REMARK  status: ('A' for Active; 'I' for Inactive)
REMARK    1  A    between atoms: O_2  and  C_12 
REMARK    2  A    between atoms: O_2  and  P_3 
REMARK    3  A    between atoms: P_3  and  O_8 
REMARK    4  A    between atoms: C_4  and  C_6 
REMARK    5  A    between atoms: C_6  and  C_16 
REMARK    6  A    between atoms: C_6  and  N_19 
REMARK    7  A    between atoms: N_10  and  C_17 
REMARK    8  A    between atoms: C_15  and  C_16 
REMARK    9  A    between atoms: C_17  and  C_18 
REMARK       I    between atoms: C_18  and  N_19 
ROOT
HETATM    1  C           1     -22.716  -4.420  -9.602  0.00  0.00     0.189 C 
ENDROOT
BRANCH   1   2
HETATM    2  C           1     -24.176  -4.060  -9.720  0.00  0.00     0.197 C 
HETATM    3  O           1     -25.013  -4.937 -10.026  0.00  0.00    -0.646 OA
HETATM    4  O           1     -24.549  -2.885  -9.512  0.00  0.00    -0.646 OA
ENDBRANCH   1   2
BRANCH   1   5
HETATM    5  C           1     -22.060  -3.541  -8.545  0.00  0.00     0.074 C 
BRANCH   5   6
HETATM    6  C           1     -21.692  -4.377  -7.358  0.00  0.00    -0.056 A 
HETATM    7  C           1     -20.388  -4.347  -6.861  0.00  0.00     0.010 A 
HETATM    8  C           1     -20.045  -5.126  -5.757  0.00  0.00     0.038 A 
HETATM    9  C           1     -21.006  -5.934  -5.148  0.00  0.00     0.081 A 
HETATM   10  C           1     -22.309  -5.965  -5.645  0.00  0.00     0.038 A 
HETATM   11  C           1     -22.652  -5.185  -6.749  0.00  0.00     0.010 A 
BRANCH   9  12
HETATM   12  O           1     -20.673  -6.691  -4.074  0.00  0.00    -0.247 OA
BRANCH  12  13
HETATM   13  P           1     -20.418  -8.269  -4.307  0.00  0.00     0.411 P 
HETATM   14  O           1     -19.460  -8.768  -3.296  0.00  0.00    -0.624 OA
HETATM   15  O           1     -19.861  -8.482  -5.661  0.00  0.00    -0.624 OA
BRANCH  13  16
HETATM   16  O           1     -21.815  -9.066  -4.166  0.00  0.00    -0.300 OA
HETATM   17  H           1     -21.580  -9.978  -4.204  0.00  0.00     0.223 HD
ENDBRANCH  13  16
ENDBRANCH  12  13
ENDBRANCH   9  12
ENDBRANCH   5   6
ENDBRANCH   1   5
BRANCH   1  18
HETATM   18  N           1     -22.062  -4.208 -10.879  0.00  0.00    -0.344 N 
HETATM   19  C           1     -22.545  -3.265 -11.747  0.00  0.00     0.248 C 
HETATM   20  O           1     -22.138  -2.129 -11.692  0.00  0.00    -0.271 OA
HETATM   21  H           1     -21.249  -4.756 -11.128  0.00  0.00     0.163 HD
BRANCH  19  22
HETATM   22  C           1     -23.586  -3.645 -12.772  0.00  0.00     0.270 C 
HETATM   23  C           1     -23.158  -3.138 -14.143  0.00  0.00     0.050 C 
BRANCH  22  24
HETATM   24  N           1     -24.901  -3.030 -12.399  0.00  0.00    -0.067 N 
HETATM   25  H           1     -25.154  -3.309 -11.424  0.00  0.00     0.275 HD
HETATM   26  H           1     -24.827  -1.989 -12.455  0.00  0.00     0.275 HD
HETATM   27  H           1     -25.641  -3.362 -13.060  0.00  0.00     0.275 HD
ENDBRANCH  22  24
ENDBRANCH  19  22
ENDBRANCH   1  18
TORSDOF 9
ENDMDL
MODEL 7
REMARK VINA RESULT:      -6.3     16.389     18.935
REMARK  9 active torsions:
REMARK  status: ('A' for Active; 'I' for Inactive)
REMARK    1  A    between atoms: O_2  and  C_12 
REMARK    2  A    between atoms: O_2  and  P_3 
REMARK    3  A    between atoms: P_3  and  O_8 
REMARK    4  A    between atoms: C_4  and  C_6 
REMARK    5  A    between atoms: C_6  and  C_16 
REMARK    6  A    between atoms: C_6  and  N_19 
REMARK    7  A    between atoms: N_10  and  C_17 
REMARK    8  A    between atoms: C_15  and  C_16 
REMARK    9  A    between atoms: C_17  and  C_18 
REMARK       I    between atoms: C_18  and  N_19 
ROOT
HETATM    1  C           1     -21.105 -10.482  -2.279  0.00  0.00     0.189 C 
ENDROOT
BRANCH   1   2
HETATM    2  C           1     -20.553 -11.803  -2.756  0.00  0.00     0.197 C 
HETATM    3  O           1     -20.870 -12.241  -3.883  0.00  0.00    -0.646 OA
HETATM    4  O           1     -19.779 -12.458  -2.025  0.00  0.00    -0.646 OA
ENDBRANCH   1   2
BRANCH   1   5
HETATM    5  C           1     -20.069  -9.388  -2.504  0.00  0.00     0.074 C 
BRANCH   5   6
HETATM    6  C           1     -20.644  -8.333  -3.399  0.00  0.00    -0.056 A 
HETATM    7  C           1     -20.825  -8.594  -4.758  0.00  0.00     0.010 A 
HETATM    8  C           1     -21.359  -7.612  -5.591  0.00  0.00     0.038 A 
HETATM    9  C           1     -21.715  -6.370  -5.066  0.00  0.00     0.081 A 
HETATM   10  C           1     -21.534  -6.108  -3.708  0.00  0.00     0.038 A 
HETATM   11  C           1     -21.000  -7.091  -2.874  0.00  0.00     0.010 A 
BRANCH   9  12
HETATM   12  O           1     -22.235  -5.415  -5.876  0.00  0.00    -0.247 OA
BRANCH  12  13
HETATM   13  P           1     -21.239  -4.667  -6.904  0.00  0.00     0.411 P 
HETATM   14  O           1     -21.235  -5.386  -8.198  0.00  0.00    -0.624 OA
HETATM   15  O           1     -19.871  -4.654  -6.342  0.00  0.00    -0.624 OA
BRANCH  13  16
HETATM   16  O           1     -21.742  -3.150  -7.134  0.00  0.00    -0.300 OA
HETATM   17  H           1     -22.637  -3.143  -6.841  0.00  0.00     0.223 HD
ENDBRANCH  13  16
ENDBRANCH  12  13
ENDBRANCH   9  12
ENDBRANCH   5   6
ENDBRANCH   1   5
BRANCH   1  18
HETATM   18  N           1     -21.411 -10.571  -0.864  0.00  0.00    -0.344 N 
HETATM   19  C           1     -22.491  -9.900  -0.354  0.00  0.00     0.248 C 
HETATM   20  O           1     -23.572 -10.437  -0.313  0.00  0.00    -0.271 OA
HETATM   21  H           1     -20.828 -11.130  -0.254  0.00  0.00     0.163 HD
BRANCH  19  22
HETATM   22  C           1     -22.329  -8.489   0.157  0.00  0.00     0.270 C 
HETATM   23  C           1     -21.276  -8.464   1.257  0.00  0.00     0.050 C 
BRANCH  22  24
HETATM   24  N           1     -23.637  -8.004   0.707  0.00  0.00    -0.067 N 
HETATM   25  H           1     -24.214  -8.822   1.009  0.00  0.00     0.275 HD
HETATM   26  H           1     -23.461  -7.382   1.528  0.00  0.00     0.275 HD
HETATM   27  H           1     -24.149  -7.470  -0.031  0.00  0.00     0.275 HD
ENDBRANCH  22  24
ENDBRANCH  19  22
ENDBRANCH   1  18
TORSDOF 9
ENDMDL
MODEL 8
REMARK VINA RESULT:      -6.3     15.318     17.867
REMARK  9 active torsions:
REMARK  status: ('A' for Active; 'I' for Inactive)
REMARK    1  A    between atoms: O_2  and  C_12 
REMARK    2  A    between atoms: O_2  and  P_3 
REMARK    3  A    between atoms: P_3  and  O_8 
REMARK    4  A    between atoms: C_4  and  C_6 
REMARK    5  A    between atoms: C_6  and  C_16 
REMARK    6  A    between atoms: C_6  and  N_19 
REMARK    7  A    between atoms: N_10  and  C_17 
REMARK    8  A    between atoms: C_15  and  C_16 
REMARK    9  A    between atoms: C_17  and  C_18 
REMARK       I    between atoms: C_18  and  N_19 
ROOT
HETATM    1  C           1     -20.914  -7.394  -3.719  0.00  0.00     0.189 C 
ENDROOT
BRANCH   1   2
HETATM    2  C           1     -21.522  -6.831  -2.458  0.00  0.00     0.197 C 
HETATM    3  O           1     -22.340  -5.889  -2.526  0.00  0.00    -0.646 OA
HETATM    4  O           1     -21.209  -7.309  -1.346  0.00  0.00    -0.646 OA
ENDBRANCH   1   2
BRANCH   1   5
HETATM    5  C           1     -21.950  -7.377  -4.835  0.00  0.00     0.074 C 
BRANCH   5   6
HETATM    6  C           1     -21.532  -6.401  -5.891  0.00  0.00    -0.056 A 
HETATM    7  C           1     -20.247  -6.466  -6.432  0.00  0.00     0.010 A 
HETATM    8  C           1     -19.857  -5.557  -7.414  0.00  0.00     0.038 A 
HETATM    9  C           1     -20.752  -4.582  -7.857  0.00  0.00     0.081 A 
HETATM   10  C           1     -22.035  -4.516  -7.316  0.00  0.00     0.038 A 
HETATM   11  C           1     -22.426  -5.426  -6.333  0.00  0.00     0.010 A 
BRANCH   9  12
HETATM   12  O           1     -20.373  -3.698  -8.812  0.00  0.00    -0.247 OA
BRANCH  12  13
HETATM   13  P           1     -20.622  -4.098 -10.357  0.00  0.00     0.411 P 
HETATM   14  O           1     -21.998  -4.619 -10.516  0.00  0.00    -0.624 OA
HETATM   15  O           1     -19.651  -5.140 -10.758  0.00  0.00    -0.624 OA
BRANCH  13  16
HETATM   16  O           1     -20.429  -2.793 -11.288  0.00  0.00    -0.300 OA
HETATM   17  H           1     -21.211  -2.749 -11.811  0.00  0.00     0.223 HD
ENDBRANCH  13  16
ENDBRANCH  12  13
ENDBRANCH   9  12
ENDBRANCH   5   6
ENDBRANCH   1   5
BRANCH   1  18
HETATM   18  N           1     -20.485  -8.759  -3.480  0.00  0.00    -0.344 N 
HETATM   19  C           1     -19.220  -9.151  -3.830  0.00  0.00     0.248 C 
HETATM   20  O           1     -18.315  -9.048  -3.037  0.00  0.00    -0.271 OA
HETATM   21  H           1     -21.121  -9.421  -3.053  0.00  0.00     0.163 HD
BRANCH  19  22
HETATM   22  C           1     -18.958  -9.711  -5.206  0.00  0.00     0.270 C 
HETATM   23  C           1     -20.051 -10.709  -5.566  0.00  0.00     0.050 C 
BRANCH  22  24
HETATM   24  N           1     -17.627 -10.402  -5.219  0.00  0.00    -0.067 N 
HETATM   25  H           1     -17.261 -10.436  -6.197  0.00  0.00     0.275 HD
HETATM   26  H           1     -16.956  -9.876  -4.615  0.00  0.00     0.275 HD
HETATM   27  H           1     -17.736 -11.375  -4.853  0.00  0.00     0.275 HD
ENDBRANCH  22  24
ENDBRANCH  19  22
ENDBRANCH   1  18
TORSDOF 9
ENDMDL
MODEL 9
REMARK VINA RESULT:      -6.2      1.446      2.101
REMARK  9 active torsions:
REMARK  status: ('A' for Active; 'I' for Inactive)
REMARK    1  A    between atoms: O_2  and  C_12 
REMARK    2  A    between atoms: O_2  and  P_3 
REMARK    3  A    between atoms: P_3  and  O_8 
REMARK    4  A    between atoms: C_4  and  C_6 
REMARK    5  A    between atoms: C_6  and  C_16 
REMARK    6  A    between atoms: C_6  and  N_19 
REMARK    7  A    between atoms: N_10  and  C_17 
REMARK    8  A    between atoms: C_15  and  C_16 
REMARK    9  A    between atoms: C_17  and  C_18 
REMARK       I    between atoms: C_18  and  N_19 
ROOT
HETATM    1  C           1     -35.536  -1.246 -12.953  0.00  0.00     0.189 C 
ENDROOT
BRANCH   1   2
HETATM    2  C           1     -36.826  -0.516 -12.669  0.00  0.00     0.197 C 
HETATM    3  O           1     -37.859  -0.801 -13.312  0.00  0.00    -0.646 OA
HETATM    4  O           1     -36.860   0.373 -11.791  0.00  0.00    -0.646 OA
ENDBRANCH   1   2
BRANCH   1   5
HETATM    5  C           1     -34.728  -1.368 -11.667  0.00  0.00     0.074 C 
BRANCH   5   6
HETATM    6  C           1     -34.328  -2.796 -11.461  0.00  0.00    -0.056 A 
HETATM    7  C           1     -33.007  -3.189 -11.677  0.00  0.00     0.010 A 
HETATM    8  C           1     -32.635  -4.519 -11.487  0.00  0.00     0.038 A 
HETATM    9  C           1     -33.583  -5.456 -11.078  0.00  0.00     0.081 A 
HETATM   10  C           1     -34.904  -5.064 -10.862  0.00  0.00     0.038 A 
HETATM   11  C           1     -35.277  -3.734 -11.052  0.00  0.00     0.010 A 
BRANCH   9  12
HETATM   12  O           1     -33.222  -6.750 -10.891  0.00  0.00    -0.247 OA
BRANCH  12  13
HETATM   13  P           1     -34.308  -7.755 -10.244  0.00  0.00     0.411 P 
HETATM   14  O           1     -33.617  -8.952  -9.713  0.00  0.00    -0.624 OA
HETATM   15  O           1     -35.279  -8.165 -11.282  0.00  0.00    -0.624 OA
BRANCH  13  16
HETATM   16  O           1     -35.086  -7.006  -9.044  0.00  0.00    -0.300 OA
HETATM   17  H           1     -35.278  -6.146  -9.376  0.00  0.00     0.223 HD
ENDBRANCH  13  16
ENDBRANCH  12  13
ENDBRANCH   9  12
ENDBRANCH   5   6
ENDBRANCH   1   5
BRANCH   1  18
HETATM   18  N           1     -34.770  -0.506 -13.936  0.00  0.00    -0.344 N 
HETATM   19  C           1     -35.405   0.086 -14.996  0.00  0.00     0.248 C 
HETATM   20  O           1     -35.809   1.221 -14.900  0.00  0.00    -0.271 OA
HETATM   21  H           1     -33.766  -0.427 -13.840  0.00  0.00     0.163 HD
BRANCH  19  22
HETATM   22  C           1     -35.602  -0.679 -16.281  0.00  0.00     0.270 C 
HETATM   23  C           1     -37.086  -0.943 -16.494  0.00  0.00     0.050 C 
BRANCH  22  24
HETATM   24  N           1     -34.869  -1.985 -16.202  0.00  0.00    -0.067 N 
HETATM   25  H           1     -34.131  -1.927 -15.464  0.00  0.00     0.275 HD
HETATM   26  H           1     -35.542  -2.748 -15.962  0.00  0.00     0.275 HD
HETATM   27  H           1     -34.423  -2.191 -17.125  0.00  0.00     0.275 HD
ENDBRANCH  22  24
ENDBRANCH  19  22
ENDBRANCH   1  18
TORSDOF 9
ENDMDL
