MODEL 1
REMARK VINA RESULT:      -5.4      0.000      0.000
REMARK  9 active torsions:
REMARK  status: ('A' for Active; 'I' for Inactive)
REMARK    1  A    between atoms: S_2  and  C_3 
REMARK    2  A    between atoms: C_3  and  C_4 
REMARK    3  A    between atoms: C_4  and  C_5 
REMARK    4  A    between atoms: C_4  and  N_8 
REMARK       I    between atoms: N_8  and  C_9 
REMARK    5  A    between atoms: C_9  and  C_10 
REMARK    6  A    between atoms: C_10  and  C_11 
REMARK    7  A    between atoms: C_10  and  N_15 
REMARK    8  A    between atoms: C_11  and  C_12 
REMARK    9  A    between atoms: C_12  and  Se_13 
ROOT
HETATM    1  H           1     -22.314  -5.669  -9.335  0.00  0.00     0.163 HD
HETATM    2  N           1     -22.282  -4.771  -8.869  0.00  0.00    -0.344 N 
HETATM    3  C           1     -21.728  -4.668  -7.621  0.00  0.00     0.249 C 
HETATM    4  O           1     -21.689  -3.596  -7.064  0.00  0.00    -0.271 OA
ENDROOT
BRANCH   3   5
HETATM    5  C           1     -21.166  -5.892  -6.940  0.00  0.00     0.274 C 
BRANCH   5   6
HETATM    6  C           1     -21.132  -5.667  -5.435  0.00  0.00     0.042 C 
BRANCH   6   7
HETATM    7  C           1     -22.109  -6.618  -4.756  0.00  0.00     0.003 C 
BRANCH   7   8
HETATM    8 Se           1     -21.266  -7.403  -3.184  0.00  0.00     0.000 Se
HETATM    9  C           1     -22.180  -6.241  -1.912  0.00  0.00     0.000 C 
ENDBRANCH   7   8
ENDBRANCH   6   7
ENDBRANCH   5   6
BRANCH   5  10
HETATM   10  N           1     -19.775  -6.145  -7.439  0.00  0.00    -0.067 N 
HETATM   11  H           1     -19.116  -5.464  -6.998  0.00  0.00     0.275 HD
HETATM   12  H           1     -19.487  -7.118  -7.190  0.00  0.00     0.275 HD
HETATM   13  H           1     -19.750  -6.030  -8.477  0.00  0.00     0.275 HD
ENDBRANCH   5  10
ENDBRANCH   3   5
BRANCH   2  14
HETATM   14  C           1     -22.822  -3.594  -9.521  0.00  0.00     0.194 C 
BRANCH  14  15
HETATM   15  C           1     -22.170  -3.431 -10.889  0.00  0.00     0.106 C 
BRANCH  15  16
HETATM   16  S           1     -20.542  -4.232 -10.883  0.00  0.00    -0.180 SA
HETATM   17  H           1     -20.361  -4.175  -9.552  0.00  0.00     0.101 HD
ENDBRANCH  15  16
ENDBRANCH  14  15
BRANCH  14  18
HETATM   18  C           1     -24.313  -3.753  -9.690  0.00  0.00     0.197 C 
HETATM   19  O           1     -24.797  -4.876  -9.950  0.00  0.00    -0.646 OA
HETATM   20  O           1     -25.064  -2.761  -9.568  0.00  0.00    -0.646 OA
ENDBRANCH  14  18
ENDBRANCH   2  14
TORSDOF 9
ENDMDL
MODEL 2
REMARK VINA RESULT:      -5.0     11.236     13.282
REMARK  9 active torsions:
REMARK  status: ('A' for Active; 'I' for Inactive)
REMARK    1  A    between atoms: S_2  and  C_3 
REMARK    2  A    between atoms: C_3  and  C_4 
REMARK    3  A    between atoms: C_4  and  C_5 
REMARK    4  A    between atoms: C_4  and  N_8 
REMARK       I    between atoms: N_8  and  C_9 
REMARK    5  A    between atoms: C_9  and  C_10 
REMARK    6  A    between atoms: C_10  and  C_11 
REMARK    7  A    between atoms: C_10  and  N_15 
REMARK    8  A    between atoms: C_11  and  C_12 
REMARK    9  A    between atoms: C_12  and  Se_13 
ROOT
HETATM    1  H           1     -26.258  -7.062 -17.001  0.00  0.00     0.163 HD
HETATM    2  N           1     -26.964  -6.683 -17.619  0.00  0.00    -0.344 N 
HETATM    3  C           1     -26.651  -6.394 -18.920  0.00  0.00     0.249 C 
HETATM    4  O           1     -27.494  -5.942 -19.658  0.00  0.00    -0.271 OA
ENDROOT
BRANCH   3   5
HETATM    5  C           1     -25.253  -6.638 -19.433  0.00  0.00     0.274 C 
BRANCH   5   6
HETATM    6  C           1     -25.320  -7.382 -20.760  0.00  0.00     0.042 C 
BRANCH   6   7
HETATM    7  C           1     -24.029  -8.162 -20.970  0.00  0.00     0.003 C 
BRANCH   7   8
HETATM    8 Se           1     -23.510  -8.066 -22.847  0.00  0.00     0.000 Se
HETATM    9  C           1     -21.870  -9.094 -22.616  0.00  0.00     0.000 C 
ENDBRANCH   7   8
ENDBRANCH   6   7
ENDBRANCH   5   6
BRANCH   5  10
HETATM   10  N           1     -24.493  -7.462 -18.436  0.00  0.00    -0.067 N 
HETATM   11  H           1     -24.577  -7.029 -17.489  0.00  0.00     0.275 HD
HETATM   12  H           1     -24.887  -8.429 -18.412  0.00  0.00     0.275 HD
HETATM   13  H           1     -23.486  -7.502 -18.713  0.00  0.00     0.275 HD
ENDBRANCH   5  10
ENDBRANCH   3   5
BRANCH   2  14
HETATM   14  C           1     -28.308  -6.448 -17.127  0.00  0.00     0.194 C 
BRANCH  14  15
HETATM   15  C           1     -29.237  -7.533 -17.657  0.00  0.00     0.106 C 
BRANCH  15  16
HETATM   16  S           1     -30.955  -6.954 -17.571  0.00  0.00    -0.180 SA
HETATM   17  H           1     -31.112  -7.174 -16.254  0.00  0.00     0.101 HD
ENDBRANCH  15  16
ENDBRANCH  14  15
BRANCH  14  18
HETATM   18  C           1     -28.303  -6.481 -15.619  0.00  0.00     0.197 C 
HETATM   19  O           1     -27.871  -7.488 -15.017  0.00  0.00    -0.646 OA
HETATM   20  O           1     -28.731  -5.500 -14.972  0.00  0.00    -0.646 OA
ENDBRANCH  14  18
ENDBRANCH   2  14
TORSDOF 9
ENDMDL
MODEL 3
REMARK VINA RESULT:      -4.9     11.220     13.031
REMARK  9 active torsions:
REMARK  status: ('A' for Active; 'I' for Inactive)
REMARK    1  A    between atoms: S_2  and  C_3 
REMARK    2  A    between atoms: C_3  and  C_4 
REMARK    3  A    between atoms: C_4  and  C_5 
REMARK    4  A    between atoms: C_4  and  N_8 
REMARK       I    between atoms: N_8  and  C_9 
REMARK    5  A    between atoms: C_9  and  C_10 
REMARK    6  A    between atoms: C_10  and  C_11 
REMARK    7  A    between atoms: C_10  and  N_15 
REMARK    8  A    between atoms: C_11  and  C_12 
REMARK    9  A    between atoms: C_12  and  Se_13 
ROOT
HETATM    1  H           1     -27.910  -7.031 -18.997  0.00  0.00     0.163 HD
HETATM    2  N           1     -28.247  -6.778 -18.077  0.00  0.00    -0.344 N 
HETATM    3  C           1     -27.364  -6.384 -17.108  0.00  0.00     0.249 C 
HETATM    4  O           1     -27.766  -6.080 -16.010  0.00  0.00    -0.271 OA
ENDROOT
BRANCH   3   5
HETATM    5  C           1     -25.886  -6.328 -17.411  0.00  0.00     0.274 C 
BRANCH   5   6
HETATM    6  C           1     -25.656  -6.653 -18.881  0.00  0.00     0.042 C 
BRANCH   6   7
HETATM    7  C           1     -24.219  -7.121 -19.078  0.00  0.00     0.003 C 
BRANCH   7   8
HETATM    8 Se           1     -24.051  -7.986 -20.816  0.00  0.00     0.000 Se
HETATM    9  C           1     -25.972  -8.090 -21.134  0.00  0.00     0.000 C 
ENDBRANCH   7   8
ENDBRANCH   6   7
ENDBRANCH   5   6
BRANCH   5  10
HETATM   10  N           1     -25.165  -7.330 -16.559  0.00  0.00    -0.067 N 
HETATM   11  H           1     -24.164  -7.383 -16.855  0.00  0.00     0.275 HD
HETATM   12  H           1     -25.216  -7.036 -15.558  0.00  0.00     0.275 HD
HETATM   13  H           1     -25.611  -8.268 -16.671  0.00  0.00     0.275 HD
ENDBRANCH   5  10
ENDBRANCH   3   5
BRANCH   2  14
HETATM   14  C           1     -29.667  -6.831 -17.785  0.00  0.00     0.194 C 
BRANCH  14  15
HETATM   15  C           1     -30.290  -5.468 -18.057  0.00  0.00     0.106 C 
BRANCH  15  16
HETATM   16  S           1     -31.384  -5.017 -16.680  0.00  0.00    -0.180 SA
HETATM   17  H           1     -32.434  -5.752 -17.088  0.00  0.00     0.101 HD
ENDBRANCH  15  16
ENDBRANCH  14  15
BRANCH  14  18
HETATM   18  C           1     -30.321  -7.869 -18.662  0.00  0.00     0.197 C 
HETATM   19  O           1     -29.622  -8.730 -19.239  0.00  0.00    -0.646 OA
HETATM   20  O           1     -31.563  -7.867 -18.812  0.00  0.00    -0.646 OA
ENDBRANCH  14  18
ENDBRANCH   2  14
TORSDOF 9
ENDMDL
MODEL 4
REMARK VINA RESULT:      -4.8      2.770      6.870
REMARK  9 active torsions:
REMARK  status: ('A' for Active; 'I' for Inactive)
REMARK    1  A    between atoms: S_2  and  C_3 
REMARK    2  A    between atoms: C_3  and  C_4 
REMARK    3  A    between atoms: C_4  and  C_5 
REMARK    4  A    between atoms: C_4  and  N_8 
REMARK       I    between atoms: N_8  and  C_9 
REMARK    5  A    between atoms: C_9  and  C_10 
REMARK    6  A    between atoms: C_10  and  C_11 
REMARK    7  A    between atoms: C_10  and  N_15 
REMARK    8  A    between atoms: C_11  and  C_12 
REMARK    9  A    between atoms: C_12  and  Se_13 
ROOT
HETATM    1  H           1     -20.565  -3.924  -9.734  0.00  0.00     0.163 HD
HETATM    2  N           1     -21.418  -4.410  -9.489  0.00  0.00    -0.344 N 
HETATM    3  C           1     -22.493  -4.379 -10.337  0.00  0.00     0.249 C 
HETATM    4  O           1     -23.510  -4.960 -10.044  0.00  0.00    -0.271 OA
ENDROOT
BRANCH   3   5
HETATM    5  C           1     -22.406  -3.619 -11.638  0.00  0.00     0.274 C 
BRANCH   5   6
HETATM    6  C           1     -23.647  -3.899 -12.475  0.00  0.00     0.042 C 
BRANCH   6   7
HETATM    7  C           1     -24.124  -2.607 -13.125  0.00  0.00     0.003 C 
BRANCH   7   8
HETATM    8 Se           1     -23.122  -2.299 -14.768  0.00  0.00     0.000 Se
HETATM    9  C           1     -24.030  -0.629 -15.203  0.00  0.00     0.000 C 
ENDBRANCH   7   8
ENDBRANCH   6   7
ENDBRANCH   5   6
BRANCH   5  10
HETATM   10  N           1     -21.186  -4.058 -12.392  0.00  0.00    -0.067 N 
HETATM   11  H           1     -20.674  -3.219 -12.747  0.00  0.00     0.275 HD
HETATM   12  H           1     -20.561  -4.602 -11.756  0.00  0.00     0.275 HD
HETATM   13  H           1     -21.472  -4.658 -13.198  0.00  0.00     0.275 HD
ENDBRANCH   5  10
ENDBRANCH   3   5
BRANCH   2  14
HETATM   14  C           1     -21.502  -5.141  -8.239  0.00  0.00     0.194 C 
BRANCH  14  15
HETATM   15  C           1     -20.104  -5.555  -7.800  0.00  0.00     0.106 C 
BRANCH  15  16
HETATM   16  S           1     -20.202  -6.431  -6.213  0.00  0.00    -0.180 SA
HETATM   17  H           1     -19.923  -7.650  -6.707  0.00  0.00     0.101 HD
ENDBRANCH  15  16
ENDBRANCH  14  15
BRANCH  14  18
HETATM   18  C           1     -22.121  -4.259  -7.183  0.00  0.00     0.197 C 
HETATM   19  O           1     -21.544  -3.208  -6.829  0.00  0.00    -0.646 OA
HETATM   20  O           1     -23.212  -4.580  -6.662  0.00  0.00    -0.646 OA
ENDBRANCH  14  18
ENDBRANCH   2  14
TORSDOF 9
ENDMDL
MODEL 5
REMARK VINA RESULT:      -4.8      1.728      2.064
REMARK  9 active torsions:
REMARK  status: ('A' for Active; 'I' for Inactive)
REMARK    1  A    between atoms: S_2  and  C_3 
REMARK    2  A    between atoms: C_3  and  C_4 
REMARK    3  A    between atoms: C_4  and  C_5 
REMARK    4  A    between atoms: C_4  and  N_8 
REMARK       I    between atoms: N_8  and  C_9 
REMARK    5  A    between atoms: C_9  and  C_10 
REMARK    6  A    between atoms: C_10  and  C_11 
REMARK    7  A    between atoms: C_10  and  N_15 
REMARK    8  A    between atoms: C_11  and  C_12 
REMARK    9  A    between atoms: C_12  and  Se_13 
ROOT
HETATM    1  H           1     -23.746  -5.176  -8.728  0.00  0.00     0.163 HD
HETATM    2  N           1     -23.092  -4.408  -8.810  0.00  0.00    -0.344 N 
HETATM    3  C           1     -22.273  -4.091  -7.759  0.00  0.00     0.249 C 
HETATM    4  O           1     -21.491  -3.174  -7.858  0.00  0.00    -0.271 OA
ENDROOT
BRANCH   3   5
HETATM    5  C           1     -22.346  -4.885  -6.478  0.00  0.00     0.274 C 
BRANCH   5   6
HETATM    6  C           1     -21.484  -6.134  -6.604  0.00  0.00     0.042 C 
BRANCH   6   7
HETATM    7  C           1     -21.711  -7.032  -5.395  0.00  0.00     0.003 C 
BRANCH   7   8
HETATM    8 Se           1     -20.084  -8.035  -5.015  0.00  0.00     0.000 Se
HETATM    9  C           1     -20.974  -9.768  -4.940  0.00  0.00     0.000 C 
ENDBRANCH   7   8
ENDBRANCH   6   7
ENDBRANCH   5   6
BRANCH   5  10
HETATM   10  N           1     -23.768  -5.285  -6.220  0.00  0.00    -0.067 N 
HETATM   11  H           1     -24.406  -4.500  -6.487  0.00  0.00     0.275 HD
HETATM   12  H           1     -24.002  -6.130  -6.789  0.00  0.00     0.275 HD
HETATM   13  H           1     -23.890  -5.503  -5.205  0.00  0.00     0.275 HD
ENDBRANCH   5  10
ENDBRANCH   3   5
BRANCH   2  14
HETATM   14  C           1     -23.021  -3.644 -10.040  0.00  0.00     0.194 C 
BRANCH  14  15
HETATM   15  C           1     -22.318  -4.471 -11.110  0.00  0.00     0.106 C 
BRANCH  15  16
HETATM   16  S           1     -20.569  -3.994 -11.191  0.00  0.00    -0.180 SA
HETATM   17  H           1     -20.103  -5.219 -11.492  0.00  0.00     0.101 HD
ENDBRANCH  15  16
ENDBRANCH  14  15
BRANCH  14  18
HETATM   18  C           1     -24.416  -3.305 -10.502  0.00  0.00     0.197 C 
HETATM   19  O           1     -25.363  -3.311  -9.686  0.00  0.00    -0.646 OA
HETATM   20  O           1     -24.625  -3.017 -11.701  0.00  0.00    -0.646 OA
ENDBRANCH  14  18
ENDBRANCH   2  14
TORSDOF 9
ENDMDL
MODEL 6
REMARK VINA RESULT:      -4.7      1.616      1.828
REMARK  9 active torsions:
REMARK  status: ('A' for Active; 'I' for Inactive)
REMARK    1  A    between atoms: S_2  and  C_3 
REMARK    2  A    between atoms: C_3  and  C_4 
REMARK    3  A    between atoms: C_4  and  C_5 
REMARK    4  A    between atoms: C_4  and  N_8 
REMARK       I    between atoms: N_8  and  C_9 
REMARK    5  A    between atoms: C_9  and  C_10 
REMARK    6  A    between atoms: C_10  and  C_11 
REMARK    7  A    between atoms: C_10  and  N_15 
REMARK    8  A    between atoms: C_11  and  C_12 
REMARK    9  A    between atoms: C_12  and  Se_13 
ROOT
HETATM    1  H           1     -22.836  -4.990  -8.280  0.00  0.00     0.163 HD
HETATM    2  N           1     -22.287  -4.458  -8.943  0.00  0.00    -0.344 N 
HETATM    3  C           1     -20.922  -4.433  -8.837  0.00  0.00     0.249 C 
HETATM    4  O           1     -20.266  -3.798  -9.629  0.00  0.00    -0.271 OA
ENDROOT
BRANCH   3   5
HETATM    5  C           1     -20.236  -5.197  -7.731  0.00  0.00     0.274 C 
BRANCH   5   6
HETATM    6  C           1     -21.111  -5.183  -6.484  0.00  0.00     0.042 C 
BRANCH   6   7
HETATM    7  C           1     -21.238  -6.598  -5.936  0.00  0.00     0.003 C 
BRANCH   7   8
HETATM    8 Se           1     -21.616  -6.524  -4.026  0.00  0.00     0.000 Se
HETATM    9  C           1     -20.581  -8.119  -3.593  0.00  0.00     0.000 C 
ENDBRANCH   7   8
ENDBRANCH   6   7
ENDBRANCH   5   6
BRANCH   5  10
HETATM   10  N           1     -18.917  -4.553  -7.423  0.00  0.00    -0.067 N 
HETATM   11  H           1     -18.184  -5.291  -7.322  0.00  0.00     0.275 HD
HETATM   12  H           1     -18.655  -3.907  -8.202  0.00  0.00     0.275 HD
HETATM   13  H           1     -18.993  -4.013  -6.532  0.00  0.00     0.275 HD
ENDBRANCH   5  10
ENDBRANCH   3   5
BRANCH   2  14
HETATM   14  C           1     -22.945  -3.723 -10.006  0.00  0.00     0.194 C 
BRANCH  14  15
HETATM   15  C           1     -22.585  -4.345 -11.349  0.00  0.00     0.106 C 
BRANCH  15  16
HETATM   16  S           1     -22.699  -3.084 -12.650  0.00  0.00    -0.180 SA
HETATM   17  H           1     -23.862  -2.556 -12.233  0.00  0.00     0.101 HD
ENDBRANCH  15  16
ENDBRANCH  14  15
BRANCH  14  18
HETATM   18  C           1     -24.439  -3.783  -9.808  0.00  0.00     0.197 C 
HETATM   19  O           1     -25.093  -2.727  -9.662  0.00  0.00    -0.646 OA
HETATM   20  O           1     -25.023  -4.888  -9.789  0.00  0.00    -0.646 OA
ENDBRANCH  14  18
ENDBRANCH   2  14
TORSDOF 9
ENDMDL
MODEL 7
REMARK VINA RESULT:      -4.6      2.549      3.225
REMARK  9 active torsions:
REMARK  status: ('A' for Active; 'I' for Inactive)
REMARK    1  A    between atoms: S_2  and  C_3 
REMARK    2  A    between atoms: C_3  and  C_4 
REMARK    3  A    between atoms: C_4  and  C_5 
REMARK    4  A    between atoms: C_4  and  N_8 
REMARK       I    between atoms: N_8  and  C_9 
REMARK    5  A    between atoms: C_9  and  C_10 
REMARK    6  A    between atoms: C_10  and  C_11 
REMARK    7  A    between atoms: C_10  and  N_15 
REMARK    8  A    between atoms: C_11  and  C_12 
REMARK    9  A    between atoms: C_12  and  Se_13 
ROOT
HETATM    1  H           1     -21.749  -4.131  -6.282  0.00  0.00     0.163 HD
HETATM    2  N           1     -21.579  -4.966  -6.828  0.00  0.00    -0.344 N 
HETATM    3  C           1     -21.279  -6.145  -6.200  0.00  0.00     0.249 C 
HETATM    4  O           1     -21.076  -7.142  -6.852  0.00  0.00    -0.271 OA
ENDROOT
BRANCH   3   5
HETATM    5  C           1     -21.200  -6.201  -4.694  0.00  0.00     0.274 C 
BRANCH   5   6
HETATM    6  C           1     -20.528  -7.498  -4.267  0.00  0.00     0.042 C 
BRANCH   6   7
HETATM    7  C           1     -21.432  -8.243  -3.293  0.00  0.00     0.003 C 
BRANCH   7   8
HETATM    8 Se           1     -20.692  -8.119  -1.495  0.00  0.00     0.000 Se
HETATM    9  C           1     -22.238  -7.199  -0.744  0.00  0.00     0.000 C 
ENDBRANCH   7   8
ENDBRANCH   6   7
ENDBRANCH   5   6
BRANCH   5  10
HETATM   10  N           1     -22.585  -6.144  -4.120  0.00  0.00    -0.067 N 
HETATM   11  H           1     -22.900  -7.109  -3.873  0.00  0.00     0.275 HD
HETATM   12  H           1     -22.582  -5.549  -3.262  0.00  0.00     0.275 HD
HETATM   13  H           1     -23.238  -5.735  -4.826  0.00  0.00     0.275 HD
ENDBRANCH   5  10
ENDBRANCH   3   5
BRANCH   2  14
HETATM   14  C           1     -21.654  -4.914  -8.275  0.00  0.00     0.194 C 
BRANCH  14  15
HETATM   15  C           1     -22.763  -3.955  -8.690  0.00  0.00     0.106 C 
BRANCH  15  16
HETATM   16  S           1     -23.654  -4.641 -10.114  0.00  0.00    -0.180 SA
HETATM   17  H           1     -24.597  -3.684 -10.165  0.00  0.00     0.101 HD
ENDBRANCH  15  16
ENDBRANCH  14  15
BRANCH  14  18
HETATM   18  C           1     -20.336  -4.430  -8.829  0.00  0.00     0.197 C 
HETATM   19  O           1     -19.987  -4.756  -9.984  0.00  0.00    -0.646 OA
HETATM   20  O           1     -19.595  -3.703  -8.133  0.00  0.00    -0.646 OA
ENDBRANCH  14  18
ENDBRANCH   2  14
TORSDOF 9
ENDMDL
MODEL 8
REMARK VINA RESULT:      -4.6      2.358      6.111
REMARK  9 active torsions:
REMARK  status: ('A' for Active; 'I' for Inactive)
REMARK    1  A    between atoms: S_2  and  C_3 
REMARK    2  A    between atoms: C_3  and  C_4 
REMARK    3  A    between atoms: C_4  and  C_5 
REMARK    4  A    between atoms: C_4  and  N_8 
REMARK       I    between atoms: N_8  and  C_9 
REMARK    5  A    between atoms: C_9  and  C_10 
REMARK    6  A    between atoms: C_10  and  C_11 
REMARK    7  A    between atoms: C_10  and  N_15 
REMARK    8  A    between atoms: C_11  and  C_12 
REMARK    9  A    between atoms: C_12  and  Se_13 
ROOT
HETATM    1  H           1     -21.538  -5.039  -9.089  0.00  0.00     0.163 HD
HETATM    2  N           1     -21.932  -4.871  -8.172  0.00  0.00    -0.344 N 
HETATM    3  C           1     -23.258  -4.557  -8.043  0.00  0.00     0.249 C 
HETATM    4  O           1     -23.728  -4.358  -6.948  0.00  0.00    -0.271 OA
ENDROOT
BRANCH   3   5
HETATM    5  C           1     -24.133  -4.460  -9.268  0.00  0.00     0.274 C 
BRANCH   5   6
HETATM    6  C           1     -23.278  -4.618 -10.519  0.00  0.00     0.042 C 
BRANCH   6   7
HETATM    7  C           1     -23.996  -3.991 -11.707  0.00  0.00     0.003 C 
BRANCH   7   8
HETATM    8 Se           1     -22.802  -2.733 -12.597  0.00  0.00     0.000 Se
HETATM    9  C           1     -21.271  -3.127 -11.457  0.00  0.00     0.000 C 
ENDBRANCH   7   8
ENDBRANCH   6   7
ENDBRANCH   5   6
BRANCH   5  10
HETATM   10  N           1     -24.811  -3.123  -9.292  0.00  0.00    -0.067 N 
HETATM   11  H           1     -25.562  -3.124 -10.020  0.00  0.00     0.275 HD
HETATM   12  H           1     -25.235  -2.930  -8.357  0.00  0.00     0.275 HD
HETATM   13  H           1     -24.110  -2.381  -9.517  0.00  0.00     0.275 HD
ENDBRANCH   5  10
ENDBRANCH   3   5
BRANCH   2  14
HETATM   14  C           1     -21.091  -4.964  -6.994  0.00  0.00     0.194 C 
BRANCH  14  15
HETATM   15  C           1     -20.963  -6.424  -6.578  0.00  0.00     0.106 C 
BRANCH  15  16
HETATM   16  S           1     -21.750  -6.663  -4.960  0.00  0.00    -0.180 SA
HETATM   17  H           1     -20.686  -6.288  -4.229  0.00  0.00     0.101 HD
ENDBRANCH  15  16
ENDBRANCH  14  15
BRANCH  14  18
HETATM   18  C           1     -19.724  -4.408  -7.307  0.00  0.00     0.197 C 
HETATM   19  O           1     -19.532  -3.786  -8.375  0.00  0.00    -0.646 OA
HETATM   20  O           1     -18.784  -4.567  -6.498  0.00  0.00    -0.646 OA
ENDBRANCH  14  18
ENDBRANCH   2  14
TORSDOF 9
ENDMDL
MODEL 9
REMARK VINA RESULT:      -4.5      3.468      4.775
REMARK  9 active torsions:
REMARK  status: ('A' for Active; 'I' for Inactive)
REMARK    1  A    between atoms: S_2  and  C_3 
REMARK    2  A    between atoms: C_3  and  C_4 
REMARK    3  A    between atoms: C_4  and  C_5 
REMARK    4  A    between atoms: C_4  and  N_8 
REMARK       I    between atoms: N_8  and  C_9 
REMARK    5  A    between atoms: C_9  and  C_10 
REMARK    6  A    between atoms: C_10  and  C_11 
REMARK    7  A    between atoms: C_10  and  N_15 
REMARK    8  A    between atoms: C_11  and  C_12 
REMARK    9  A    between atoms: C_12  and  Se_13 
ROOT
HETATM    1  H           1     -21.301  -4.682  -4.429  0.00  0.00     0.163 HD
HETATM    2  N           1     -21.361  -5.574  -4.903  0.00  0.00    -0.344 N 
HETATM    3  C           1     -21.394  -6.735  -4.178  0.00  0.00     0.249 C 
HETATM    4  O           1     -21.467  -7.799  -4.745  0.00  0.00    -0.271 OA
ENDROOT
BRANCH   3   5
HETATM    5  C           1     -21.341  -6.686  -2.671  0.00  0.00     0.274 C 
BRANCH   5   6
HETATM    6  C           1     -21.518  -8.090  -2.109  0.00  0.00     0.042 C 
BRANCH   6   7
HETATM    7  C           1     -21.113  -8.105  -0.641  0.00  0.00     0.003 C 
BRANCH   7   8
HETATM    8 Se           1     -22.707  -8.244   0.472  0.00  0.00     0.000 Se
HETATM    9  C           1     -23.273  -9.956  -0.268  0.00  0.00     0.000 C 
ENDBRANCH   7   8
ENDBRANCH   6   7
ENDBRANCH   5   6
BRANCH   5  10
HETATM   10  N           1     -22.440  -5.802  -2.162  0.00  0.00    -0.067 N 
HETATM   11  H           1     -22.040  -5.079  -1.523  0.00  0.00     0.275 HD
HETATM   12  H           1     -22.911  -5.331  -2.968  0.00  0.00     0.275 HD
HETATM   13  H           1     -23.138  -6.379  -1.640  0.00  0.00     0.275 HD
ENDBRANCH   5  10
ENDBRANCH   3   5
BRANCH   2  14
HETATM   14  C           1     -21.413  -5.622  -6.352  0.00  0.00     0.194 C 
BRANCH  14  15
HETATM   15  C           1     -22.191  -4.421  -6.871  0.00  0.00     0.106 C 
BRANCH  15  16
HETATM   16  S           1     -22.240  -4.468  -8.684  0.00  0.00    -0.180 SA
HETATM   17  H           1     -21.895  -5.763  -8.801  0.00  0.00     0.101 HD
ENDBRANCH  15  16
ENDBRANCH  14  15
BRANCH  14  18
HETATM   18  C           1     -20.009  -5.591  -6.905  0.00  0.00     0.197 C 
HETATM   19  O           1     -19.313  -4.560  -6.786  0.00  0.00    -0.646 OA
HETATM   20  O           1     -19.543  -6.597  -7.483  0.00  0.00    -0.646 OA
ENDBRANCH  14  18
ENDBRANCH   2  14
TORSDOF 9
ENDMDL
