MODEL 1
REMARK VINA RESULT:      -7.3      0.000      0.000
REMARK  14 active torsions:
REMARK  status: ('A' for Active; 'I' for Inactive)
REMARK    1  A    between atoms: C_1  and  C_28 
REMARK    2  A    between atoms: C_1  and  C_16 
REMARK    3  A    between atoms: C_5  and  C_16 
REMARK    4  A    between atoms: C_6  and  C_7 
REMARK    5  A    between atoms: C_6  and  C_26 
REMARK    6  A    between atoms: C_6  and  N_29 
REMARK       I    between atoms: C_7  and  N_8 
REMARK    7  A    between atoms: N_8  and  C_16 
REMARK    8  A    between atoms: C_10  and  C_24 
REMARK    9  A    between atoms: C_10  and  C_11 
REMARK   10  A    between atoms: C_10  and  N_27 
REMARK   11  A    between atoms: C_18  and  C_25 
REMARK   12  A    between atoms: C_18  and  N_19 
REMARK       I    between atoms: N_19  and  C_20 
REMARK       I    between atoms: C_20  and  N_21 
REMARK   13  A    between atoms: C_25  and  C_26 
REMARK   14  A    between atoms: N_27  and  C_28 
ROOT
HETATM    1  C           1     -20.929  -5.145  -6.933  0.00  0.00     0.249 C 
HETATM    2  N           1     -21.374  -6.291  -6.330  0.00  0.00    -0.345 N 
HETATM    3  H           1     -22.104  -6.841  -6.765  0.00  0.00     0.163 HD
HETATM    4  O           1     -20.058  -4.488  -6.414  0.00  0.00    -0.271 OA
ENDROOT
BRANCH   1   5
HETATM    5  C           1     -21.529  -4.701  -8.244  0.00  0.00     0.274 C 
BRANCH   5   6
HETATM    6  C           1     -20.430  -4.157  -9.147  0.00  0.00     0.044 C 
BRANCH   6   7
HETATM    7  C           1     -20.754  -4.490 -10.598  0.00  0.00     0.023 C 
BRANCH   7   8
HETATM    8  C           1     -21.286  -3.247 -11.298  0.00  0.00     0.138 C 
BRANCH   8   9
HETATM    9  N           1     -21.713  -3.596 -12.661  0.00  0.00    -0.227 N 
HETATM   10  H           1     -21.163  -4.293 -13.222  0.00  0.00     0.177 HD
HETATM   11  C           1     -22.745  -3.055 -13.158  0.00  0.00     0.665 C 
HETATM   12  N           1     -23.114  -3.355 -14.332  0.00  0.00    -0.235 N 
HETATM   13  N           1     -23.426  -2.192 -12.464  0.00  0.00    -0.235 N 
HETATM   14  H           1     -22.564  -4.053 -14.892  0.00  0.00     0.174 HD
HETATM   15  H           1     -23.969  -2.908 -14.744  0.00  0.00     0.174 HD
HETATM   16  H           1     -23.121  -1.944 -11.496  0.00  0.00     0.174 HD
HETATM   17  H           1     -24.276  -1.746 -12.875  0.00  0.00     0.174 HD
ENDBRANCH   8   9
ENDBRANCH   7   8
ENDBRANCH   6   7
ENDBRANCH   5   6
BRANCH   5  18
HETATM   18  N           1     -22.546  -3.628  -7.992  0.00  0.00    -0.067 N 
HETATM   19  H           1     -22.063  -2.706  -7.898  0.00  0.00     0.275 HD
HETATM   20  H           1     -23.066  -3.841  -7.111  0.00  0.00     0.275 HD
HETATM   21  H           1     -23.217  -3.590  -8.792  0.00  0.00     0.275 HD
ENDBRANCH   5  18
ENDBRANCH   1   5
BRANCH   2  22
HETATM   22  C           1     -20.798  -6.717  -5.069  0.00  0.00     0.187 C 
BRANCH  22  23
HETATM   23  C           1     -21.839  -6.582  -3.965  0.00  0.00     0.066 C 
BRANCH  23  24
HETATM   24  C           1     -21.163  -6.731  -2.609  0.00  0.00     0.273 C 
BRANCH  24  25
HETATM   25  N           1     -22.007  -7.499  -1.734  0.00  0.00     0.098 N 
HETATM   26  H           1     -22.657  -8.055  -2.291  0.00  0.00     0.317 HD
BRANCH  25  27
HETATM   27  C           1     -21.162  -8.373  -0.968  0.00  0.00     0.323 C 
BRANCH  27  28
HETATM   28  C           1     -21.908  -8.840   0.275  0.00  0.00     0.021 C 
HETATM   29  C           1     -23.136  -7.963   0.487  0.00  0.00     0.012 C 
HETATM   30  C           1     -20.992  -8.734   1.487  0.00  0.00     0.012 C 
ENDBRANCH  27  28
BRANCH  27  31
HETATM   31  C           1     -20.784  -9.569  -1.806  0.00  0.00     0.207 C 
HETATM   32  O           1     -21.659 -10.172  -2.465  0.00  0.00    -0.646 OA
HETATM   33  O           1     -19.597  -9.957  -1.843  0.00  0.00    -0.646 OA
ENDBRANCH  27  31
ENDBRANCH  25  27
ENDBRANCH  24  25
ENDBRANCH  23  24
ENDBRANCH  22  23
BRANCH  22  34
HETATM   34  C           1     -20.361  -8.157  -5.176  0.00  0.00     0.196 C 
HETATM   35  O           1     -19.208  -8.489  -4.826  0.00  0.00    -0.646 OA
HETATM   36  O           1     -21.153  -9.019  -5.614  0.00  0.00    -0.646 OA
ENDBRANCH  22  34
ENDBRANCH   2  22
TORSDOF 14
ENDMDL
MODEL 2
REMARK VINA RESULT:      -7.2     14.618     16.896
REMARK  14 active torsions:
REMARK  status: ('A' for Active; 'I' for Inactive)
REMARK    1  A    between atoms: C_1  and  C_28 
REMARK    2  A    between atoms: C_1  and  C_16 
REMARK    3  A    between atoms: C_5  and  C_16 
REMARK    4  A    between atoms: C_6  and  C_7 
REMARK    5  A    between atoms: C_6  and  C_26 
REMARK    6  A    between atoms: C_6  and  N_29 
REMARK       I    between atoms: C_7  and  N_8 
REMARK    7  A    between atoms: N_8  and  C_16 
REMARK    8  A    between atoms: C_10  and  C_24 
REMARK    9  A    between atoms: C_10  and  C_11 
REMARK   10  A    between atoms: C_10  and  N_27 
REMARK   11  A    between atoms: C_18  and  C_25 
REMARK   12  A    between atoms: C_18  and  N_19 
REMARK       I    between atoms: N_19  and  C_20 
REMARK       I    between atoms: C_20  and  N_21 
REMARK   13  A    between atoms: C_25  and  C_26 
REMARK   14  A    between atoms: N_27  and  C_28 
ROOT
HETATM    1  C           1     -36.845  -0.020 -13.164  0.00  0.00     0.249 C 
HETATM    2  N           1     -36.220   0.021 -11.946  0.00  0.00    -0.345 N 
HETATM    3  H           1     -35.287   0.405 -11.870  0.00  0.00     0.163 HD
HETATM    4  O           1     -37.959  -0.478 -13.256  0.00  0.00    -0.271 OA
ENDROOT
BRANCH   1   5
HETATM    5  C           1     -36.142   0.507 -14.391  0.00  0.00     0.274 C 
BRANCH   5   6
HETATM    6  C           1     -36.447  -0.395 -15.579  0.00  0.00     0.044 C 
BRANCH   6   7
HETATM    7  C           1     -35.159  -0.688 -16.337  0.00  0.00     0.023 C 
BRANCH   7   8
HETATM    8  C           1     -35.280  -2.031 -17.044  0.00  0.00     0.138 C 
BRANCH   8   9
HETATM    9  N           1     -34.658  -3.078 -16.220  0.00  0.00    -0.227 N 
HETATM   10  H           1     -35.123  -3.391 -15.332  0.00  0.00     0.177 HD
HETATM   11  C           1     -33.563  -3.601 -16.582  0.00  0.00     0.665 C 
HETATM   12  N           1     -33.028  -4.503 -15.872  0.00  0.00    -0.235 N 
HETATM   13  N           1     -32.989  -3.213 -17.682  0.00  0.00    -0.235 N 
HETATM   14  H           1     -33.493  -4.817 -14.985  0.00  0.00     0.174 HD
HETATM   15  H           1     -32.120  -4.937 -16.172  0.00  0.00     0.174 HD
HETATM   16  H           1     -33.431  -2.469 -18.267  0.00  0.00     0.174 HD
HETATM   17  H           1     -32.086  -3.645 -17.979  0.00  0.00     0.174 HD
ENDBRANCH   8   9
ENDBRANCH   7   8
ENDBRANCH   6   7
ENDBRANCH   5   6
BRANCH   5  18
HETATM   18  N           1     -34.662   0.531 -14.148  0.00  0.00    -0.067 N 
HETATM   19  H           1     -34.191   1.048 -14.924  0.00  0.00     0.275 HD
HETATM   20  H           1     -34.299  -0.448 -14.110  0.00  0.00     0.275 HD
HETATM   21  H           1     -34.467   1.010 -13.240  0.00  0.00     0.275 HD
ENDBRANCH   5  18
ENDBRANCH   1   5
BRANCH   2  22
HETATM   22  C           1     -36.896  -0.486 -10.768  0.00  0.00     0.187 C 
BRANCH  22  23
HETATM   23  C           1     -36.107  -1.658 -10.196  0.00  0.00     0.066 C 
BRANCH  23  24
HETATM   24  C           1     -36.634  -2.960 -10.784  0.00  0.00     0.273 C 
BRANCH  24  25
HETATM   25  N           1     -35.635  -3.986 -10.651  0.00  0.00     0.098 N 
HETATM   26  H           1     -35.954  -4.833 -11.120  0.00  0.00     0.317 HD
BRANCH  25  27
HETATM   27  C           1     -34.434  -3.511 -11.281  0.00  0.00     0.323 C 
BRANCH  27  28
HETATM   28  C           1     -33.282  -4.450 -10.948  0.00  0.00     0.021 C 
HETATM   29  C           1     -32.254  -4.409 -12.072  0.00  0.00     0.012 C 
HETATM   30  C           1     -33.813  -5.869 -10.796  0.00  0.00     0.012 C 
ENDBRANCH  27  28
BRANCH  27  31
HETATM   31  C           1     -34.633  -3.469 -12.776  0.00  0.00     0.207 C 
HETATM   32  O           1     -34.886  -4.521 -13.402  0.00  0.00    -0.646 OA
HETATM   33  O           1     -34.546  -2.383 -13.388  0.00  0.00    -0.646 OA
ENDBRANCH  27  31
ENDBRANCH  25  27
ENDBRANCH  24  25
ENDBRANCH  23  24
ENDBRANCH  22  23
BRANCH  22  34
HETATM   34  C           1     -36.993   0.608  -9.734  0.00  0.00     0.196 C 
HETATM   35  O           1     -37.932   1.432  -9.782  0.00  0.00    -0.646 OA
HETATM   36  O           1     -36.134   0.690  -8.829  0.00  0.00    -0.646 OA
ENDBRANCH  22  34
ENDBRANCH   2  22
TORSDOF 14
ENDMDL
MODEL 3
REMARK VINA RESULT:      -7.1      1.993      3.031
REMARK  14 active torsions:
REMARK  status: ('A' for Active; 'I' for Inactive)
REMARK    1  A    between atoms: C_1  and  C_28 
REMARK    2  A    between atoms: C_1  and  C_16 
REMARK    3  A    between atoms: C_5  and  C_16 
REMARK    4  A    between atoms: C_6  and  C_7 
REMARK    5  A    between atoms: C_6  and  C_26 
REMARK    6  A    between atoms: C_6  and  N_29 
REMARK       I    between atoms: C_7  and  N_8 
REMARK    7  A    between atoms: N_8  and  C_16 
REMARK    8  A    between atoms: C_10  and  C_24 
REMARK    9  A    between atoms: C_10  and  C_11 
REMARK   10  A    between atoms: C_10  and  N_27 
REMARK   11  A    between atoms: C_18  and  C_25 
REMARK   12  A    between atoms: C_18  and  N_19 
REMARK       I    between atoms: N_19  and  C_20 
REMARK       I    between atoms: C_20  and  N_21 
REMARK   13  A    between atoms: C_25  and  C_26 
REMARK   14  A    between atoms: N_27  and  C_28 
ROOT
HETATM    1  C           1     -22.407  -4.166  -8.258  0.00  0.00     0.249 C 
HETATM    2  N           1     -22.105  -5.043  -7.250  0.00  0.00    -0.345 N 
HETATM    3  H           1     -22.697  -5.847  -7.086  0.00  0.00     0.163 HD
HETATM    4  O           1     -21.700  -3.206  -8.454  0.00  0.00    -0.271 OA
ENDROOT
BRANCH   1   5
HETATM    5  C           1     -23.622  -4.398  -9.121  0.00  0.00     0.274 C 
BRANCH   5   6
HETATM    6  C           1     -23.195  -4.522 -10.577  0.00  0.00     0.044 C 
BRANCH   6   7
HETATM    7  C           1     -24.042  -3.591 -11.435  0.00  0.00     0.023 C 
BRANCH   7   8
HETATM    8  C           1     -23.264  -3.201 -12.684  0.00  0.00     0.138 C 
BRANCH   8   9
HETATM    9  N           1     -23.898  -2.034 -13.315  0.00  0.00    -0.227 N 
HETATM   10  H           1     -24.630  -1.490 -12.795  0.00  0.00     0.177 HD
HETATM   11  C           1     -23.561  -1.686 -14.485  0.00  0.00     0.665 C 
HETATM   12  N           1     -24.107  -0.682 -15.028  0.00  0.00    -0.235 N 
HETATM   13  N           1     -22.655  -2.361 -15.128  0.00  0.00    -0.235 N 
HETATM   14  H           1     -24.838  -0.137 -14.507  0.00  0.00     0.174 HD
HETATM   15  H           1     -23.828  -0.392 -15.998  0.00  0.00     0.174 HD
HETATM   16  H           1     -22.205  -3.190 -14.680  0.00  0.00     0.174 HD
HETATM   17  H           1     -22.378  -2.073 -16.094  0.00  0.00     0.174 HD
ENDBRANCH   8   9
ENDBRANCH   7   8
ENDBRANCH   6   7
ENDBRANCH   5   6
BRANCH   5  18
HETATM   18  N           1     -24.568  -3.245  -8.974  0.00  0.00    -0.067 N 
HETATM   19  H           1     -24.418  -2.788  -8.046  0.00  0.00     0.275 HD
HETATM   20  H           1     -25.553  -3.590  -9.037  0.00  0.00     0.275 HD
HETATM   21  H           1     -24.393  -2.551  -9.737  0.00  0.00     0.275 HD
ENDBRANCH   5  18
ENDBRANCH   1   5
BRANCH   2  22
HETATM   22  C           1     -20.937  -4.819  -6.420  0.00  0.00     0.187 C 
BRANCH  22  23
HETATM   23  C           1     -21.099  -5.570  -5.105  0.00  0.00     0.066 C 
BRANCH  23  24
HETATM   24  C           1     -22.352  -6.434  -5.164  0.00  0.00     0.273 C 
BRANCH  24  25
HETATM   25  N           1     -22.096  -7.695  -4.523  0.00  0.00     0.098 N 
HETATM   26  H           1     -22.053  -8.432  -5.229  0.00  0.00     0.317 HD
BRANCH  25  27
HETATM   27  C           1     -20.827  -7.597  -3.855  0.00  0.00     0.323 C 
BRANCH  27  28
HETATM   28  C           1     -21.006  -7.919  -2.377  0.00  0.00     0.021 C 
HETATM   29  C           1     -21.697  -9.269  -2.233  0.00  0.00     0.012 C 
HETATM   30  C           1     -21.858  -6.839  -1.723  0.00  0.00     0.012 C 
ENDBRANCH  27  28
BRANCH  27  31
HETATM   31  C           1     -19.858  -8.576  -4.470  0.00  0.00     0.207 C 
HETATM   32  O           1     -18.769  -8.817  -3.903  0.00  0.00    -0.646 OA
HETATM   33  O           1     -20.142  -9.146  -5.545  0.00  0.00    -0.646 OA
ENDBRANCH  27  31
ENDBRANCH  25  27
ENDBRANCH  24  25
ENDBRANCH  23  24
ENDBRANCH  22  23
BRANCH  22  34
HETATM   34  C           1     -19.707  -5.318  -7.137  0.00  0.00     0.196 C 
HETATM   35  O           1     -19.603  -6.528  -7.432  0.00  0.00    -0.646 OA
HETATM   36  O           1     -18.792  -4.520  -7.437  0.00  0.00    -0.646 OA
ENDBRANCH  22  34
ENDBRANCH   2  22
TORSDOF 14
ENDMDL
MODEL 4
REMARK VINA RESULT:      -7.1      1.323      1.968
REMARK  14 active torsions:
REMARK  status: ('A' for Active; 'I' for Inactive)
REMARK    1  A    between atoms: C_1  and  C_28 
REMARK    2  A    between atoms: C_1  and  C_16 
REMARK    3  A    between atoms: C_5  and  C_16 
REMARK    4  A    between atoms: C_6  and  C_7 
REMARK    5  A    between atoms: C_6  and  C_26 
REMARK    6  A    between atoms: C_6  and  N_29 
REMARK       I    between atoms: C_7  and  N_8 
REMARK    7  A    between atoms: N_8  and  C_16 
REMARK    8  A    between atoms: C_10  and  C_24 
REMARK    9  A    between atoms: C_10  and  C_11 
REMARK   10  A    between atoms: C_10  and  N_27 
REMARK   11  A    between atoms: C_18  and  C_25 
REMARK   12  A    between atoms: C_18  and  N_19 
REMARK       I    between atoms: N_19  and  C_20 
REMARK       I    between atoms: C_20  and  N_21 
REMARK   13  A    between atoms: C_25  and  C_26 
REMARK   14  A    between atoms: N_27  and  C_28 
ROOT
HETATM    1  C           1     -20.775  -5.157  -6.828  0.00  0.00     0.249 C 
HETATM    2  N           1     -21.451  -6.126  -6.136  0.00  0.00    -0.345 N 
HETATM    3  H           1     -22.345  -6.459  -6.476  0.00  0.00     0.163 HD
HETATM    4  O           1     -19.708  -4.759  -6.423  0.00  0.00    -0.271 OA
ENDROOT
BRANCH   1   5
HETATM    5  C           1     -21.362  -4.585  -8.095  0.00  0.00     0.274 C 
BRANCH   5   6
HETATM    6  C           1     -20.246  -4.020  -8.962  0.00  0.00     0.044 C 
BRANCH   6   7
HETATM    7  C           1     -20.377  -4.567 -10.378  0.00  0.00     0.023 C 
BRANCH   7   8
HETATM    8  C           1     -20.581  -3.414 -11.351  0.00  0.00     0.138 C 
BRANCH   8   9
HETATM    9  N           1     -21.980  -2.965 -11.295  0.00  0.00    -0.227 N 
HETATM   10  H           1     -22.397  -2.660 -10.381  0.00  0.00     0.177 HD
HETATM   11  C           1     -22.682  -2.946 -12.349  0.00  0.00     0.665 C 
HETATM   12  N           1     -23.886  -2.560 -12.301  0.00  0.00    -0.235 N 
HETATM   13  N           1     -22.165  -3.324 -13.481  0.00  0.00    -0.235 N 
HETATM   14  H           1     -24.303  -2.254 -11.387  0.00  0.00     0.174 HD
HETATM   15  H           1     -24.468  -2.544 -13.175  0.00  0.00     0.174 HD
HETATM   16  H           1     -21.171  -3.643 -13.520  0.00  0.00     0.174 HD
HETATM   17  H           1     -22.744  -3.309 -14.350  0.00  0.00     0.174 HD
ENDBRANCH   8   9
ENDBRANCH   7   8
ENDBRANCH   6   7
ENDBRANCH   5   6
BRANCH   5  18
HETATM   18  N           1     -22.329  -3.492  -7.749  0.00  0.00    -0.067 N 
HETATM   19  H           1     -23.159  -3.903  -7.265  0.00  0.00     0.275 HD
HETATM   20  H           1     -22.638  -3.010  -8.623  0.00  0.00     0.275 HD
HETATM   21  H           1     -21.862  -2.802  -7.118  0.00  0.00     0.275 HD
ENDBRANCH   5  18
ENDBRANCH   1   5
BRANCH   2  22
HETATM   22  C           1     -20.887  -6.675  -4.919  0.00  0.00     0.187 C 
BRANCH  22  23
HETATM   23  C           1     -21.952  -6.692  -3.830  0.00  0.00     0.066 C 
BRANCH  23  24
HETATM   24  C           1     -21.318  -6.332  -2.493  0.00  0.00     0.273 C 
BRANCH  24  25
HETATM   25  N           1     -20.793  -7.519  -1.875  0.00  0.00     0.098 N 
HETATM   26  H           1     -20.248  -7.261  -1.052  0.00  0.00     0.317 HD
BRANCH  25  27
HETATM   27  C           1     -21.907  -8.335  -1.477  0.00  0.00     0.323 C 
BRANCH  27  28
HETATM   28  C           1     -21.518  -9.804  -1.567  0.00  0.00     0.021 C 
HETATM   29  C           1     -20.005  -9.921  -1.696  0.00  0.00     0.012 C 
HETATM   30  C           1     -22.182 -10.430  -2.787  0.00  0.00     0.012 C 
ENDBRANCH  27  28
BRANCH  27  31
HETATM   31  C           1     -22.290  -8.002  -0.056  0.00  0.00     0.207 C 
HETATM   32  O           1     -23.427  -7.544   0.194  0.00  0.00    -0.646 OA
HETATM   33  O           1     -21.472  -8.183   0.871  0.00  0.00    -0.646 OA
ENDBRANCH  27  31
ENDBRANCH  25  27
ENDBRANCH  24  25
ENDBRANCH  23  24
ENDBRANCH  22  23
BRANCH  22  34
HETATM   34  C           1     -20.407  -8.082  -5.176  0.00  0.00     0.196 C 
HETATM   35  O           1     -19.343  -8.484  -4.659  0.00  0.00    -0.646 OA
HETATM   36  O           1     -21.075  -8.846  -5.907  0.00  0.00    -0.646 OA
ENDBRANCH  22  34
ENDBRANCH   2  22
TORSDOF 14
ENDMDL
MODEL 5
REMARK VINA RESULT:      -6.9      2.693      9.824
REMARK  14 active torsions:
REMARK  status: ('A' for Active; 'I' for Inactive)
REMARK    1  A    between atoms: C_1  and  C_28 
REMARK    2  A    between atoms: C_1  and  C_16 
REMARK    3  A    between atoms: C_5  and  C_16 
REMARK    4  A    between atoms: C_6  and  C_7 
REMARK    5  A    between atoms: C_6  and  C_26 
REMARK    6  A    between atoms: C_6  and  N_29 
REMARK       I    between atoms: C_7  and  N_8 
REMARK    7  A    between atoms: N_8  and  C_16 
REMARK    8  A    between atoms: C_10  and  C_24 
REMARK    9  A    between atoms: C_10  and  C_11 
REMARK   10  A    between atoms: C_10  and  N_27 
REMARK   11  A    between atoms: C_18  and  C_25 
REMARK   12  A    between atoms: C_18  and  N_19 
REMARK       I    between atoms: N_19  and  C_20 
REMARK       I    between atoms: C_20  and  N_21 
REMARK   13  A    between atoms: C_25  and  C_26 
REMARK   14  A    between atoms: N_27  and  C_28 
ROOT
HETATM    1  C           1     -21.488  -6.378  -4.087  0.00  0.00     0.249 C 
HETATM    2  N           1     -20.830  -5.470  -4.874  0.00  0.00    -0.345 N 
HETATM    3  H           1     -20.177  -4.819  -4.456  0.00  0.00     0.163 HD
HETATM    4  O           1     -22.268  -7.155  -4.586  0.00  0.00    -0.271 OA
ENDROOT
BRANCH   1   5
HETATM    5  C           1     -21.242  -6.406  -2.599  0.00  0.00     0.274 C 
BRANCH   5   6
HETATM    6  C           1     -21.060  -7.846  -2.141  0.00  0.00     0.044 C 
BRANCH   6   7
HETATM    7  C           1     -21.837  -8.069  -0.850  0.00  0.00     0.023 C 
BRANCH   7   8
HETATM    8  C           1     -22.273  -9.526  -0.764  0.00  0.00     0.138 C 
BRANCH   8   9
HETATM    9  N           1     -21.215 -10.388  -1.310  0.00  0.00    -0.227 N 
HETATM   10  H           1     -20.950 -10.316  -2.323  0.00  0.00     0.177 HD
HETATM   11  C           1     -20.623 -11.218  -0.558  0.00  0.00     0.665 C 
HETATM   12  N           1     -19.712 -11.960  -1.028  0.00  0.00    -0.235 N 
HETATM   13  N           1     -20.952 -11.307   0.697  0.00  0.00    -0.235 N 
HETATM   14  H           1     -19.446 -11.888  -2.041  0.00  0.00     0.174 HD
HETATM   15  H           1     -19.221 -12.648  -0.404  0.00  0.00     0.174 HD
HETATM   16  H           1     -21.704 -10.694   1.085  0.00  0.00     0.174 HD
HETATM   17  H           1     -20.464 -11.992   1.317  0.00  0.00     0.174 HD
ENDBRANCH   8   9
ENDBRANCH   7   8
ENDBRANCH   6   7
ENDBRANCH   5   6
BRANCH   5  18
HETATM   18  N           1     -22.413  -5.798  -1.886  0.00  0.00    -0.067 N 
HETATM   19  H           1     -22.616  -6.347  -1.021  0.00  0.00     0.275 HD
HETATM   20  H           1     -23.249  -5.812  -2.513  0.00  0.00     0.275 HD
HETATM   21  H           1     -22.188  -4.810  -1.629  0.00  0.00     0.275 HD
ENDBRANCH   5  18
ENDBRANCH   1   5
BRANCH   2  22
HETATM   22  C           1     -21.067  -5.443  -6.304  0.00  0.00     0.187 C 
BRANCH  22  23
HETATM   23  C           1     -21.408  -4.022  -6.734  0.00  0.00     0.066 C 
BRANCH  23  24
HETATM   24  C           1     -22.639  -4.044  -7.630  0.00  0.00     0.273 C 
BRANCH  24  25
HETATM   25  N           1     -22.261  -4.465  -8.953  0.00  0.00     0.098 N 
HETATM   26  H           1     -22.592  -5.417  -9.113  0.00  0.00     0.317 HD
BRANCH  25  27
HETATM   27  C           1     -22.887  -3.574  -9.891  0.00  0.00     0.323 C 
BRANCH  27  28
HETATM   28  C           1     -22.344  -3.845 -11.287  0.00  0.00     0.021 C 
HETATM   29  C           1     -20.837  -4.054 -11.213  0.00  0.00     0.012 C 
HETATM   30  C           1     -22.649  -2.656 -12.189  0.00  0.00     0.012 C 
ENDBRANCH  27  28
BRANCH  27  31
HETATM   31  C           1     -24.379  -3.799  -9.878  0.00  0.00     0.207 C 
HETATM   32  O           1     -24.838  -4.953 -10.023  0.00  0.00    -0.646 OA
HETATM   33  O           1     -25.156  -2.832  -9.724  0.00  0.00    -0.646 OA
ENDBRANCH  27  31
ENDBRANCH  25  27
ENDBRANCH  24  25
ENDBRANCH  23  24
ENDBRANCH  22  23
BRANCH  22  34
HETATM   34  C           1     -19.828  -5.905  -7.028  0.00  0.00     0.196 C 
HETATM   35  O           1     -19.357  -7.041  -6.802  0.00  0.00    -0.646 OA
HETATM   36  O           1     -19.271  -5.152  -7.857  0.00  0.00    -0.646 OA
ENDBRANCH  22  34
ENDBRANCH   2  22
TORSDOF 14
ENDMDL
MODEL 6
REMARK VINA RESULT:      -6.8      2.445      3.269
REMARK  14 active torsions:
REMARK  status: ('A' for Active; 'I' for Inactive)
REMARK    1  A    between atoms: C_1  and  C_28 
REMARK    2  A    between atoms: C_1  and  C_16 
REMARK    3  A    between atoms: C_5  and  C_16 
REMARK    4  A    between atoms: C_6  and  C_7 
REMARK    5  A    between atoms: C_6  and  C_26 
REMARK    6  A    between atoms: C_6  and  N_29 
REMARK       I    between atoms: C_7  and  N_8 
REMARK    7  A    between atoms: N_8  and  C_16 
REMARK    8  A    between atoms: C_10  and  C_24 
REMARK    9  A    between atoms: C_10  and  C_11 
REMARK   10  A    between atoms: C_10  and  N_27 
REMARK   11  A    between atoms: C_18  and  C_25 
REMARK   12  A    between atoms: C_18  and  N_19 
REMARK       I    between atoms: N_19  and  C_20 
REMARK       I    between atoms: C_20  and  N_21 
REMARK   13  A    between atoms: C_25  and  C_26 
REMARK   14  A    between atoms: N_27  and  C_28 
ROOT
HETATM    1  C           1     -20.353  -7.030  -5.894  0.00  0.00     0.249 C 
HETATM    2  N           1     -20.484  -7.884  -4.831  0.00  0.00    -0.345 N 
HETATM    3  H           1     -21.284  -7.806  -4.217  0.00  0.00     0.163 HD
HETATM    4  O           1     -19.397  -7.122  -6.628  0.00  0.00    -0.271 OA
ENDROOT
BRANCH   1   5
HETATM    5  C           1     -21.400  -5.974  -6.148  0.00  0.00     0.274 C 
BRANCH   5   6
HETATM    6  C           1     -20.724  -4.626  -6.352  0.00  0.00     0.044 C 
BRANCH   6   7
HETATM    7  C           1     -21.645  -3.711  -7.149  0.00  0.00     0.023 C 
BRANCH   7   8
HETATM    8  C           1     -22.430  -4.537  -8.159  0.00  0.00     0.138 C 
BRANCH   8   9
HETATM    9  N           1     -23.733  -3.902  -8.406  0.00  0.00    -0.227 N 
HETATM   10  H           1     -24.169  -3.294  -7.668  0.00  0.00     0.177 HD
HETATM   11  C           1     -24.330  -4.089  -9.507  0.00  0.00     0.665 C 
HETATM   12  N           1     -25.452  -3.542  -9.719  0.00  0.00    -0.235 N 
HETATM   13  N           1     -23.790  -4.841 -10.419  0.00  0.00    -0.235 N 
HETATM   14  H           1     -25.887  -2.934  -8.982  0.00  0.00     0.174 HD
HETATM   15  H           1     -25.947  -3.696 -10.632  0.00  0.00     0.174 HD
HETATM   16  H           1     -22.864  -5.292 -10.244  0.00  0.00     0.174 HD
HETATM   17  H           1     -24.283  -4.995 -11.327  0.00  0.00     0.174 HD
ENDBRANCH   8   9
ENDBRANCH   7   8
ENDBRANCH   6   7
ENDBRANCH   5   6
BRANCH   5  18
HETATM   18  N           1     -22.327  -5.896  -4.971  0.00  0.00    -0.067 N 
HETATM   19  H           1     -21.898  -6.392  -4.157  0.00  0.00     0.275 HD
HETATM   20  H           1     -23.237  -6.347  -5.214  0.00  0.00     0.275 HD
HETATM   21  H           1     -22.490  -4.894  -4.723  0.00  0.00     0.275 HD
ENDBRANCH   5  18
ENDBRANCH   1   5
BRANCH   2  22
HETATM   22  C           1     -19.477  -8.898  -4.588  0.00  0.00     0.187 C 
BRANCH  22  23
HETATM   23  C           1     -19.254  -9.040  -3.088  0.00  0.00     0.066 C 
BRANCH  23  24
HETATM   24  C           1     -20.478  -8.529  -2.341  0.00  0.00     0.273 C 
BRANCH  24  25
HETATM   25  N           1     -20.858  -9.481  -1.332  0.00  0.00     0.098 N 
HETATM   26  H           1     -20.256  -9.368  -0.516  0.00  0.00     0.317 HD
BRANCH  25  27
HETATM   27  C           1     -22.221  -9.209  -0.966  0.00  0.00     0.323 C 
BRANCH  27  28
HETATM   28  C           1     -22.758 -10.359  -0.124  0.00  0.00     0.021 C 
HETATM   29  C           1     -21.623 -11.319   0.205  0.00  0.00     0.012 C 
HETATM   30  C           1     -23.839 -11.096  -0.904  0.00  0.00     0.012 C 
ENDBRANCH  27  28
BRANCH  27  31
HETATM   31  C           1     -22.281  -7.930  -0.168  0.00  0.00     0.207 C 
HETATM   32  O           1     -22.845  -6.921  -0.645  0.00  0.00    -0.646 OA
HETATM   33  O           1     -21.767  -7.878   0.970  0.00  0.00    -0.646 OA
ENDBRANCH  27  31
ENDBRANCH  25  27
ENDBRANCH  24  25
ENDBRANCH  23  24
ENDBRANCH  22  23
BRANCH  22  34
HETATM   34  C           1     -19.943 -10.216  -5.155  0.00  0.00     0.196 C 
HETATM   35  O           1     -21.164 -10.435  -5.306  0.00  0.00    -0.646 OA
HETATM   36  O           1     -19.107 -11.089  -5.476  0.00  0.00    -0.646 OA
ENDBRANCH  22  34
ENDBRANCH   2  22
TORSDOF 14
ENDMDL
MODEL 7
REMARK VINA RESULT:      -6.8      2.808      4.420
REMARK  14 active torsions:
REMARK  status: ('A' for Active; 'I' for Inactive)
REMARK    1  A    between atoms: C_1  and  C_28 
REMARK    2  A    between atoms: C_1  and  C_16 
REMARK    3  A    between atoms: C_5  and  C_16 
REMARK    4  A    between atoms: C_6  and  C_7 
REMARK    5  A    between atoms: C_6  and  C_26 
REMARK    6  A    between atoms: C_6  and  N_29 
REMARK       I    between atoms: C_7  and  N_8 
REMARK    7  A    between atoms: N_8  and  C_16 
REMARK    8  A    between atoms: C_10  and  C_24 
REMARK    9  A    between atoms: C_10  and  C_11 
REMARK   10  A    between atoms: C_10  and  N_27 
REMARK   11  A    between atoms: C_18  and  C_25 
REMARK   12  A    between atoms: C_18  and  N_19 
REMARK       I    between atoms: N_19  and  C_20 
REMARK       I    between atoms: C_20  and  N_21 
REMARK   13  A    between atoms: C_25  and  C_26 
REMARK   14  A    between atoms: N_27  and  C_28 
ROOT
HETATM    1  C           1     -21.591  -6.540  -5.050  0.00  0.00     0.249 C 
HETATM    2  N           1     -20.971  -7.062  -3.946  0.00  0.00    -0.345 N 
HETATM    3  H           1     -19.964  -7.005  -3.858  0.00  0.00     0.163 HD
HETATM    4  O           1     -22.793  -6.608  -5.156  0.00  0.00    -0.271 OA
ENDROOT
BRANCH   1   5
HETATM    5  C           1     -20.774  -5.880  -6.133  0.00  0.00     0.274 C 
BRANCH   5   6
HETATM    6  C           1     -21.673  -5.546  -7.316  0.00  0.00     0.044 C 
BRANCH   6   7
HETATM    7  C           1     -21.885  -4.040  -7.383  0.00  0.00     0.023 C 
BRANCH   7   8
HETATM    8  C           1     -22.464  -3.668  -8.742  0.00  0.00     0.138 C 
BRANCH   8   9
HETATM    9  N           1     -23.932  -3.707  -8.678  0.00  0.00    -0.227 N 
HETATM   10  H           1     -24.412  -3.925  -7.770  0.00  0.00     0.177 HD
HETATM   11  C           1     -24.617  -3.476  -9.718  0.00  0.00     0.665 C 
HETATM   12  N           1     -25.881  -3.510  -9.663  0.00  0.00    -0.235 N 
HETATM   13  N           1     -24.022  -3.205 -10.841  0.00  0.00    -0.235 N 
HETATM   14  H           1     -26.362  -3.727  -8.755  0.00  0.00     0.174 HD
HETATM   15  H           1     -26.450  -3.318 -10.525  0.00  0.00     0.174 HD
HETATM   16  H           1     -22.979  -3.178 -10.886  0.00  0.00     0.174 HD
HETATM   17  H           1     -24.588  -3.016 -11.699  0.00  0.00     0.174 HD
ENDBRANCH   8   9
ENDBRANCH   7   8
ENDBRANCH   6   7
ENDBRANCH   5   6
BRANCH   5  18
HETATM   18  N           1     -19.687  -6.812  -6.578  0.00  0.00    -0.067 N 
HETATM   19  H           1     -19.723  -6.917  -7.617  0.00  0.00     0.275 HD
HETATM   20  H           1     -19.822  -7.745  -6.128  0.00  0.00     0.275 HD
HETATM   21  H           1     -18.758  -6.422  -6.298  0.00  0.00     0.275 HD
ENDBRANCH   5  18
ENDBRANCH   1   5
BRANCH   2  22
HETATM   22  C           1     -21.756  -7.697  -2.906  0.00  0.00     0.187 C 
BRANCH  22  23
HETATM   23  C           1     -20.963  -8.851  -2.306  0.00  0.00     0.066 C 
BRANCH  23  24
HETATM   24  C           1     -19.475  -8.540  -2.385  0.00  0.00     0.273 C 
BRANCH  24  25
HETATM   25  N           1     -18.751  -9.738  -2.717  0.00  0.00     0.098 N 
HETATM   26  H           1     -19.394 -10.530  -2.729  0.00  0.00     0.317 HD
BRANCH  25  27
HETATM   27  C           1     -18.186  -9.559  -4.026  0.00  0.00     0.323 C 
BRANCH  27  28
HETATM   28  C           1     -16.787 -10.160  -4.061  0.00  0.00     0.021 C 
HETATM   29  C           1     -15.992  -9.663  -2.859  0.00  0.00     0.012 C 
HETATM   30  C           1     -16.085  -9.738  -5.345  0.00  0.00     0.012 C 
ENDBRANCH  27  28
BRANCH  27  31
HETATM   31  C           1     -19.056 -10.248  -5.048  0.00  0.00     0.207 C 
HETATM   32  O           1     -18.962 -11.484  -5.216  0.00  0.00    -0.646 OA
HETATM   33  O           1     -19.869  -9.585  -5.726  0.00  0.00    -0.646 OA
ENDBRANCH  27  31
ENDBRANCH  25  27
ENDBRANCH  24  25
ENDBRANCH  23  24
ENDBRANCH  22  23
BRANCH  22  34
HETATM   34  C           1     -22.073  -6.689  -1.829  0.00  0.00     0.196 C 
HETATM   35  O           1     -22.444  -7.075  -0.700  0.00  0.00    -0.646 OA
HETATM   36  O           1     -21.962  -5.466  -2.066  0.00  0.00    -0.646 OA
ENDBRANCH  22  34
ENDBRANCH   2  22
TORSDOF 14
ENDMDL
MODEL 8
REMARK VINA RESULT:      -6.7      2.179      3.025
REMARK  14 active torsions:
REMARK  status: ('A' for Active; 'I' for Inactive)
REMARK    1  A    between atoms: C_1  and  C_28 
REMARK    2  A    between atoms: C_1  and  C_16 
REMARK    3  A    between atoms: C_5  and  C_16 
REMARK    4  A    between atoms: C_6  and  C_7 
REMARK    5  A    between atoms: C_6  and  C_26 
REMARK    6  A    between atoms: C_6  and  N_29 
REMARK       I    between atoms: C_7  and  N_8 
REMARK    7  A    between atoms: N_8  and  C_16 
REMARK    8  A    between atoms: C_10  and  C_24 
REMARK    9  A    between atoms: C_10  and  C_11 
REMARK   10  A    between atoms: C_10  and  N_27 
REMARK   11  A    between atoms: C_18  and  C_25 
REMARK   12  A    between atoms: C_18  and  N_19 
REMARK       I    between atoms: N_19  and  C_20 
REMARK       I    between atoms: C_20  and  N_21 
REMARK   13  A    between atoms: C_25  and  C_26 
REMARK   14  A    between atoms: N_27  and  C_28 
ROOT
HETATM    1  C           1     -20.663  -6.440  -4.951  0.00  0.00     0.249 C 
HETATM    2  N           1     -20.106  -7.691  -4.983  0.00  0.00    -0.345 N 
HETATM    3  H           1     -19.609  -8.002  -5.808  0.00  0.00     0.163 HD
HETATM    4  O           1     -21.257  -6.068  -3.967  0.00  0.00    -0.271 OA
ENDROOT
BRANCH   1   5
HETATM    5  C           1     -20.538  -5.527  -6.146  0.00  0.00     0.274 C 
BRANCH   5   6
HETATM    6  C           1     -21.922  -5.068  -6.583  0.00  0.00     0.044 C 
BRANCH   6   7
HETATM    7  C           1     -21.795  -3.807  -7.427  0.00  0.00     0.023 C 
BRANCH   7   8
HETATM    8  C           1     -22.435  -4.040  -8.789  0.00  0.00     0.138 C 
BRANCH   8   9
HETATM    9  N           1     -23.893  -3.886  -8.680  0.00  0.00    -0.227 N 
HETATM   10  H           1     -24.376  -4.092  -7.770  0.00  0.00     0.177 HD
HETATM   11  C           1     -24.567  -3.507  -9.683  0.00  0.00     0.665 C 
HETATM   12  N           1     -25.822  -3.374  -9.588  0.00  0.00    -0.235 N 
HETATM   13  N           1     -23.969  -3.252 -10.809  0.00  0.00    -0.235 N 
HETATM   14  H           1     -26.304  -3.579  -8.678  0.00  0.00     0.174 HD
HETATM   15  H           1     -26.381  -3.059 -10.419  0.00  0.00     0.174 HD
HETATM   16  H           1     -22.933  -3.362 -10.886  0.00  0.00     0.174 HD
HETATM   17  H           1     -24.525  -2.940 -11.636  0.00  0.00     0.174 HD
ENDBRANCH   8   9
ENDBRANCH   7   8
ENDBRANCH   6   7
ENDBRANCH   5   6
BRANCH   5  18
HETATM   18  N           1     -19.877  -6.266  -7.272  0.00  0.00    -0.067 N 
HETATM   19  H           1     -20.100  -7.284  -7.199  0.00  0.00     0.275 HD
HETATM   20  H           1     -18.842  -6.131  -7.218  0.00  0.00     0.275 HD
HETATM   21  H           1     -20.229  -5.896  -8.184  0.00  0.00     0.275 HD
ENDBRANCH   5  18
ENDBRANCH   1   5
BRANCH   2  22
HETATM   22  C           1     -20.227  -8.567  -3.834  0.00  0.00     0.187 C 
BRANCH  22  23
HETATM   23  C           1     -21.206  -9.690  -4.155  0.00  0.00     0.066 C 
BRANCH  23  24
HETATM   24  C           1     -21.685 -10.331  -2.860  0.00  0.00     0.273 C 
BRANCH  24  25
HETATM   25  N           1     -22.297  -9.331  -2.027  0.00  0.00     0.098 N 
HETATM   26  H           1     -23.308  -9.348  -2.165  0.00  0.00     0.317 HD
BRANCH  25  27
HETATM   27  C           1     -21.993  -9.655  -0.660  0.00  0.00     0.323 C 
BRANCH  27  28
HETATM   28  C           1     -22.293  -8.453   0.224  0.00  0.00     0.021 C 
HETATM   29  C           1     -22.243  -7.182  -0.614  0.00  0.00     0.012 C 
HETATM   30  C           1     -21.256  -8.370   1.336  0.00  0.00     0.012 C 
ENDBRANCH  27  28
BRANCH  27  31
HETATM   31  C           1     -22.838 -10.826  -0.221  0.00  0.00     0.207 C 
HETATM   32  O           1     -24.084 -10.763  -0.304  0.00  0.00    -0.646 OA
HETATM   33  O           1     -22.292 -11.858   0.225  0.00  0.00    -0.646 OA
ENDBRANCH  27  31
ENDBRANCH  25  27
ENDBRANCH  24  25
ENDBRANCH  23  24
ENDBRANCH  22  23
BRANCH  22  34
HETATM   34  C           1     -18.877  -9.154  -3.505  0.00  0.00     0.196 C 
HETATM   35  O           1     -18.547  -9.334  -2.313  0.00  0.00    -0.646 OA
HETATM   36  O           1     -18.089  -9.463  -4.425  0.00  0.00    -0.646 OA
ENDBRANCH  22  34
ENDBRANCH   2  22
TORSDOF 14
ENDMDL
MODEL 9
REMARK VINA RESULT:      -6.6      1.973      2.776
REMARK  14 active torsions:
REMARK  status: ('A' for Active; 'I' for Inactive)
REMARK    1  A    between atoms: C_1  and  C_28 
REMARK    2  A    between atoms: C_1  and  C_16 
REMARK    3  A    between atoms: C_5  and  C_16 
REMARK    4  A    between atoms: C_6  and  C_7 
REMARK    5  A    between atoms: C_6  and  C_26 
REMARK    6  A    between atoms: C_6  and  N_29 
REMARK       I    between atoms: C_7  and  N_8 
REMARK    7  A    between atoms: N_8  and  C_16 
REMARK    8  A    between atoms: C_10  and  C_24 
REMARK    9  A    between atoms: C_10  and  C_11 
REMARK   10  A    between atoms: C_10  and  N_27 
REMARK   11  A    between atoms: C_18  and  C_25 
REMARK   12  A    between atoms: C_18  and  N_19 
REMARK       I    between atoms: N_19  and  C_20 
REMARK       I    between atoms: C_20  and  N_21 
REMARK   13  A    between atoms: C_25  and  C_26 
REMARK   14  A    between atoms: N_27  and  C_28 
ROOT
HETATM    1  C           1     -20.040  -7.050  -6.006  0.00  0.00     0.249 C 
HETATM    2  N           1     -20.189  -7.943  -4.978  0.00  0.00    -0.345 N 
HETATM    3  H           1     -20.942  -7.826  -4.312  0.00  0.00     0.163 HD
HETATM    4  O           1     -19.142  -7.189  -6.801  0.00  0.00    -0.271 OA
ENDROOT
BRANCH   1   5
HETATM    5  C           1     -20.997  -5.892  -6.143  0.00  0.00     0.274 C 
BRANCH   5   6
HETATM    6  C           1     -21.127  -5.511  -7.612  0.00  0.00     0.044 C 
BRANCH   6   7
HETATM    7  C           1     -21.782  -4.140  -7.725  0.00  0.00     0.023 C 
BRANCH   7   8
HETATM    8  C           1     -22.677  -4.105  -8.955  0.00  0.00     0.138 C 
BRANCH   8   9
HETATM    9  N           1     -21.864  -3.823 -10.147  0.00  0.00    -0.227 N 
HETATM   10  H           1     -20.935  -3.343 -10.047  0.00  0.00     0.177 HD
HETATM   11  C           1     -22.283  -4.159 -11.294  0.00  0.00     0.665 C 
HETATM   12  N           1     -21.583  -3.917 -12.320  0.00  0.00    -0.235 N 
HETATM   13  N           1     -23.433  -4.754 -11.417  0.00  0.00    -0.235 N 
HETATM   14  H           1     -20.654  -3.437 -12.220  0.00  0.00     0.174 HD
HETATM   15  H           1     -21.930  -4.196 -13.271  0.00  0.00     0.174 HD
HETATM   16  H           1     -24.011  -4.953 -10.570  0.00  0.00     0.174 HD
HETATM   17  H           1     -23.779  -5.031 -12.363  0.00  0.00     0.174 HD
ENDBRANCH   8   9
ENDBRANCH   7   8
ENDBRANCH   6   7
ENDBRANCH   5   6
BRANCH   5  18
HETATM   18  N           1     -20.477  -4.718  -5.367  0.00  0.00    -0.067 N 
HETATM   19  H           1     -21.173  -3.940  -5.407  0.00  0.00     0.275 HD
HETATM   20  H           1     -19.573  -4.399  -5.781  0.00  0.00     0.275 HD
HETATM   21  H           1     -20.324  -5.000  -4.372  0.00  0.00     0.275 HD
ENDBRANCH   5  18
ENDBRANCH   1   5
BRANCH   2  22
HETATM   22  C           1     -19.269  -9.056  -4.846  0.00  0.00     0.187 C 
BRANCH  22  23
HETATM   23  C           1     -18.946  -9.274  -3.373  0.00  0.00     0.066 C 
BRANCH  23  24
HETATM   24  C           1     -20.216  -9.662  -2.627  0.00  0.00     0.273 C 
BRANCH  24  25
HETATM   25  N           1     -20.405  -8.776  -1.509  0.00  0.00     0.098 N 
HETATM   26  H           1     -19.801  -7.961  -1.616  0.00  0.00     0.317 HD
BRANCH  25  27
HETATM   27  C           1     -21.780  -8.359  -1.511  0.00  0.00     0.323 C 
BRANCH  27  28
HETATM   28  C           1     -22.401  -8.654  -0.152  0.00  0.00     0.021 C 
HETATM   29  C           1     -21.298  -8.789   0.891  0.00  0.00     0.012 C 
HETATM   30  C           1     -23.191  -9.954  -0.227  0.00  0.00     0.012 C 
ENDBRANCH  27  28
BRANCH  27  31
HETATM   31  C           1     -21.856  -6.878  -1.787  0.00  0.00     0.207 C 
HETATM   32  O           1     -21.197  -6.383  -2.728  0.00  0.00    -0.646 OA
HETATM   33  O           1     -22.575  -6.145  -1.075  0.00  0.00    -0.646 OA
ENDBRANCH  27  31
ENDBRANCH  25  27
ENDBRANCH  24  25
ENDBRANCH  23  24
ENDBRANCH  22  23
BRANCH  22  34
HETATM   34  C           1     -19.902 -10.302  -5.413  0.00  0.00     0.196 C 
HETATM   35  O           1     -19.281 -11.386  -5.387  0.00  0.00    -0.646 OA
HETATM   36  O           1     -21.049 -10.250  -5.908  0.00  0.00    -0.646 OA
ENDBRANCH  22  34
ENDBRANCH   2  22
TORSDOF 14
ENDMDL
