MODEL 1
REMARK VINA RESULT:      -5.4      0.000      0.000
REMARK  5 active torsions:
REMARK  status: ('A' for Active; 'I' for Inactive)
REMARK    1  A    between atoms: C_9  and  C_17 
REMARK    2  A    between atoms: C_10  and  C_14 
REMARK    3  A    between atoms: C_10  and  C_13 
REMARK    4  A    between atoms: C_10  and  N_16 
REMARK    5  A    between atoms: S_11  and  C_14 
REMARK       I    between atoms: N_16  and  C_17 
ROOT
HETATM    1  O           1     -19.922  -5.059  -9.847  0.00  0.00    -0.271 OA
HETATM    2  H           1     -22.423  -3.306  -9.132  0.00  0.00     0.163 HD
HETATM    3  N           1     -21.836  -3.919  -9.681  0.00  0.00    -0.344 N 
HETATM    4  C           1     -20.623  -4.327  -9.190  0.00  0.00     0.251 C 
ENDROOT
BRANCH   3   5
HETATM    5  C           1     -22.276  -4.367 -10.987  0.00  0.00     0.194 C 
BRANCH   5   6
HETATM    6  C           1     -23.743  -4.772 -10.918  0.00  0.00     0.106 C 
BRANCH   6   7
HETATM    7  S           1     -24.643  -3.604  -9.859  0.00  0.00    -0.180 SA
HETATM    8  H           1     -23.626  -3.371  -9.009  0.00  0.00     0.101 HD
ENDBRANCH   6   7
ENDBRANCH   5   6
BRANCH   5   9
HETATM    9  C           1     -22.111  -3.246 -11.984  0.00  0.00     0.197 C 
HETATM   10  O           1     -21.409  -2.253 -11.697  0.00  0.00    -0.646 OA
HETATM   11  O           1     -22.677  -3.312 -13.098  0.00  0.00    -0.646 OA
ENDBRANCH   5   9
ENDBRANCH   3   5
BRANCH   4  12
HETATM   12  C           1     -20.164  -3.860  -7.831  0.00  0.00     0.311 C 
HETATM   13  C           1     -19.233  -4.878  -7.195  0.00  0.00     0.047 C 
HETATM   14  C           1     -20.131  -5.741  -6.316  0.00  0.00     0.033 C 
HETATM   15  C           1     -21.527  -5.166  -6.488  0.00  0.00     0.271 C 
HETATM   16  N           1     -21.288  -3.786  -6.901  0.00  0.00     0.097 N 
HETATM   17  H           1     -21.045  -3.225  -6.085  0.00  0.00     0.317 HD
ENDBRANCH   4  12
TORSDOF 5
ENDMDL
MODEL 2
REMARK VINA RESULT:      -5.3      2.154      2.410
REMARK  5 active torsions:
REMARK  status: ('A' for Active; 'I' for Inactive)
REMARK    1  A    between atoms: C_9  and  C_17 
REMARK    2  A    between atoms: C_10  and  C_14 
REMARK    3  A    between atoms: C_10  and  C_13 
REMARK    4  A    between atoms: C_10  and  N_16 
REMARK    5  A    between atoms: S_11  and  C_14 
REMARK       I    between atoms: N_16  and  C_17 
ROOT
HETATM    1  O           1     -20.178  -3.665  -9.124  0.00  0.00    -0.271 OA
HETATM    2  H           1     -22.618  -5.603  -8.766  0.00  0.00     0.163 HD
HETATM    3  N           1     -22.099  -4.804  -9.106  0.00  0.00    -0.344 N 
HETATM    4  C           1     -20.798  -4.619  -8.719  0.00  0.00     0.251 C 
ENDROOT
BRANCH   3   5
HETATM    5  C           1     -22.729  -3.857 -10.003  0.00  0.00     0.194 C 
BRANCH   5   6
HETATM    6  C           1     -22.431  -4.246 -11.445  0.00  0.00     0.106 C 
BRANCH   6   7
HETATM    7  S           1     -22.902  -2.884 -12.549  0.00  0.00    -0.180 SA
HETATM    8  H           1     -23.539  -3.650 -13.454  0.00  0.00     0.101 HD
ENDBRANCH   6   7
ENDBRANCH   5   6
BRANCH   5   9
HETATM    9  C           1     -24.222  -3.871  -9.779  0.00  0.00     0.197 C 
HETATM   10  O           1     -24.821  -2.810  -9.500  0.00  0.00    -0.646 OA
HETATM   11  O           1     -24.858  -4.943  -9.872  0.00  0.00    -0.646 OA
ENDBRANCH   5   9
ENDBRANCH   3   5
BRANCH   4  12
HETATM   12  C           1     -20.141  -5.604  -7.784  0.00  0.00     0.311 C 
HETATM   13  C           1     -21.181  -6.353  -6.968  0.00  0.00     0.047 C 
HETATM   14  C           1     -21.295  -5.576  -5.662  0.00  0.00     0.033 C 
HETATM   15  C           1     -20.307  -4.428  -5.795  0.00  0.00     0.271 C 
HETATM   16  N           1     -19.341  -4.912  -6.778  0.00  0.00     0.097 N 
HETATM   17  H           1     -18.691  -5.556  -6.327  0.00  0.00     0.317 HD
ENDBRANCH   4  12
TORSDOF 5
ENDMDL
MODEL 3
REMARK VINA RESULT:      -4.8      4.657      6.854
REMARK  5 active torsions:
REMARK  status: ('A' for Active; 'I' for Inactive)
REMARK    1  A    between atoms: C_9  and  C_17 
REMARK    2  A    between atoms: C_10  and  C_14 
REMARK    3  A    between atoms: C_10  and  C_13 
REMARK    4  A    between atoms: C_10  and  N_16 
REMARK    5  A    between atoms: S_11  and  C_14 
REMARK       I    between atoms: N_16  and  C_17 
ROOT
HETATM    1  O           1     -22.583  -5.589  -5.801  0.00  0.00    -0.271 OA
HETATM    2  H           1     -19.707  -6.029  -4.629  0.00  0.00     0.163 HD
HETATM    3  N           1     -20.695  -6.191  -4.770  0.00  0.00    -0.344 N 
HETATM    4  C           1     -21.402  -5.396  -5.633  0.00  0.00     0.251 C 
ENDROOT
BRANCH   3   5
HETATM    5  C           1     -21.363  -7.263  -4.060  0.00  0.00     0.194 C 
BRANCH   5   6
HETATM    6  C           1     -20.496  -8.515  -4.095  0.00  0.00     0.106 C 
BRANCH   6   7
HETATM    7  S           1     -21.559  -9.986  -4.108  0.00  0.00    -0.180 SA
HETATM    8  H           1     -21.601 -10.142  -2.772  0.00  0.00     0.101 HD
ENDBRANCH   6   7
ENDBRANCH   5   6
BRANCH   5   9
HETATM    9  C           1     -21.589  -6.850  -2.625  0.00  0.00     0.197 C 
HETATM   10  O           1     -20.924  -7.381  -1.711  0.00  0.00    -0.646 OA
HETATM   11  O           1     -22.443  -5.978  -2.353  0.00  0.00    -0.646 OA
ENDBRANCH   5   9
ENDBRANCH   3   5
BRANCH   4  12
HETATM   12  C           1     -20.707  -4.280  -6.372  0.00  0.00     0.311 C 
HETATM   13  C           1     -21.602  -3.711  -7.460  0.00  0.00     0.047 C 
HETATM   14  C           1     -21.206  -4.457  -8.729  0.00  0.00     0.033 C 
HETATM   15  C           1     -20.099  -5.407  -8.302  0.00  0.00     0.271 C 
HETATM   16  N           1     -19.547  -4.784  -7.102  0.00  0.00     0.097 N 
HETATM   17  H           1     -18.929  -4.018  -7.371  0.00  0.00     0.317 HD
ENDBRANCH   4  12
TORSDOF 5
ENDMDL
MODEL 4
REMARK VINA RESULT:      -4.7     16.797     18.340
REMARK  5 active torsions:
REMARK  status: ('A' for Active; 'I' for Inactive)
REMARK    1  A    between atoms: C_9  and  C_17 
REMARK    2  A    between atoms: C_10  and  C_14 
REMARK    3  A    between atoms: C_10  and  C_13 
REMARK    4  A    between atoms: C_10  and  N_16 
REMARK    5  A    between atoms: S_11  and  C_14 
REMARK       I    between atoms: N_16  and  C_17 
ROOT
HETATM    1  O           1     -12.801   7.782 -20.980  0.00  0.00    -0.271 OA
HETATM    2  H           1     -11.537   5.076 -20.019  0.00  0.00     0.163 HD
HETATM    3  N           1     -12.170   5.690 -20.515  0.00  0.00    -0.344 N 
HETATM    4  C           1     -12.046   7.048 -20.387  0.00  0.00     0.251 C 
ENDROOT
BRANCH   3   5
HETATM    5  C           1     -13.206   5.134 -21.362  0.00  0.00     0.194 C 
BRANCH   5   6
HETATM    6  C           1     -12.781   3.754 -21.846  0.00  0.00     0.106 C 
BRANCH   6   7
HETATM    7  S           1     -11.434   3.134 -20.800  0.00  0.00    -0.180 SA
HETATM    8  H           1     -11.529   4.095 -19.863  0.00  0.00     0.101 HD
ENDBRANCH   6   7
ENDBRANCH   5   6
BRANCH   5   9
HETATM    9  C           1     -14.488   5.016 -20.574  0.00  0.00     0.197 C 
HETATM   10  O           1     -14.458   4.625 -19.387  0.00  0.00    -0.646 OA
HETATM   11  O           1     -15.580   5.310 -21.109  0.00  0.00    -0.646 OA
ENDBRANCH   5   9
ENDBRANCH   3   5
BRANCH   4  12
HETATM   12  C           1     -10.967   7.628 -19.506  0.00  0.00     0.311 C 
HETATM   13  C           1     -10.695   9.078 -19.866  0.00  0.00     0.047 C 
HETATM   14  C           1      -9.522   9.032 -20.839  0.00  0.00     0.033 C 
HETATM   15  C           1      -9.180   7.557 -20.977  0.00  0.00     0.271 C 
HETATM   16  N           1      -9.689   6.964 -19.744  0.00  0.00     0.097 N 
HETATM   17  H           1      -9.037   7.150 -18.983  0.00  0.00     0.317 HD
ENDBRANCH   4  12
TORSDOF 5
ENDMDL
MODEL 5
REMARK VINA RESULT:      -4.7     16.887     18.404
REMARK  5 active torsions:
REMARK  status: ('A' for Active; 'I' for Inactive)
REMARK    1  A    between atoms: C_9  and  C_17 
REMARK    2  A    between atoms: C_10  and  C_14 
REMARK    3  A    between atoms: C_10  and  C_13 
REMARK    4  A    between atoms: C_10  and  N_16 
REMARK    5  A    between atoms: S_11  and  C_14 
REMARK       I    between atoms: N_16  and  C_17 
ROOT
HETATM    1  O           1     -12.708   6.811 -19.574  0.00  0.00    -0.271 OA
HETATM    2  H           1     -10.614   4.965 -21.005  0.00  0.00     0.163 HD
HETATM    3  N           1     -11.523   5.291 -20.703  0.00  0.00    -0.344 N 
HETATM    4  C           1     -11.623   6.421 -19.935  0.00  0.00     0.251 C 
ENDROOT
BRANCH   3   5
HETATM    5  C           1     -12.717   4.565 -21.083  0.00  0.00     0.194 C 
BRANCH   5   6
HETATM    6  C           1     -13.105   4.934 -22.509  0.00  0.00     0.106 C 
BRANCH   6   7
HETATM    7  S           1     -14.863   5.385 -22.561  0.00  0.00    -0.180 SA
HETATM    8  H           1     -14.685   6.573 -23.167  0.00  0.00     0.101 HD
ENDBRANCH   6   7
ENDBRANCH   5   6
BRANCH   5   9
HETATM    9  C           1     -12.449   3.082 -21.004  0.00  0.00     0.197 C 
HETATM   10  O           1     -11.328   2.668 -20.641  0.00  0.00    -0.646 OA
HETATM   11  O           1     -13.350   2.267 -21.302  0.00  0.00    -0.646 OA
ENDBRANCH   5   9
ENDBRANCH   3   5
BRANCH   4  12
HETATM   12  C           1     -10.379   7.177 -19.538  0.00  0.00     0.311 C 
HETATM   13  C           1     -10.705   8.626 -19.219  0.00  0.00     0.047 C 
HETATM   14  C           1     -10.448   9.386 -20.515  0.00  0.00     0.033 C 
HETATM   15  C           1      -9.981   8.333 -21.506  0.00  0.00     0.271 C 
HETATM   16  N           1      -9.448   7.269 -20.659  0.00  0.00     0.097 N 
HETATM   17  H           1      -8.516   7.527 -20.335  0.00  0.00     0.317 HD
ENDBRANCH   4  12
TORSDOF 5
ENDMDL
MODEL 6
REMARK VINA RESULT:      -4.5      6.926      8.721
REMARK  5 active torsions:
REMARK  status: ('A' for Active; 'I' for Inactive)
REMARK    1  A    between atoms: C_9  and  C_17 
REMARK    2  A    between atoms: C_10  and  C_14 
REMARK    3  A    between atoms: C_10  and  C_13 
REMARK    4  A    between atoms: C_10  and  N_16 
REMARK    5  A    between atoms: S_11  and  C_14 
REMARK       I    between atoms: N_16  and  C_17 
ROOT
HETATM    1  O           1     -19.713  -8.371  -1.529  0.00  0.00    -0.271 OA
HETATM    2  H           1     -22.556  -8.912  -2.738  0.00  0.00     0.163 HD
HETATM    3  N           1     -21.614  -8.547  -2.688  0.00  0.00    -0.344 N 
HETATM    4  C           1     -20.838  -8.806  -1.589  0.00  0.00     0.251 C 
ENDROOT
BRANCH   3   5
HETATM    5  C           1     -21.084  -7.753  -3.778  0.00  0.00     0.194 C 
BRANCH   5   6
HETATM    6  C           1     -21.371  -8.449  -5.102  0.00  0.00     0.106 C 
BRANCH   6   7
HETATM    7  S           1     -20.616 -10.100  -5.093  0.00  0.00    -0.180 SA
HETATM    8  H           1     -19.576  -9.783  -5.886  0.00  0.00     0.101 HD
ENDBRANCH   6   7
ENDBRANCH   5   6
BRANCH   5   9
HETATM    9  C           1     -21.741  -6.394  -3.774  0.00  0.00     0.197 C 
HETATM   10  O           1     -21.631  -5.644  -4.767  0.00  0.00    -0.646 OA
HETATM   11  O           1     -22.396  -6.019  -2.776  0.00  0.00    -0.646 OA
ENDBRANCH   5   9
ENDBRANCH   3   5
BRANCH   4  12
HETATM   12  C           1     -21.389  -9.633  -0.454  0.00  0.00     0.311 C 
HETATM   13  C           1     -22.908  -9.620  -0.463  0.00  0.00     0.047 C 
HETATM   14  C           1     -23.301  -8.502   0.496  0.00  0.00     0.033 C 
HETATM   15  C           1     -21.986  -7.940   1.010  0.00  0.00     0.271 C 
HETATM   16  N           1     -21.044  -9.042   0.835  0.00  0.00     0.097 N 
HETATM   17  H           1     -21.168  -9.718   1.588  0.00  0.00     0.317 HD
ENDBRANCH   4  12
TORSDOF 5
ENDMDL
MODEL 7
REMARK VINA RESULT:      -4.3      7.929      9.848
REMARK  5 active torsions:
REMARK  status: ('A' for Active; 'I' for Inactive)
REMARK    1  A    between atoms: C_9  and  C_17 
REMARK    2  A    between atoms: C_10  and  C_14 
REMARK    3  A    between atoms: C_10  and  C_13 
REMARK    4  A    between atoms: C_10  and  N_16 
REMARK    5  A    between atoms: S_11  and  C_14 
REMARK       I    between atoms: N_16  and  C_17 
ROOT
HETATM    1  O           1     -20.224  -9.906  -0.864  0.00  0.00    -0.271 OA
HETATM    2  H           1     -22.464  -9.379  -2.995  0.00  0.00     0.163 HD
HETATM    3  N           1     -21.681  -9.172  -2.390  0.00  0.00    -0.344 N 
HETATM    4  C           1     -21.159 -10.153  -1.587  0.00  0.00     0.251 C 
ENDROOT
BRANCH   3   5
HETATM    5  C           1     -21.110  -7.841  -2.371  0.00  0.00     0.194 C 
BRANCH   5   6
HETATM    6  C           1     -20.871  -7.369  -3.799  0.00  0.00     0.106 C 
BRANCH   6   7
HETATM    7  S           1     -19.782  -8.546  -4.650  0.00  0.00    -0.180 SA
HETATM    8  H           1     -18.845  -7.644  -4.997  0.00  0.00     0.101 HD
ENDBRANCH   6   7
ENDBRANCH   5   6
BRANCH   5   9
HETATM    9  C           1     -22.065  -6.895  -1.683  0.00  0.00     0.197 C 
HETATM   10  O           1     -22.466  -7.144  -0.526  0.00  0.00    -0.646 OA
HETATM   11  O           1     -22.454  -5.863  -2.272  0.00  0.00    -0.646 OA
ENDBRANCH   5   9
ENDBRANCH   3   5
BRANCH   4  12
HETATM   12  C           1     -21.753 -11.539  -1.607  0.00  0.00     0.311 C 
HETATM   13  C           1     -23.146 -11.523  -2.213  0.00  0.00     0.047 C 
HETATM   14  C           1     -24.095 -11.407  -1.025  0.00  0.00     0.033 C 
HETATM   15  C           1     -23.195 -11.373   0.199  0.00  0.00     0.271 C 
HETATM   16  N           1     -21.971 -12.030  -0.249  0.00  0.00     0.097 N 
HETATM   17  H           1     -22.108 -13.041  -0.248  0.00  0.00     0.317 HD
ENDBRANCH   4  12
TORSDOF 5
ENDMDL
MODEL 8
REMARK VINA RESULT:      -4.2     17.692     19.129
REMARK  5 active torsions:
REMARK  status: ('A' for Active; 'I' for Inactive)
REMARK    1  A    between atoms: C_9  and  C_17 
REMARK    2  A    between atoms: C_10  and  C_14 
REMARK    3  A    between atoms: C_10  and  C_13 
REMARK    4  A    between atoms: C_10  and  N_16 
REMARK    5  A    between atoms: S_11  and  C_14 
REMARK       I    between atoms: N_16  and  C_17 
ROOT
HETATM    1  O           1     -13.293   8.088 -19.165  0.00  0.00    -0.271 OA
HETATM    2  H           1     -10.638   7.546 -20.746  0.00  0.00     0.163 HD
HETATM    3  N           1     -11.477   7.332 -20.223  0.00  0.00    -0.344 N 
HETATM    4  C           1     -12.291   8.344 -19.789  0.00  0.00     0.251 C 
ENDROOT
BRANCH   3   5
HETATM    5  C           1     -11.818   5.953 -19.933  0.00  0.00     0.194 C 
BRANCH   5   6
HETATM    6  C           1     -12.238   5.252 -21.218  0.00  0.00     0.106 C 
BRANCH   6   7
HETATM    7  S           1     -13.837   4.431 -20.965  0.00  0.00    -0.180 SA
HETATM    8  H           1     -14.589   5.433 -21.458  0.00  0.00     0.101 HD
ENDBRANCH   6   7
ENDBRANCH   5   6
BRANCH   5   9
HETATM    9  C           1     -10.617   5.252 -19.348  0.00  0.00     0.197 C 
HETATM   10  O           1      -9.878   5.850 -18.537  0.00  0.00    -0.646 OA
HETATM   11  O           1     -10.363   4.071 -19.673  0.00  0.00    -0.646 OA
ENDBRANCH   5   9
ENDBRANCH   3   5
BRANCH   4  12
HETATM   12  C           1     -11.936   9.779 -20.091  0.00  0.00     0.311 C 
HETATM   13  C           1     -13.162  10.672 -19.994  0.00  0.00     0.047 C 
HETATM   14  C           1     -13.695  10.770 -21.419  0.00  0.00     0.033 C 
HETATM   15  C           1     -12.741   9.934 -22.258  0.00  0.00     0.271 C 
HETATM   16  N           1     -11.506   9.927 -21.479  0.00  0.00     0.097 N 
HETATM   17  H           1     -11.015  10.811 -21.612  0.00  0.00     0.317 HD
ENDBRANCH   4  12
TORSDOF 5
ENDMDL
MODEL 9
REMARK VINA RESULT:      -4.1     17.533     18.784
REMARK  5 active torsions:
REMARK  status: ('A' for Active; 'I' for Inactive)
REMARK    1  A    between atoms: C_9  and  C_17 
REMARK    2  A    between atoms: C_10  and  C_14 
REMARK    3  A    between atoms: C_10  and  C_13 
REMARK    4  A    between atoms: C_10  and  N_16 
REMARK    5  A    between atoms: S_11  and  C_14 
REMARK       I    between atoms: N_16  and  C_17 
ROOT
HETATM    1  O           1     -13.041   7.111 -19.486  0.00  0.00    -0.271 OA
HETATM    2  H           1     -11.406   6.523 -22.098  0.00  0.00     0.163 HD
HETATM    3  N           1     -11.960   6.324 -21.275  0.00  0.00    -0.344 N 
HETATM    4  C           1     -12.379   7.348 -20.468  0.00  0.00     0.251 C 
ENDROOT
BRANCH   3   5
HETATM    5  C           1     -12.310   4.956 -20.950  0.00  0.00     0.194 C 
BRANCH   5   6
HETATM    6  C           1     -13.340   4.443 -21.948  0.00  0.00     0.106 C 
BRANCH   6   7
HETATM    7  S           1     -13.712   2.702 -21.594  0.00  0.00    -0.180 SA
HETATM    8  H           1     -13.387   2.238 -22.815  0.00  0.00     0.101 HD
ENDBRANCH   6   7
ENDBRANCH   5   6
BRANCH   5   9
HETATM    9  C           1     -11.074   4.092 -21.016  0.00  0.00     0.197 C 
HETATM   10  O           1     -10.622   3.567 -19.976  0.00  0.00    -0.646 OA
HETATM   11  O           1     -10.503   3.901 -22.112  0.00  0.00    -0.646 OA
ENDBRANCH   5   9
ENDBRANCH   3   5
BRANCH   4  12
HETATM   12  C           1     -12.015   8.773 -20.807  0.00  0.00     0.311 C 
HETATM   13  C           1     -10.787   8.820 -21.701  0.00  0.00     0.047 C 
HETATM   14  C           1      -9.611   9.011 -20.750  0.00  0.00     0.033 C 
HETATM   15  C           1     -10.228   9.072 -19.363  0.00  0.00     0.271 C 
HETATM   16  N           1     -11.602   9.501 -19.610  0.00  0.00     0.097 N 
HETATM   17  H           1     -11.619  10.507 -19.776  0.00  0.00     0.317 HD
ENDBRANCH   4  12
TORSDOF 5
ENDMDL
