MODEL 1
REMARK VINA RESULT:      -8.0      0.000      0.000
REMARK  9 active torsions:
REMARK  status: ('A' for Active; 'I' for Inactive)
REMARK    1  A    between atoms: C_2  and  C_16 
REMARK    2  A    between atoms: C_2  and  C_22 
REMARK    3  A    between atoms: N_8  and  C_19 
REMARK    4  A    between atoms: C_12  and  C_21 
REMARK    5  A    between atoms: N_13  and  C_18 
REMARK       I    between atoms: N_13  and  C_20 
REMARK       I    between atoms: C_16  and  N_23 
REMARK    6  A    between atoms: C_18  and  C_22 
REMARK    7  A    between atoms: C_18  and  C_27 
REMARK    8  A    between atoms: C_19  and  C_20 
REMARK    9  A    between atoms: C_19  and  C_21 
ROOT
HETATM    1  H           1     -22.179  -5.780  -9.323  0.00  0.00     0.163 HD
HETATM    2  O           1     -21.684  -3.449  -7.283  0.00  0.00    -0.271 OA
HETATM    3  N           1     -22.184  -4.836  -8.961  0.00  0.00    -0.345 N 
HETATM    4  C           1     -21.677  -4.577  -7.715  0.00  0.00     0.249 C 
ENDROOT
BRANCH   4   5
HETATM    5  C           1     -21.109  -5.700  -6.884  0.00  0.00     0.278 C 
BRANCH   5   6
HETATM    6  N           1     -19.812  -6.157  -7.483  0.00  0.00    -0.066 N 
HETATM    7  H           1     -19.525  -7.060  -7.044  0.00  0.00     0.275 HD
HETATM    8  H           1     -19.932  -6.291  -8.512  0.00  0.00     0.275 HD
HETATM    9  H           1     -19.075  -5.437  -7.308  0.00  0.00     0.275 HD
ENDBRANCH   5   6
BRANCH   5  10
HETATM   10  C           1     -20.866  -5.208  -5.464  0.00  0.00     0.081 C 
BRANCH  10  11
HETATM   11  C           1     -21.137  -6.318  -4.497  0.00  0.00    -0.056 A 
HETATM   12  C           1     -21.295  -7.624  -4.961  0.00  0.00     0.007 A 
HETATM   13  C           1     -21.547  -8.659  -4.060  0.00  0.00     0.001 A 
HETATM   14  C           1     -21.644  -8.388  -2.695  0.00  0.00     0.000 A 
HETATM   15  C           1     -21.486  -7.082  -2.232  0.00  0.00     0.001 A 
HETATM   16  C           1     -21.234  -6.048  -3.132  0.00  0.00     0.007 A 
ENDBRANCH  10  11
ENDBRANCH   5  10
ENDBRANCH   4   5
BRANCH   3  17
HETATM   17  C           1     -22.730  -3.755  -9.760  0.00  0.00     0.186 C 
BRANCH  17  18
HETATM   18  C           1     -22.235  -3.882 -11.194  0.00  0.00     0.045 C 
BRANCH  18  19
HETATM   19  C           1     -22.476  -2.573 -11.933  0.00  0.00     0.105 C 
BRANCH  19  20
HETATM   20  C           1     -23.245  -2.843 -13.203  0.00  0.00     0.215 C 
HETATM   21  O           1     -24.452  -2.864 -13.185  0.00  0.00    -0.274 OA
HETATM   22  N           1     -22.574  -3.064 -14.375  0.00  0.00    -0.370 N 
HETATM   23  H           1     -21.562  -3.046 -14.390  0.00  0.00     0.159 HD
HETATM   24  H           1     -23.089  -3.246 -15.227  0.00  0.00     0.159 HD
ENDBRANCH  19  20
ENDBRANCH  18  19
ENDBRANCH  17  18
BRANCH  17  25
HETATM   25  C           1     -24.237  -3.829  -9.741  0.00  0.00     0.196 C 
HETATM   26  O           1     -24.812  -4.917  -9.959  0.00  0.00    -0.646 OA
HETATM   27  O           1     -24.911  -2.803  -9.506  0.00  0.00    -0.646 OA
ENDBRANCH  17  25
ENDBRANCH   3  17
TORSDOF 9
ENDMDL
MODEL 2
REMARK VINA RESULT:      -7.5     12.576     14.606
REMARK  9 active torsions:
REMARK  status: ('A' for Active; 'I' for Inactive)
REMARK    1  A    between atoms: C_2  and  C_16 
REMARK    2  A    between atoms: C_2  and  C_22 
REMARK    3  A    between atoms: N_8  and  C_19 
REMARK    4  A    between atoms: C_12  and  C_21 
REMARK    5  A    between atoms: N_13  and  C_18 
REMARK       I    between atoms: N_13  and  C_20 
REMARK       I    between atoms: C_16  and  N_23 
REMARK    6  A    between atoms: C_18  and  C_22 
REMARK    7  A    between atoms: C_18  and  C_27 
REMARK    8  A    between atoms: C_19  and  C_20 
REMARK    9  A    between atoms: C_19  and  C_21 
ROOT
HETATM    1  H           1     -35.583  -2.171 -14.354  0.00  0.00     0.163 HD
HETATM    2  O           1     -34.953   0.856 -13.821  0.00  0.00    -0.271 OA
HETATM    3  N           1     -35.436  -1.193 -14.568  0.00  0.00    -0.345 N 
HETATM    4  C           1     -35.129  -0.312 -13.565  0.00  0.00     0.249 C 
ENDROOT
BRANCH   4   5
HETATM    5  C           1     -35.008  -0.799 -12.143  0.00  0.00     0.278 C 
BRANCH   5   6
HETATM    6  N           1     -35.539   0.249 -11.209  0.00  0.00    -0.066 N 
HETATM    7  H           1     -35.604  -0.146 -10.245  0.00  0.00     0.275 HD
HETATM    8  H           1     -34.896   1.072 -11.209  0.00  0.00     0.275 HD
HETATM    9  H           1     -36.489   0.548 -11.526  0.00  0.00     0.275 HD
ENDBRANCH   5   6
BRANCH   5  10
HETATM   10  C           1     -35.811  -2.082 -11.975  0.00  0.00     0.081 C 
BRANCH  10  11
HETATM   11  C           1     -34.882  -3.220 -11.692  0.00  0.00    -0.056 A 
HETATM   12  C           1     -35.311  -4.291 -10.906  0.00  0.00     0.007 A 
HETATM   13  C           1     -34.445  -5.352 -10.642  0.00  0.00     0.001 A 
HETATM   14  C           1     -33.150  -5.343 -11.161  0.00  0.00     0.000 A 
HETATM   15  C           1     -32.722  -4.273 -11.947  0.00  0.00     0.001 A 
HETATM   16  C           1     -33.588  -3.211 -12.211  0.00  0.00     0.007 A 
ENDBRANCH  10  11
ENDBRANCH   5  10
ENDBRANCH   4   5
BRANCH   3  17
HETATM   17  C           1     -35.551  -0.724 -15.935  0.00  0.00     0.186 C 
BRANCH  17  18
HETATM   18  C           1     -35.092  -1.817 -16.889  0.00  0.00     0.045 C 
BRANCH  18  19
HETATM   19  C           1     -34.573  -3.005 -16.089  0.00  0.00     0.105 C 
BRANCH  19  20
HETATM   20  C           1     -33.427  -3.650 -16.830  0.00  0.00     0.215 C 
HETATM   21  O           1     -32.772  -3.004 -17.611  0.00  0.00    -0.274 OA
HETATM   22  N           1     -33.131  -4.969 -16.615  0.00  0.00    -0.370 N 
HETATM   23  H           1     -33.681  -5.512 -15.960  0.00  0.00     0.159 HD
HETATM   24  H           1     -32.363  -5.403 -17.111  0.00  0.00     0.159 HD
ENDBRANCH  19  20
ENDBRANCH  18  19
ENDBRANCH  17  18
BRANCH  17  25
HETATM   25  C           1     -36.990  -0.375 -16.226  0.00  0.00     0.196 C 
HETATM   26  O           1     -37.378   0.810 -16.129  0.00  0.00    -0.646 OA
HETATM   27  O           1     -37.795  -1.269 -16.565  0.00  0.00    -0.646 OA
ENDBRANCH  17  25
ENDBRANCH   3  17
TORSDOF 9
ENDMDL
MODEL 3
REMARK VINA RESULT:      -7.4      3.752      8.174
REMARK  9 active torsions:
REMARK  status: ('A' for Active; 'I' for Inactive)
REMARK    1  A    between atoms: C_2  and  C_16 
REMARK    2  A    between atoms: C_2  and  C_22 
REMARK    3  A    between atoms: N_8  and  C_19 
REMARK    4  A    between atoms: C_12  and  C_21 
REMARK    5  A    between atoms: N_13  and  C_18 
REMARK       I    between atoms: N_13  and  C_20 
REMARK       I    between atoms: C_16  and  N_23 
REMARK    6  A    between atoms: C_18  and  C_22 
REMARK    7  A    between atoms: C_18  and  C_27 
REMARK    8  A    between atoms: C_19  and  C_20 
REMARK    9  A    between atoms: C_19  and  C_21 
ROOT
HETATM    1  H           1     -21.538  -7.877  -6.265  0.00  0.00     0.163 HD
HETATM    2  O           1     -20.836  -5.200  -4.788  0.00  0.00    -0.271 OA
HETATM    3  N           1     -21.134  -7.275  -5.560  0.00  0.00    -0.345 N 
HETATM    4  C           1     -21.318  -5.919  -5.630  0.00  0.00     0.249 C 
ENDROOT
BRANCH   4   5
HETATM    5  C           1     -22.126  -5.325  -6.757  0.00  0.00     0.278 C 
BRANCH   5   6
HETATM    6  N           1     -23.507  -5.005  -6.266  0.00  0.00    -0.066 N 
HETATM    7  H           1     -24.150  -4.899  -7.082  0.00  0.00     0.275 HD
HETATM    8  H           1     -23.846  -5.778  -5.651  0.00  0.00     0.275 HD
HETATM    9  H           1     -23.485  -4.112  -5.723  0.00  0.00     0.275 HD
ENDBRANCH   5   6
BRANCH   5  10
HETATM   10  C           1     -21.454  -4.051  -7.248  0.00  0.00     0.081 C 
BRANCH  10  11
HETATM   11  C           1     -21.432  -4.041  -8.745  0.00  0.00    -0.056 A 
HETATM   12  C           1     -20.274  -4.414  -9.428  0.00  0.00     0.007 A 
HETATM   13  C           1     -20.254  -4.404 -10.823  0.00  0.00     0.001 A 
HETATM   14  C           1     -21.391  -4.021 -11.535  0.00  0.00     0.000 A 
HETATM   15  C           1     -22.548  -3.649 -10.851  0.00  0.00     0.001 A 
HETATM   16  C           1     -22.569  -3.658  -9.457  0.00  0.00     0.007 A 
ENDBRANCH  10  11
ENDBRANCH   5  10
ENDBRANCH   4   5
BRANCH   3  17
HETATM   17  C           1     -20.358  -7.845  -4.476  0.00  0.00     0.186 C 
BRANCH  17  18
HETATM   18  C           1     -21.297  -8.366  -3.397  0.00  0.00     0.045 C 
BRANCH  18  19
HETATM   19  C           1     -20.902  -7.773  -2.050  0.00  0.00     0.105 C 
BRANCH  19  20
HETATM   20  C           1     -22.023  -6.903  -1.535  0.00  0.00     0.215 C 
HETATM   21  O           1     -22.645  -7.237  -0.555  0.00  0.00    -0.274 OA
HETATM   22  N           1     -22.332  -5.735  -2.177  0.00  0.00    -0.370 N 
HETATM   23  H           1     -21.810  -5.455  -2.999  0.00  0.00     0.159 HD
HETATM   24  H           1     -23.083  -5.151  -1.832  0.00  0.00     0.159 HD
ENDBRANCH  19  20
ENDBRANCH  18  19
ENDBRANCH  17  18
BRANCH  17  25
HETATM   25  C           1     -19.519  -8.983  -5.004  0.00  0.00     0.196 C 
HETATM   26  O           1     -19.486 -10.072  -4.391  0.00  0.00    -0.646 OA
HETATM   27  O           1     -18.857  -8.838  -6.054  0.00  0.00    -0.646 OA
ENDBRANCH  17  25
ENDBRANCH   3  17
TORSDOF 9
ENDMDL
MODEL 4
REMARK VINA RESULT:      -7.3      3.705      8.626
REMARK  9 active torsions:
REMARK  status: ('A' for Active; 'I' for Inactive)
REMARK    1  A    between atoms: C_2  and  C_16 
REMARK    2  A    between atoms: C_2  and  C_22 
REMARK    3  A    between atoms: N_8  and  C_19 
REMARK    4  A    between atoms: C_12  and  C_21 
REMARK    5  A    between atoms: N_13  and  C_18 
REMARK       I    between atoms: N_13  and  C_20 
REMARK       I    between atoms: C_16  and  N_23 
REMARK    6  A    between atoms: C_18  and  C_22 
REMARK    7  A    between atoms: C_18  and  C_27 
REMARK    8  A    between atoms: C_19  and  C_20 
REMARK    9  A    between atoms: C_19  and  C_21 
ROOT
HETATM    1  H           1     -23.125  -6.466  -4.660  0.00  0.00     0.163 HD
HETATM    2  O           1     -20.318  -5.344  -5.500  0.00  0.00    -0.271 OA
HETATM    3  N           1     -22.136  -6.267  -4.587  0.00  0.00    -0.345 N 
HETATM    4  C           1     -21.499  -5.582  -5.587  0.00  0.00     0.249 C 
ENDROOT
BRANCH   4   5
HETATM    5  C           1     -22.274  -5.121  -6.798  0.00  0.00     0.278 C 
BRANCH   5   6
HETATM    6  N           1     -23.697  -4.851  -6.406  0.00  0.00    -0.066 N 
HETATM    7  H           1     -24.057  -4.034  -6.946  0.00  0.00     0.275 HD
HETATM    8  H           1     -24.280  -5.693  -6.614  0.00  0.00     0.275 HD
HETATM    9  H           1     -23.742  -4.640  -5.384  0.00  0.00     0.275 HD
ENDBRANCH   5   6
BRANCH   5  10
HETATM   10  C           1     -21.648  -3.847  -7.347  0.00  0.00     0.081 C 
BRANCH  10  11
HETATM   11  C           1     -21.573  -3.929  -8.839  0.00  0.00    -0.056 A 
HETATM   12  C           1     -20.366  -4.255  -9.459  0.00  0.00     0.007 A 
HETATM   13  C           1     -20.295  -4.332 -10.850  0.00  0.00     0.001 A 
HETATM   14  C           1     -21.430  -4.082 -11.622  0.00  0.00     0.000 A 
HETATM   15  C           1     -22.636  -3.756 -11.002  0.00  0.00     0.001 A 
HETATM   16  C           1     -22.707  -3.679  -9.611  0.00  0.00     0.007 A 
ENDBRANCH  10  11
ENDBRANCH   5  10
ENDBRANCH   4   5
BRANCH   3  17
HETATM   17  C           1     -21.391  -6.708  -3.424  0.00  0.00     0.186 C 
BRANCH  17  18
HETATM   18  C           1     -22.263  -6.584  -2.182  0.00  0.00     0.045 C 
BRANCH  18  19
HETATM   19  C           1     -21.588  -7.288  -1.013  0.00  0.00     0.105 C 
BRANCH  19  20
HETATM   20  C           1     -22.560  -8.247  -0.372  0.00  0.00     0.215 C 
HETATM   21  O           1     -23.317  -7.858   0.484  0.00  0.00    -0.274 OA
HETATM   22  N           1     -22.583  -9.559  -0.762  0.00  0.00    -0.370 N 
HETATM   23  H           1     -21.947  -9.886  -1.480  0.00  0.00     0.159 HD
HETATM   24  H           1     -23.234 -10.204  -0.332  0.00  0.00     0.159 HD
ENDBRANCH  19  20
ENDBRANCH  18  19
ENDBRANCH  17  18
BRANCH  17  25
HETATM   25  C           1     -20.981  -8.149  -3.607  0.00  0.00     0.196 C 
HETATM   26  O           1     -21.848  -9.021  -3.834  0.00  0.00    -0.646 OA
HETATM   27  O           1     -19.776  -8.472  -3.534  0.00  0.00    -0.646 OA
ENDBRANCH  17  25
ENDBRANCH   3  17
TORSDOF 9
ENDMDL
MODEL 5
REMARK VINA RESULT:      -7.3      1.397      1.823
REMARK  9 active torsions:
REMARK  status: ('A' for Active; 'I' for Inactive)
REMARK    1  A    between atoms: C_2  and  C_16 
REMARK    2  A    between atoms: C_2  and  C_22 
REMARK    3  A    between atoms: N_8  and  C_19 
REMARK    4  A    between atoms: C_12  and  C_21 
REMARK    5  A    between atoms: N_13  and  C_18 
REMARK       I    between atoms: N_13  and  C_20 
REMARK       I    between atoms: C_16  and  N_23 
REMARK    6  A    between atoms: C_18  and  C_22 
REMARK    7  A    between atoms: C_18  and  C_27 
REMARK    8  A    between atoms: C_19  and  C_20 
REMARK    9  A    between atoms: C_19  and  C_21 
ROOT
HETATM    1  H           1     -22.631  -5.543  -9.415  0.00  0.00     0.163 HD
HETATM    2  O           1     -21.882  -3.294  -7.360  0.00  0.00    -0.271 OA
HETATM    3  N           1     -22.610  -4.619  -9.004  0.00  0.00    -0.345 N 
HETATM    4  C           1     -21.907  -4.398  -7.850  0.00  0.00     0.249 C 
ENDROOT
BRANCH   4   5
HETATM    5  C           1     -21.162  -5.533  -7.192  0.00  0.00     0.278 C 
BRANCH   5   6
HETATM    6  N           1     -19.909  -5.822  -7.965  0.00  0.00    -0.066 N 
HETATM    7  H           1     -19.381  -4.934  -8.117  0.00  0.00     0.275 HD
HETATM    8  H           1     -19.316  -6.495  -7.428  0.00  0.00     0.275 HD
HETATM    9  H           1     -20.160  -6.239  -8.890  0.00  0.00     0.275 HD
ENDBRANCH   5   6
BRANCH   5  10
HETATM   10  C           1     -20.799  -5.143  -5.766  0.00  0.00     0.081 C 
BRANCH  10  11
HETATM   11  C           1     -21.077  -6.292  -4.847  0.00  0.00    -0.056 A 
HETATM   12  C           1     -21.173  -7.586  -5.359  0.00  0.00     0.007 A 
HETATM   13  C           1     -21.433  -8.656  -4.502  0.00  0.00     0.001 A 
HETATM   14  C           1     -21.598  -8.433  -3.136  0.00  0.00     0.000 A 
HETATM   15  C           1     -21.502  -7.139  -2.625  0.00  0.00     0.001 A 
HETATM   16  C           1     -21.243  -6.068  -3.480  0.00  0.00     0.007 A 
ENDBRANCH  10  11
ENDBRANCH   5  10
ENDBRANCH   4   5
BRANCH   3  17
HETATM   17  C           1     -23.326  -3.527  -9.637  0.00  0.00     0.186 C 
BRANCH  17  18
HETATM   18  C           1     -22.802  -3.328 -11.053  0.00  0.00     0.045 C 
BRANCH  18  19
HETATM   19  C           1     -21.884  -4.486 -11.423  0.00  0.00     0.105 C 
BRANCH  19  20
HETATM   20  C           1     -20.448  -4.086 -11.190  0.00  0.00     0.215 C 
HETATM   21  O           1     -19.662  -4.888 -10.746  0.00  0.00    -0.274 OA
HETATM   22  N           1     -20.037  -2.814 -11.482  0.00  0.00    -0.370 N 
HETATM   23  H           1     -20.696  -2.141 -11.853  0.00  0.00     0.159 HD
HETATM   24  H           1     -19.074  -2.544 -11.326  0.00  0.00     0.159 HD
ENDBRANCH  19  20
ENDBRANCH  18  19
ENDBRANCH  17  18
BRANCH  17  25
HETATM   25  C           1     -24.798  -3.855  -9.687  0.00  0.00     0.196 C 
HETATM   26  O           1     -25.174  -5.047  -9.661  0.00  0.00    -0.646 OA
HETATM   27  O           1     -25.642  -2.936  -9.754  0.00  0.00    -0.646 OA
ENDBRANCH  17  25
ENDBRANCH   3  17
TORSDOF 9
ENDMDL
MODEL 6
REMARK VINA RESULT:      -7.2     12.813     14.891
REMARK  9 active torsions:
REMARK  status: ('A' for Active; 'I' for Inactive)
REMARK    1  A    between atoms: C_2  and  C_16 
REMARK    2  A    between atoms: C_2  and  C_22 
REMARK    3  A    between atoms: N_8  and  C_19 
REMARK    4  A    between atoms: C_12  and  C_21 
REMARK    5  A    between atoms: N_13  and  C_18 
REMARK       I    between atoms: N_13  and  C_20 
REMARK       I    between atoms: C_16  and  N_23 
REMARK    6  A    between atoms: C_18  and  C_22 
REMARK    7  A    between atoms: C_18  and  C_27 
REMARK    8  A    between atoms: C_19  and  C_20 
REMARK    9  A    between atoms: C_19  and  C_21 
ROOT
HETATM    1  H           1     -34.156  -0.791 -13.326  0.00  0.00     0.163 HD
HETATM    2  O           1     -37.280  -0.816 -13.041  0.00  0.00    -0.271 OA
HETATM    3  N           1     -35.123  -0.810 -13.622  0.00  0.00    -0.345 N 
HETATM    4  C           1     -36.125  -0.793 -12.688  0.00  0.00     0.249 C 
ENDROOT
BRANCH   4   5
HETATM    5  C           1     -35.786  -0.742 -11.219  0.00  0.00     0.278 C 
BRANCH   5   6
HETATM    6  N           1     -36.592   0.338 -10.558  0.00  0.00    -0.066 N 
HETATM    7  H           1     -36.080   0.688  -9.718  0.00  0.00     0.275 HD
HETATM    8  H           1     -36.738   1.124 -11.232  0.00  0.00     0.275 HD
HETATM    9  H           1     -37.518  -0.048 -10.266  0.00  0.00     0.275 HD
ENDBRANCH   5   6
BRANCH   5  10
HETATM   10  C           1     -36.111  -2.082 -10.576  0.00  0.00     0.081 C 
BRANCH  10  11
HETATM   11  C           1     -35.039  -3.071 -10.911  0.00  0.00    -0.056 A 
HETATM   12  C           1     -35.348  -4.429 -11.006  0.00  0.00     0.007 A 
HETATM   13  C           1     -34.349  -5.351 -11.319  0.00  0.00     0.001 A 
HETATM   14  C           1     -33.041  -4.916 -11.535  0.00  0.00     0.000 A 
HETATM   15  C           1     -32.733  -3.559 -11.441  0.00  0.00     0.001 A 
HETATM   16  C           1     -33.732  -2.637 -11.128  0.00  0.00     0.007 A 
ENDBRANCH  10  11
ENDBRANCH   5  10
ENDBRANCH   4   5
BRANCH   3  17
HETATM   17  C           1     -35.449  -0.859 -15.034  0.00  0.00     0.186 C 
BRANCH  17  18
HETATM   18  C           1     -34.834   0.342 -15.740  0.00  0.00     0.045 C 
BRANCH  18  19
HETATM   19  C           1     -35.419   1.625 -15.165  0.00  0.00     0.105 C 
BRANCH  19  20
HETATM   20  C           1     -36.480   2.158 -16.096  0.00  0.00     0.215 C 
HETATM   21  O           1     -36.208   3.034 -16.883  0.00  0.00    -0.274 OA
HETATM   22  N           1     -37.749   1.649 -16.050  0.00  0.00    -0.370 N 
HETATM   23  H           1     -37.977   0.915 -15.391  0.00  0.00     0.159 HD
HETATM   24  H           1     -38.461   2.006 -16.675  0.00  0.00     0.159 HD
ENDBRANCH  19  20
ENDBRANCH  18  19
ENDBRANCH  17  18
BRANCH  17  25
HETATM   25  C           1     -34.899  -2.130 -15.633  0.00  0.00     0.196 C 
HETATM   26  O           1     -34.645  -3.108 -14.897  0.00  0.00    -0.646 OA
HETATM   27  O           1     -34.698  -2.206 -16.864  0.00  0.00    -0.646 OA
ENDBRANCH  17  25
ENDBRANCH   3  17
TORSDOF 9
ENDMDL
MODEL 7
REMARK VINA RESULT:      -7.2      1.896      2.708
REMARK  9 active torsions:
REMARK  status: ('A' for Active; 'I' for Inactive)
REMARK    1  A    between atoms: C_2  and  C_16 
REMARK    2  A    between atoms: C_2  and  C_22 
REMARK    3  A    between atoms: N_8  and  C_19 
REMARK    4  A    between atoms: C_12  and  C_21 
REMARK    5  A    between atoms: N_13  and  C_18 
REMARK       I    between atoms: N_13  and  C_20 
REMARK       I    between atoms: C_16  and  N_23 
REMARK    6  A    between atoms: C_18  and  C_22 
REMARK    7  A    between atoms: C_18  and  C_27 
REMARK    8  A    between atoms: C_19  and  C_20 
REMARK    9  A    between atoms: C_19  and  C_21 
ROOT
HETATM    1  H           1     -22.478  -4.042  -7.002  0.00  0.00     0.163 HD
HETATM    2  O           1     -20.841  -6.707  -7.242  0.00  0.00    -0.271 OA
HETATM    3  N           1     -21.956  -4.783  -7.450  0.00  0.00    -0.345 N 
HETATM    4  C           1     -21.464  -5.822  -6.706  0.00  0.00     0.249 C 
ENDROOT
BRANCH   4   5
HETATM    5  C           1     -21.704  -5.863  -5.217  0.00  0.00     0.278 C 
BRANCH   5   6
HETATM    6  N           1     -23.142  -6.199  -4.952  0.00  0.00    -0.066 N 
HETATM    7  H           1     -23.196  -7.086  -4.403  0.00  0.00     0.275 HD
HETATM    8  H           1     -23.586  -5.424  -4.410  0.00  0.00     0.275 HD
HETATM    9  H           1     -23.644  -6.321  -5.860  0.00  0.00     0.275 HD
ENDBRANCH   5   6
BRANCH   5  10
HETATM   10  C           1     -20.811  -6.923  -4.587  0.00  0.00     0.081 C 
BRANCH  10  11
HETATM   11  C           1     -21.316  -7.254  -3.218  0.00  0.00    -0.056 A 
HETATM   12  C           1     -21.352  -8.581  -2.790  0.00  0.00     0.007 A 
HETATM   13  C           1     -21.824  -8.889  -1.513  0.00  0.00     0.001 A 
HETATM   14  C           1     -22.260  -7.872  -0.665  0.00  0.00     0.000 A 
HETATM   15  C           1     -22.223  -6.545  -1.094  0.00  0.00     0.001 A 
HETATM   16  C           1     -21.752  -6.236  -2.369  0.00  0.00     0.007 A 
ENDBRANCH  10  11
ENDBRANCH   5  10
ENDBRANCH   4   5
BRANCH   3  17
HETATM   17  C           1     -21.726  -4.745  -8.882  0.00  0.00     0.186 C 
BRANCH  17  18
HETATM   18  C           1     -22.669  -3.736  -9.523  0.00  0.00     0.045 C 
BRANCH  18  19
HETATM   19  C           1     -23.267  -4.334 -10.790  0.00  0.00     0.105 C 
BRANCH  19  20
HETATM   20  C           1     -22.818  -3.531 -11.986  0.00  0.00     0.215 C 
HETATM   21  O           1     -23.548  -2.693 -12.460  0.00  0.00    -0.274 OA
HETATM   22  N           1     -21.584  -3.753 -12.534  0.00  0.00    -0.370 N 
HETATM   23  H           1     -20.972  -4.455 -12.136  0.00  0.00     0.159 HD
HETATM   24  H           1     -21.281  -3.215 -13.336  0.00  0.00     0.159 HD
ENDBRANCH  19  20
ENDBRANCH  18  19
ENDBRANCH  17  18
BRANCH  17  25
HETATM   25  C           1     -20.298  -4.338  -9.150  0.00  0.00     0.196 C 
HETATM   26  O           1     -19.742  -4.675 -10.217  0.00  0.00    -0.646 OA
HETATM   27  O           1     -19.670  -3.663  -8.306  0.00  0.00    -0.646 OA
ENDBRANCH  17  25
ENDBRANCH   3  17
TORSDOF 9
ENDMDL
MODEL 8
REMARK VINA RESULT:      -6.9     12.271     14.141
REMARK  9 active torsions:
REMARK  status: ('A' for Active; 'I' for Inactive)
REMARK    1  A    between atoms: C_2  and  C_16 
REMARK    2  A    between atoms: C_2  and  C_22 
REMARK    3  A    between atoms: N_8  and  C_19 
REMARK    4  A    between atoms: C_12  and  C_21 
REMARK    5  A    between atoms: N_13  and  C_18 
REMARK       I    between atoms: N_13  and  C_20 
REMARK       I    between atoms: C_16  and  N_23 
REMARK    6  A    between atoms: C_18  and  C_22 
REMARK    7  A    between atoms: C_18  and  C_27 
REMARK    8  A    between atoms: C_19  and  C_20 
REMARK    9  A    between atoms: C_19  and  C_21 
ROOT
HETATM    1  H           1     -32.516  -3.630 -14.081  0.00  0.00     0.163 HD
HETATM    2  O           1     -35.030  -5.083 -15.269  0.00  0.00    -0.271 OA
HETATM    3  N           1     -33.435  -4.052 -14.093  0.00  0.00    -0.345 N 
HETATM    4  C           1     -33.933  -4.578 -15.256  0.00  0.00     0.249 C 
ENDROOT
BRANCH   4   5
HETATM    5  C           1     -33.109  -4.530 -16.519  0.00  0.00     0.278 C 
BRANCH   5   6
HETATM    6  N           1     -33.471  -3.304 -17.304  0.00  0.00    -0.066 N 
HETATM    7  H           1     -34.508  -3.182 -17.300  0.00  0.00     0.275 HD
HETATM    8  H           1     -33.019  -2.467 -16.871  0.00  0.00     0.275 HD
HETATM    9  H           1     -33.137  -3.410 -18.289  0.00  0.00     0.275 HD
ENDBRANCH   5   6
BRANCH   5  10
HETATM   10  C           1     -31.630  -4.484 -16.160  0.00  0.00     0.081 C 
BRANCH  10  11
HETATM   11  C           1     -30.937  -5.677 -16.742  0.00  0.00    -0.056 A 
HETATM   12  C           1     -31.569  -6.439 -17.725  0.00  0.00     0.007 A 
HETATM   13  C           1     -30.923  -7.550 -18.267  0.00  0.00     0.001 A 
HETATM   14  C           1     -29.647  -7.900 -17.827  0.00  0.00     0.000 A 
HETATM   15  C           1     -29.016  -7.137 -16.844  0.00  0.00     0.001 A 
HETATM   16  C           1     -29.661  -6.026 -16.302  0.00  0.00     0.007 A 
ENDBRANCH  10  11
ENDBRANCH   5  10
ENDBRANCH   4   5
BRANCH   3  17
HETATM   17  C           1     -34.227  -4.100 -12.879  0.00  0.00     0.186 C 
BRANCH  17  18
HETATM   18  C           1     -33.433  -4.792 -11.780  0.00  0.00     0.045 C 
BRANCH  18  19
HETATM   19  C           1     -34.342  -5.057 -10.587  0.00  0.00     0.105 C 
BRANCH  19  20
HETATM   20  C           1     -34.707  -6.521 -10.546  0.00  0.00     0.215 C 
HETATM   21  O           1     -34.688  -7.120  -9.498  0.00  0.00    -0.274 OA
HETATM   22  N           1     -35.060  -7.169 -11.699  0.00  0.00    -0.370 N 
HETATM   23  H           1     -35.076  -6.667 -12.578  0.00  0.00     0.159 HD
HETATM   24  H           1     -35.305  -8.151 -11.673  0.00  0.00     0.159 HD
ENDBRANCH  19  20
ENDBRANCH  18  19
ENDBRANCH  17  18
BRANCH  17  25
HETATM   25  C           1     -34.566  -2.695 -12.446  0.00  0.00     0.196 C 
HETATM   26  O           1     -33.794  -2.073 -11.684  0.00  0.00    -0.646 OA
HETATM   27  O           1     -35.617  -2.151 -12.849  0.00  0.00    -0.646 OA
ENDBRANCH  17  25
ENDBRANCH   3  17
TORSDOF 9
ENDMDL
MODEL 9
REMARK VINA RESULT:      -6.8      2.431      4.427
REMARK  9 active torsions:
REMARK  status: ('A' for Active; 'I' for Inactive)
REMARK    1  A    between atoms: C_2  and  C_16 
REMARK    2  A    between atoms: C_2  and  C_22 
REMARK    3  A    between atoms: N_8  and  C_19 
REMARK    4  A    between atoms: C_12  and  C_21 
REMARK    5  A    between atoms: N_13  and  C_18 
REMARK       I    between atoms: N_13  and  C_20 
REMARK       I    between atoms: C_16  and  N_23 
REMARK    6  A    between atoms: C_18  and  C_22 
REMARK    7  A    between atoms: C_18  and  C_27 
REMARK    8  A    between atoms: C_19  and  C_20 
REMARK    9  A    between atoms: C_19  and  C_21 
ROOT
HETATM    1  H           1     -22.514  -6.455  -5.183  0.00  0.00     0.163 HD
HETATM    2  O           1     -19.899  -7.960  -6.041  0.00  0.00    -0.271 OA
HETATM    3  N           1     -21.659  -6.630  -5.695  0.00  0.00    -0.345 N 
HETATM    4  C           1     -20.919  -7.751  -5.430  0.00  0.00     0.249 C 
ENDROOT
BRANCH   4   5
HETATM    5  C           1     -21.379  -8.727  -4.375  0.00  0.00     0.278 C 
BRANCH   5   6
HETATM    6  N           1     -21.262 -10.126  -4.905  0.00  0.00    -0.066 N 
HETATM    7  H           1     -21.648 -10.797  -4.203  0.00  0.00     0.275 HD
HETATM    8  H           1     -21.799 -10.206  -5.797  0.00  0.00     0.275 HD
HETATM    9  H           1     -20.256 -10.348  -5.081  0.00  0.00     0.275 HD
ENDBRANCH   5   6
BRANCH   5  10
HETATM   10  C           1     -20.511  -8.581  -3.133  0.00  0.00     0.081 C 
BRANCH  10  11
HETATM   11  C           1     -21.384  -8.490  -1.920  0.00  0.00    -0.056 A 
HETATM   12  C           1     -21.841  -9.654  -1.302  0.00  0.00     0.007 A 
HETATM   13  C           1     -22.654  -9.569  -0.172  0.00  0.00     0.001 A 
HETATM   14  C           1     -23.012  -8.321   0.339  0.00  0.00     0.000 A 
HETATM   15  C           1     -22.555  -7.158  -0.280  0.00  0.00     0.001 A 
HETATM   16  C           1     -21.742  -7.242  -1.410  0.00  0.00     0.007 A 
ENDBRANCH  10  11
ENDBRANCH   5  10
ENDBRANCH   4   5
BRANCH   3  17
HETATM   17  C           1     -21.216  -5.693  -6.709  0.00  0.00     0.186 C 
BRANCH  17  18
HETATM   18  C           1     -22.352  -4.738  -7.051  0.00  0.00     0.045 C 
BRANCH  18  19
HETATM   19  C           1     -21.924  -3.828  -8.195  0.00  0.00     0.105 C 
BRANCH  19  20
HETATM   20  C           1     -23.050  -3.710  -9.193  0.00  0.00     0.215 C 
HETATM   21  O           1     -22.811  -3.718 -10.377  0.00  0.00    -0.274 OA
HETATM   22  N           1     -24.342  -3.595  -8.756  0.00  0.00    -0.370 N 
HETATM   23  H           1     -24.542  -3.589  -7.763  0.00  0.00     0.159 HD
HETATM   24  H           1     -25.098  -3.516  -9.424  0.00  0.00     0.159 HD
ENDBRANCH  19  20
ENDBRANCH  18  19
ENDBRANCH  17  18
BRANCH  17  25
HETATM   25  C           1     -20.039  -4.907  -6.186  0.00  0.00     0.196 C 
HETATM   26  O           1     -19.027  -4.747  -6.902  0.00  0.00    -0.646 OA
HETATM   27  O           1     -20.075  -4.415  -5.038  0.00  0.00    -0.646 OA
ENDBRANCH  17  25
ENDBRANCH   3  17
TORSDOF 9
ENDMDL
