MODEL 1
REMARK VINA RESULT:      -6.7      0.000      0.000
REMARK  8 active torsions:
REMARK  status: ('A' for Active; 'I' for Inactive)
REMARK       I    between atoms: C_2  and  N_11 
REMARK    1  A    between atoms: C_2  and  C_12 
REMARK    2  A    between atoms: N_5  and  C_22 
REMARK       I    between atoms: N_5  and  C_23 
REMARK    3  A    between atoms: C_6  and  C_7 
REMARK    4  A    between atoms: C_6  and  C_19 
REMARK    5  A    between atoms: C_7  and  C_23 
REMARK    6  A    between atoms: C_7  and  N_14 
REMARK    7  A    between atoms: C_12  and  C_22 
REMARK    8  A    between atoms: C_21  and  C_22 
ROOT
HETATM    1  H           1     -24.262  -4.608  -8.494  0.00  0.00     0.163 HD
HETATM    2  N           1     -23.394  -4.200  -8.820  0.00  0.00    -0.344 N 
HETATM    3  O           1     -21.260  -3.701  -8.392  0.00  0.00    -0.271 OA
HETATM    4  C           1     -22.295  -4.188  -8.003  0.00  0.00     0.249 C 
ENDROOT
BRANCH   2   5
HETATM    5  C           1     -23.317  -3.630 -10.150  0.00  0.00     0.194 C 
BRANCH   5   6
HETATM    6  C           1     -22.712  -4.650 -11.105  0.00  0.00     0.138 C 
BRANCH   6   7
HETATM    7  C           1     -21.641  -3.989 -11.938  0.00  0.00     0.217 C 
HETATM    8  O           1     -20.501  -3.954 -11.539  0.00  0.00    -0.274 OA
HETATM    9  N           1     -21.961  -3.428 -13.144  0.00  0.00    -0.370 N 
HETATM   10  H           1     -22.915  -3.456 -13.478  0.00  0.00     0.159 HD
HETATM   11  H           1     -21.242  -2.984 -13.702  0.00  0.00     0.159 HD
ENDBRANCH   6   7
ENDBRANCH   5   6
BRANCH   5  12
HETATM   12  C           1     -24.703  -3.260 -10.620  0.00  0.00     0.197 C 
HETATM   13  O           1     -24.923  -3.084 -11.838  0.00  0.00    -0.646 OA
HETATM   14  O           1     -25.630  -3.131  -9.791  0.00  0.00    -0.646 OA
ENDBRANCH   5  12
ENDBRANCH   2   5
BRANCH   4  15
HETATM   15  C           1     -22.376  -4.782  -6.619  0.00  0.00     0.275 C 
BRANCH  15  16
HETATM   16  C           1     -21.587  -6.084  -6.577  0.00  0.00     0.046 C 
BRANCH  16  17
HETATM   17  C           1     -20.608  -6.048  -5.411  0.00  0.00    -0.020 C 
HETATM   18  C           1     -21.337  -6.425  -4.127  0.00  0.00     0.009 C 
HETATM   19  C           1     -20.032  -4.645  -5.274  0.00  0.00     0.009 C 
ENDBRANCH  16  17
ENDBRANCH  15  16
BRANCH  15  20
HETATM   20  N           1     -23.811  -5.056  -6.277  0.00  0.00    -0.066 N 
HETATM   21  H           1     -24.122  -4.398  -5.527  0.00  0.00     0.275 HD
HETATM   22  H           1     -23.907  -6.040  -5.939  0.00  0.00     0.275 HD
HETATM   23  H           1     -24.403  -4.920  -7.128  0.00  0.00     0.275 HD
ENDBRANCH  15  20
ENDBRANCH   4  15
TORSDOF 8
ENDMDL
MODEL 2
REMARK VINA RESULT:      -6.5      1.619      1.980
REMARK  8 active torsions:
REMARK  status: ('A' for Active; 'I' for Inactive)
REMARK       I    between atoms: C_2  and  N_11 
REMARK    1  A    between atoms: C_2  and  C_12 
REMARK    2  A    between atoms: N_5  and  C_22 
REMARK       I    between atoms: N_5  and  C_23 
REMARK    3  A    between atoms: C_6  and  C_7 
REMARK    4  A    between atoms: C_6  and  C_19 
REMARK    5  A    between atoms: C_7  and  C_23 
REMARK    6  A    between atoms: C_7  and  N_14 
REMARK    7  A    between atoms: C_12  and  C_22 
REMARK    8  A    between atoms: C_21  and  C_22 
ROOT
HETATM    1  H           1     -22.423  -5.921  -9.139  0.00  0.00     0.163 HD
HETATM    2  N           1     -22.287  -4.971  -8.819  0.00  0.00    -0.344 N 
HETATM    3  O           1     -21.488  -3.600  -7.248  0.00  0.00    -0.271 OA
HETATM    4  C           1     -21.648  -4.734  -7.631  0.00  0.00     0.249 C 
ENDROOT
BRANCH   2   5
HETATM    5  C           1     -22.770  -3.861  -9.617  0.00  0.00     0.194 C 
BRANCH   5   6
HETATM    6  C           1     -22.262  -4.005 -11.046  0.00  0.00     0.138 C 
BRANCH   6   7
HETATM    7  C           1     -20.763  -3.833 -11.067  0.00  0.00     0.217 C 
HETATM    8  O           1     -20.045  -4.755 -10.760  0.00  0.00    -0.274 OA
HETATM    9  N           1     -20.217  -2.633 -11.434  0.00  0.00    -0.370 N 
HETATM   10  H           1     -20.818  -1.861 -11.692  0.00  0.00     0.159 HD
HETATM   11  H           1     -19.211  -2.518 -11.449  0.00  0.00     0.159 HD
ENDBRANCH   6   7
ENDBRANCH   5   6
BRANCH   5  12
HETATM   12  C           1     -24.279  -3.862  -9.617  0.00  0.00     0.197 C 
HETATM   13  O           1     -24.904  -2.796  -9.428  0.00  0.00    -0.646 OA
HETATM   14  O           1     -24.904  -4.928  -9.806  0.00  0.00    -0.646 OA
ENDBRANCH   5  12
ENDBRANCH   2   5
BRANCH   4  15
HETATM   15  C           1     -21.146  -5.890  -6.801  0.00  0.00     0.275 C 
BRANCH  15  16
HETATM   16  C           1     -21.015  -5.452  -5.348  0.00  0.00     0.046 C 
BRANCH  16  17
HETATM   17  C           1     -21.889  -6.338  -4.469  0.00  0.00    -0.020 C 
HETATM   18  C           1     -21.479  -6.166  -3.012  0.00  0.00     0.009 C 
HETATM   19  C           1     -21.710  -7.794  -4.878  0.00  0.00     0.009 C 
ENDBRANCH  16  17
ENDBRANCH  15  16
BRANCH  15  20
HETATM   20  N           1     -19.806  -6.327  -7.314  0.00  0.00    -0.066 N 
HETATM   21  H           1     -19.152  -6.462  -6.510  0.00  0.00     0.275 HD
HETATM   22  H           1     -19.424  -5.597  -7.956  0.00  0.00     0.275 HD
HETATM   23  H           1     -19.910  -7.228  -7.834  0.00  0.00     0.275 HD
ENDBRANCH  15  20
ENDBRANCH   4  15
TORSDOF 8
ENDMDL
MODEL 3
REMARK VINA RESULT:      -6.1      1.682      2.063
REMARK  8 active torsions:
REMARK  status: ('A' for Active; 'I' for Inactive)
REMARK       I    between atoms: C_2  and  N_11 
REMARK    1  A    between atoms: C_2  and  C_12 
REMARK    2  A    between atoms: N_5  and  C_22 
REMARK       I    between atoms: N_5  and  C_23 
REMARK    3  A    between atoms: C_6  and  C_7 
REMARK    4  A    between atoms: C_6  and  C_19 
REMARK    5  A    between atoms: C_7  and  C_23 
REMARK    6  A    between atoms: C_7  and  N_14 
REMARK    7  A    between atoms: C_12  and  C_22 
REMARK    8  A    between atoms: C_21  and  C_22 
ROOT
HETATM    1  H           1     -22.281  -5.915  -9.587  0.00  0.00     0.163 HD
HETATM    2  N           1     -22.311  -4.937  -9.328  0.00  0.00    -0.344 N 
HETATM    3  O           1     -21.752  -3.350  -7.860  0.00  0.00    -0.271 OA
HETATM    4  C           1     -21.715  -4.517  -8.169  0.00  0.00     0.249 C 
ENDROOT
BRANCH   2   5
HETATM    5  C           1     -22.985  -3.982 -10.185  0.00  0.00     0.194 C 
BRANCH   5   6
HETATM    6  C           1     -22.866  -4.429 -11.636  0.00  0.00     0.138 C 
BRANCH   6   7
HETATM    7  C           1     -23.506  -3.401 -12.535  0.00  0.00     0.217 C 
HETATM    8  O           1     -24.394  -3.726 -13.287  0.00  0.00    -0.274 OA
HETATM    9  N           1     -23.082  -2.101 -12.499  0.00  0.00    -0.370 N 
HETATM   10  H           1     -22.338  -1.829 -11.870  0.00  0.00     0.159 HD
HETATM   11  H           1     -23.512  -1.411 -13.103  0.00  0.00     0.159 HD
ENDBRANCH   6   7
ENDBRANCH   5   6
BRANCH   5  12
HETATM   12  C           1     -24.442  -3.903  -9.801  0.00  0.00     0.197 C 
HETATM   13  O           1     -25.132  -4.944  -9.751  0.00  0.00    -0.646 OA
HETATM   14  O           1     -24.959  -2.797  -9.532  0.00  0.00    -0.646 OA
ENDBRANCH   5  12
ENDBRANCH   2   5
BRANCH   4  15
HETATM   15  C           1     -21.013  -5.512  -7.277  0.00  0.00     0.275 C 
BRANCH  15  16
HETATM   16  C           1     -21.779  -5.649  -5.968  0.00  0.00     0.046 C 
BRANCH  16  17
HETATM   17  C           1     -20.991  -6.533  -5.009  0.00  0.00    -0.020 C 
HETATM   18  C           1     -21.291  -7.996  -5.308  0.00  0.00     0.009 C 
HETATM   19  C           1     -21.396  -6.214  -3.575  0.00  0.00     0.009 C 
ENDBRANCH  16  17
ENDBRANCH  15  16
BRANCH  15  20
HETATM   20  N           1     -19.621  -5.033  -6.995  0.00  0.00    -0.066 N 
HETATM   21  H           1     -18.932  -5.679  -7.442  0.00  0.00     0.275 HD
HETATM   22  H           1     -19.461  -5.015  -5.962  0.00  0.00     0.275 HD
HETATM   23  H           1     -19.498  -4.070  -7.383  0.00  0.00     0.275 HD
ENDBRANCH  15  20
ENDBRANCH   4  15
TORSDOF 8
ENDMDL
MODEL 4
REMARK VINA RESULT:      -5.7      2.599      6.094
REMARK  8 active torsions:
REMARK  status: ('A' for Active; 'I' for Inactive)
REMARK       I    between atoms: C_2  and  N_11 
REMARK    1  A    between atoms: C_2  and  C_12 
REMARK    2  A    between atoms: N_5  and  C_22 
REMARK       I    between atoms: N_5  and  C_23 
REMARK    3  A    between atoms: C_6  and  C_7 
REMARK    4  A    between atoms: C_6  and  C_19 
REMARK    5  A    between atoms: C_7  and  C_23 
REMARK    6  A    between atoms: C_7  and  N_14 
REMARK    7  A    between atoms: C_12  and  C_22 
REMARK    8  A    between atoms: C_21  and  C_22 
ROOT
HETATM    1  H           1     -21.090  -4.988  -8.603  0.00  0.00     0.163 HD
HETATM    2  N           1     -21.682  -4.923  -7.785  0.00  0.00    -0.344 N 
HETATM    3  O           1     -23.689  -4.436  -6.934  0.00  0.00    -0.271 OA
HETATM    4  C           1     -22.983  -4.514  -7.911  0.00  0.00     0.249 C 
ENDROOT
BRANCH   2   5
HETATM    5  C           1     -21.153  -5.265  -6.479  0.00  0.00     0.194 C 
BRANCH   5   6
HETATM    6  C           1     -21.107  -6.780  -6.330  0.00  0.00     0.138 C 
BRANCH   6   7
HETATM    7  C           1     -21.890  -7.190  -5.107  0.00  0.00     0.217 C 
HETATM    8  O           1     -21.757  -8.300  -4.650  0.00  0.00    -0.274 OA
HETATM    9  N           1     -22.751  -6.306  -4.517  0.00  0.00    -0.370 N 
HETATM   10  H           1     -22.862  -5.376  -4.900  0.00  0.00     0.159 HD
HETATM   11  H           1     -23.276  -6.581  -3.696  0.00  0.00     0.159 HD
ENDBRANCH   6   7
ENDBRANCH   5   6
BRANCH   5  12
HETATM   12  C           1     -19.759  -4.703  -6.339  0.00  0.00     0.197 C 
HETATM   13  O           1     -19.039  -4.559  -7.351  0.00  0.00    -0.646 OA
HETATM   14  O           1     -19.325  -4.381  -5.212  0.00  0.00    -0.646 OA
ENDBRANCH   5  12
ENDBRANCH   2   5
BRANCH   4  15
HETATM   15  C           1     -23.533  -4.159  -9.271  0.00  0.00     0.275 C 
BRANCH  15  16
HETATM   16  C           1     -22.519  -3.308 -10.023  0.00  0.00     0.046 C 
BRANCH  16  17
HETATM   17  C           1     -21.989  -4.088 -11.220  0.00  0.00    -0.020 C 
HETATM   18  C           1     -20.473  -4.193 -11.124  0.00  0.00     0.009 C 
HETATM   19  C           1     -22.368  -3.365 -12.506  0.00  0.00     0.009 C 
ENDBRANCH  16  17
ENDBRANCH  15  16
BRANCH  15  20
HETATM   20  N           1     -24.809  -3.387  -9.106  0.00  0.00    -0.066 N 
HETATM   21  H           1     -25.609  -3.955  -9.464  0.00  0.00     0.275 HD
HETATM   22  H           1     -24.747  -2.493  -9.643  0.00  0.00     0.275 HD
HETATM   23  H           1     -24.959  -3.175  -8.093  0.00  0.00     0.275 HD
ENDBRANCH  15  20
ENDBRANCH   4  15
TORSDOF 8
ENDMDL
MODEL 5
REMARK VINA RESULT:      -5.6      2.154      3.692
REMARK  8 active torsions:
REMARK  status: ('A' for Active; 'I' for Inactive)
REMARK       I    between atoms: C_2  and  N_11 
REMARK    1  A    between atoms: C_2  and  C_12 
REMARK    2  A    between atoms: N_5  and  C_22 
REMARK       I    between atoms: N_5  and  C_23 
REMARK    3  A    between atoms: C_6  and  C_7 
REMARK    4  A    between atoms: C_6  and  C_19 
REMARK    5  A    between atoms: C_7  and  C_23 
REMARK    6  A    between atoms: C_7  and  N_14 
REMARK    7  A    between atoms: C_12  and  C_22 
REMARK    8  A    between atoms: C_21  and  C_22 
ROOT
HETATM    1  H           1     -22.165  -3.963  -6.617  0.00  0.00     0.163 HD
HETATM    2  N           1     -21.837  -4.756  -7.152  0.00  0.00    -0.344 N 
HETATM    3  O           1     -21.000  -6.827  -7.147  0.00  0.00    -0.271 OA
HETATM    4  C           1     -21.392  -5.880  -6.508  0.00  0.00     0.249 C 
ENDROOT
BRANCH   2   5
HETATM    5  C           1     -21.838  -4.703  -8.601  0.00  0.00     0.194 C 
BRANCH   5   6
HETATM    6  C           1     -22.839  -3.655  -9.069  0.00  0.00     0.138 C 
BRANCH   6   7
HETATM    7  C           1     -23.979  -4.334  -9.788  0.00  0.00     0.217 C 
HETATM    8  O           1     -23.765  -5.292 -10.492  0.00  0.00    -0.274 OA
HETATM    9  N           1     -25.256  -3.864  -9.643  0.00  0.00    -0.370 N 
HETATM   10  H           1     -25.436  -3.061  -9.053  0.00  0.00     0.159 HD
HETATM   11  H           1     -26.021  -4.319 -10.125  0.00  0.00     0.159 HD
ENDBRANCH   6   7
ENDBRANCH   5   6
BRANCH   5  12
HETATM   12  C           1     -20.459  -4.336  -9.091  0.00  0.00     0.197 C 
HETATM   13  O           1     -19.684  -3.690  -8.352  0.00  0.00    -0.646 OA
HETATM   14  O           1     -20.091  -4.677 -10.236  0.00  0.00    -0.646 OA
ENDBRANCH   5  12
ENDBRANCH   2   5
BRANCH   4  15
HETATM   15  C           1     -21.391  -5.935  -5.000  0.00  0.00     0.275 C 
BRANCH  15  16
HETATM   16  C           1     -20.506  -7.083  -4.534  0.00  0.00     0.046 C 
BRANCH  16  17
HETATM   17  C           1     -21.339  -8.071  -3.726  0.00  0.00    -0.020 C 
HETATM   18  C           1     -20.725  -8.236  -2.342  0.00  0.00     0.009 C 
HETATM   19  C           1     -21.360  -9.418  -4.436  0.00  0.00     0.009 C 
ENDBRANCH  16  17
ENDBRANCH  15  16
BRANCH  15  20
HETATM   20  N           1     -22.792  -6.151  -4.508  0.00  0.00    -0.066 N 
HETATM   21  H           1     -22.911  -5.685  -3.581  0.00  0.00     0.275 HD
HETATM   22  H           1     -22.971  -7.176  -4.409  0.00  0.00     0.275 HD
HETATM   23  H           1     -23.468  -5.743  -5.193  0.00  0.00     0.275 HD
ENDBRANCH  15  20
ENDBRANCH   4  15
TORSDOF 8
ENDMDL
MODEL 6
REMARK VINA RESULT:      -5.6      5.267      8.515
REMARK  8 active torsions:
REMARK  status: ('A' for Active; 'I' for Inactive)
REMARK       I    between atoms: C_2  and  N_11 
REMARK    1  A    between atoms: C_2  and  C_12 
REMARK    2  A    between atoms: N_5  and  C_22 
REMARK       I    between atoms: N_5  and  C_23 
REMARK    3  A    between atoms: C_6  and  C_7 
REMARK    4  A    between atoms: C_6  and  C_19 
REMARK    5  A    between atoms: C_7  and  C_23 
REMARK    6  A    between atoms: C_7  and  N_14 
REMARK    7  A    between atoms: C_12  and  C_22 
REMARK    8  A    between atoms: C_21  and  C_22 
ROOT
HETATM    1  H           1     -22.467  -7.488  -3.088  0.00  0.00     0.163 HD
HETATM    2  N           1     -21.542  -7.864  -3.258  0.00  0.00    -0.344 N 
HETATM    3  O           1     -19.761  -7.971  -4.600  0.00  0.00    -0.271 OA
HETATM    4  C           1     -20.863  -7.521  -4.397  0.00  0.00     0.249 C 
ENDROOT
BRANCH   2   5
HETATM    5  C           1     -20.938  -8.764  -2.296  0.00  0.00     0.194 C 
BRANCH   5   6
HETATM    6  C           1     -20.896  -8.093  -0.930  0.00  0.00     0.138 C 
BRANCH   6   7
HETATM    7  C           1     -22.252  -7.514  -0.610  0.00  0.00     0.217 C 
HETATM    8  O           1     -22.584  -6.455  -1.087  0.00  0.00    -0.274 OA
HETATM    9  N           1     -23.106  -8.189   0.219  0.00  0.00    -0.370 N 
HETATM   10  H           1     -22.828  -9.076   0.618  0.00  0.00     0.159 HD
HETATM   11  H           1     -24.016  -7.801   0.433  0.00  0.00     0.159 HD
ENDBRANCH   6   7
ENDBRANCH   5   6
BRANCH   5  12
HETATM   12  C           1     -21.755 -10.030  -2.210  0.00  0.00     0.197 C 
HETATM   13  O           1     -22.458 -10.387  -3.181  0.00  0.00    -0.646 OA
HETATM   14  O           1     -21.730 -10.721  -1.169  0.00  0.00    -0.646 OA
ENDBRANCH   5  12
ENDBRANCH   2   5
BRANCH   4  15
HETATM   15  C           1     -21.493  -6.584  -5.398  0.00  0.00     0.275 C 
BRANCH  15  16
HETATM   16  C           1     -20.646  -5.324  -5.518  0.00  0.00     0.046 C 
BRANCH  16  17
HETATM   17  C           1     -20.567  -4.901  -6.979  0.00  0.00    -0.020 C 
HETATM   18  C           1     -19.116  -4.611  -7.344  0.00  0.00     0.009 C 
HETATM   19  C           1     -21.405  -3.647  -7.191  0.00  0.00     0.009 C 
ENDBRANCH  16  17
ENDBRANCH  15  16
BRANCH  15  20
HETATM   20  N           1     -22.873  -6.217  -4.939  0.00  0.00    -0.066 N 
HETATM   21  H           1     -22.949  -5.178  -4.862  0.00  0.00     0.275 HD
HETATM   22  H           1     -23.055  -6.650  -4.005  0.00  0.00     0.275 HD
HETATM   23  H           1     -23.575  -6.568  -5.629  0.00  0.00     0.275 HD
ENDBRANCH  15  20
ENDBRANCH   4  15
TORSDOF 8
ENDMDL
MODEL 7
REMARK VINA RESULT:      -5.5      3.795      7.165
REMARK  8 active torsions:
REMARK  status: ('A' for Active; 'I' for Inactive)
REMARK       I    between atoms: C_2  and  N_11 
REMARK    1  A    between atoms: C_2  and  C_12 
REMARK    2  A    between atoms: N_5  and  C_22 
REMARK       I    between atoms: N_5  and  C_23 
REMARK    3  A    between atoms: C_6  and  C_7 
REMARK    4  A    between atoms: C_6  and  C_19 
REMARK    5  A    between atoms: C_7  and  C_23 
REMARK    6  A    between atoms: C_7  and  N_14 
REMARK    7  A    between atoms: C_12  and  C_22 
REMARK    8  A    between atoms: C_21  and  C_22 
ROOT
HETATM    1  H           1     -21.401  -7.424  -6.794  0.00  0.00     0.163 HD
HETATM    2  N           1     -20.989  -6.888  -6.041  0.00  0.00    -0.344 N 
HETATM    3  O           1     -20.495  -4.879  -5.200  0.00  0.00    -0.271 OA
HETATM    4  C           1     -20.987  -5.519  -6.098  0.00  0.00     0.249 C 
ENDROOT
BRANCH   2   5
HETATM    5  C           1     -20.402  -7.567  -4.903  0.00  0.00     0.194 C 
BRANCH   5   6
HETATM    6  C           1     -21.506  -8.013  -3.954  0.00  0.00     0.138 C 
BRANCH   6   7
HETATM    7  C           1     -21.451  -7.187  -2.692  0.00  0.00     0.217 C 
HETATM    8  O           1     -20.801  -7.569  -1.748  0.00  0.00    -0.274 OA
HETATM    9  N           1     -22.135  -6.004  -2.618  0.00  0.00    -0.370 N 
HETATM   10  H           1     -22.679  -5.684  -3.408  0.00  0.00     0.159 HD
HETATM   11  H           1     -22.098  -5.450  -1.771  0.00  0.00     0.159 HD
ENDBRANCH   6   7
ENDBRANCH   5   6
BRANCH   5  12
HETATM   12  C           1     -19.632  -8.774  -5.381  0.00  0.00     0.197 C 
HETATM   13  O           1     -18.723  -8.639  -6.230  0.00  0.00    -0.646 OA
HETATM   14  O           1     -19.903  -9.907  -4.930  0.00  0.00    -0.646 OA
ENDBRANCH   5  12
ENDBRANCH   2   5
BRANCH   4  15
HETATM   15  C           1     -21.598  -4.812  -7.283  0.00  0.00     0.275 C 
BRANCH  15  16
HETATM   16  C           1     -20.757  -5.079  -8.524  0.00  0.00     0.046 C 
BRANCH  16  17
HETATM   17  C           1     -21.251  -4.206  -9.671  0.00  0.00    -0.020 C 
HETATM   18  C           1     -22.645  -4.658 -10.086  0.00  0.00     0.009 C 
HETATM   19  C           1     -20.301  -4.336 -10.854  0.00  0.00     0.009 C 
ENDBRANCH  16  17
ENDBRANCH  15  16
BRANCH  15  20
HETATM   20  N           1     -21.640  -3.337  -7.016  0.00  0.00    -0.066 N 
HETATM   21  H           1     -20.688  -2.930  -7.156  0.00  0.00     0.275 HD
HETATM   22  H           1     -21.949  -3.170  -6.032  0.00  0.00     0.275 HD
HETATM   23  H           1     -22.313  -2.882  -7.675  0.00  0.00     0.275 HD
ENDBRANCH  15  20
ENDBRANCH   4  15
TORSDOF 8
ENDMDL
MODEL 8
REMARK VINA RESULT:      -5.5      3.902      7.080
REMARK  8 active torsions:
REMARK  status: ('A' for Active; 'I' for Inactive)
REMARK       I    between atoms: C_2  and  N_11 
REMARK    1  A    between atoms: C_2  and  C_12 
REMARK    2  A    between atoms: N_5  and  C_22 
REMARK       I    between atoms: N_5  and  C_23 
REMARK    3  A    between atoms: C_6  and  C_7 
REMARK    4  A    between atoms: C_6  and  C_19 
REMARK    5  A    between atoms: C_7  and  C_23 
REMARK    6  A    between atoms: C_7  and  N_14 
REMARK    7  A    between atoms: C_12  and  C_22 
REMARK    8  A    between atoms: C_21  and  C_22 
ROOT
HETATM    1  H           1     -19.901  -6.890  -4.921  0.00  0.00     0.163 HD
HETATM    2  N           1     -20.892  -6.685  -4.926  0.00  0.00    -0.344 N 
HETATM    3  O           1     -22.574  -5.499  -5.790  0.00  0.00    -0.271 OA
HETATM    4  C           1     -21.391  -5.744  -5.786  0.00  0.00     0.249 C 
ENDROOT
BRANCH   2   5
HETATM    5  C           1     -21.781  -7.389  -4.023  0.00  0.00     0.194 C 
BRANCH   5   6
HETATM    6  C           1     -21.426  -8.869  -4.011  0.00  0.00     0.138 C 
BRANCH   6   7
HETATM    7  C           1     -20.027  -9.056  -4.545  0.00  0.00     0.217 C 
HETATM    8  O           1     -19.842  -9.156  -5.734  0.00  0.00    -0.274 OA
HETATM    9  N           1     -18.967  -9.112  -3.681  0.00  0.00    -0.370 N 
HETATM   10  H           1     -19.121  -9.028  -2.685  0.00  0.00     0.159 HD
HETATM   11  H           1     -18.028  -9.237  -4.039  0.00  0.00     0.159 HD
ENDBRANCH   6   7
ENDBRANCH   5   6
BRANCH   5  12
HETATM   12  C           1     -21.633  -6.824  -2.631  0.00  0.00     0.197 C 
HETATM   13  O           1     -22.311  -5.833  -2.284  0.00  0.00    -0.646 OA
HETATM   14  O           1     -20.833  -7.348  -1.827  0.00  0.00    -0.646 OA
ENDBRANCH   5  12
ENDBRANCH   2   5
BRANCH   4  15
HETATM   15  C           1     -20.465  -5.012  -6.726  0.00  0.00     0.275 C 
BRANCH  15  16
HETATM   16  C           1     -21.270  -4.042  -7.580  0.00  0.00     0.046 C 
BRANCH  16  17
HETATM   17  C           1     -21.456  -4.626  -8.975  0.00  0.00    -0.020 C 
HETATM   18  C           1     -20.627  -3.827  -9.972  0.00  0.00     0.009 C 
HETATM   19  C           1     -22.927  -4.554  -9.364  0.00  0.00     0.009 C 
ENDBRANCH  16  17
ENDBRANCH  15  16
BRANCH  15  20
HETATM   20  N           1     -19.772  -6.002  -7.614  0.00  0.00    -0.066 N 
HETATM   21  H           1     -20.428  -6.319  -8.362  0.00  0.00     0.275 HD
HETATM   22  H           1     -19.467  -6.825  -7.046  0.00  0.00     0.275 HD
HETATM   23  H           1     -18.936  -5.552  -8.052  0.00  0.00     0.275 HD
ENDBRANCH  15  20
ENDBRANCH   4  15
TORSDOF 8
ENDMDL
MODEL 9
REMARK VINA RESULT:      -5.4      2.649      4.931
REMARK  8 active torsions:
REMARK  status: ('A' for Active; 'I' for Inactive)
REMARK       I    between atoms: C_2  and  N_11 
REMARK    1  A    between atoms: C_2  and  C_12 
REMARK    2  A    between atoms: N_5  and  C_22 
REMARK       I    between atoms: N_5  and  C_23 
REMARK    3  A    between atoms: C_6  and  C_7 
REMARK    4  A    between atoms: C_6  and  C_19 
REMARK    5  A    between atoms: C_7  and  C_23 
REMARK    6  A    between atoms: C_7  and  N_14 
REMARK    7  A    between atoms: C_12  and  C_22 
REMARK    8  A    between atoms: C_21  and  C_22 
ROOT
HETATM    1  H           1     -22.312  -5.629  -4.776  0.00  0.00     0.163 HD
HETATM    2  N           1     -21.794  -6.115  -5.497  0.00  0.00    -0.344 N 
HETATM    3  O           1     -20.788  -7.994  -6.164  0.00  0.00    -0.271 OA
HETATM    4  C           1     -21.407  -7.414  -5.304  0.00  0.00     0.249 C 
ENDROOT
BRANCH   2   5
HETATM    5  C           1     -21.462  -5.435  -6.734  0.00  0.00     0.194 C 
BRANCH   5   6
HETATM    6  C           1     -22.440  -4.290  -6.962  0.00  0.00     0.138 C 
BRANCH   6   7
HETATM    7  C           1     -22.969  -4.352  -8.374  0.00  0.00     0.217 C 
HETATM    8  O           1     -22.350  -4.947  -9.224  0.00  0.00    -0.274 OA
HETATM    9  N           1     -24.149  -3.736  -8.690  0.00  0.00    -0.370 N 
HETATM   10  H           1     -24.667  -3.239  -7.978  0.00  0.00     0.159 HD
HETATM   11  H           1     -24.504  -3.778  -9.638  0.00  0.00     0.159 HD
ENDBRANCH   6   7
ENDBRANCH   5   6
BRANCH   5  12
HETATM   12  C           1     -20.058  -4.888  -6.645  0.00  0.00     0.197 C 
HETATM   13  O           1     -19.607  -4.500  -5.545  0.00  0.00    -0.646 OA
HETATM   14  O           1     -19.346  -4.823  -7.671  0.00  0.00    -0.646 OA
ENDBRANCH   5  12
ENDBRANCH   2   5
BRANCH   4  15
HETATM   15  C           1     -21.753  -8.121  -4.016  0.00  0.00     0.275 C 
BRANCH  15  16
HETATM   16  C           1     -20.644  -7.894  -2.998  0.00  0.00     0.046 C 
BRANCH  16  17
HETATM   17  C           1     -21.248  -7.392  -1.692  0.00  0.00    -0.020 C 
HETATM   18  C           1     -21.983  -8.535  -1.003  0.00  0.00     0.009 C 
HETATM   19  C           1     -22.227  -6.263  -1.986  0.00  0.00     0.009 C 
ENDBRANCH  16  17
ENDBRANCH  15  16
BRANCH  15  20
HETATM   20  N           1     -21.898  -9.591  -4.278  0.00  0.00    -0.066 N 
HETATM   21  H           1     -22.276 -10.061  -3.426  0.00  0.00     0.275 HD
HETATM   22  H           1     -20.964  -9.996  -4.515  0.00  0.00     0.275 HD
HETATM   23  H           1     -22.555  -9.739  -5.078  0.00  0.00     0.275 HD
ENDBRANCH  15  20
ENDBRANCH   4  15
TORSDOF 8
ENDMDL
