MODEL 1
REMARK VINA RESULT:      -5.7      0.000      0.000
REMARK  9 active torsions:
REMARK  status: ('A' for Active; 'I' for Inactive)
REMARK    1  A    between atoms: O_2  and  C_3 
REMARK    2  A    between atoms: C_3  and  C_17 
REMARK    3  A    between atoms: C_4  and  C_5 
REMARK    4  A    between atoms: C_5  and  C_15 
REMARK    5  A    between atoms: C_5  and  N_7 
REMARK       I    between atoms: N_7  and  C_14 
REMARK    6  A    between atoms: N_10  and  C_17 
REMARK    7  A    between atoms: S_12  and  C_13 
REMARK    8  A    between atoms: C_13  and  C_15 
REMARK    9  A    between atoms: C_14  and  C_17 
ROOT
HETATM    1  N           1     -22.078  -4.783  -8.933  0.00  0.00    -0.345 N 
HETATM    2  H           1     -22.078  -5.752  -9.224  0.00  0.00     0.163 HD
HETATM    3  C           1     -21.501  -4.423  -7.745  0.00  0.00     0.251 C 
HETATM    4  O           1     -21.501  -3.266  -7.398  0.00  0.00    -0.271 OA
ENDROOT
BRANCH   3   5
HETATM    5  C           1     -20.863  -5.473  -6.868  0.00  0.00     0.302 C 
BRANCH   5   6
HETATM    6  C           1     -21.909  -6.051  -5.924  0.00  0.00     0.153 C 
HETATM    7  C           1     -21.372  -6.030  -4.499  0.00  0.00     0.042 C 
BRANCH   6   8
HETATM    8  O           1     -23.078  -5.281  -5.994  0.00  0.00    -0.393 OA
HETATM    9  H           1     -23.558  -5.578  -6.747  0.00  0.00     0.210 HD
ENDBRANCH   6   8
ENDBRANCH   5   6
BRANCH   5  10
HETATM   10  N           1     -19.757  -4.851  -6.068  0.00  0.00    -0.064 N 
HETATM   11  H           1     -18.835  -5.124  -6.476  0.00  0.00     0.275 HD
HETATM   12  H           1     -19.855  -3.811  -6.090  0.00  0.00     0.275 HD
HETATM   13  H           1     -19.813  -5.186  -5.079  0.00  0.00     0.275 HD
ENDBRANCH   5  10
ENDBRANCH   3   5
BRANCH   1  14
HETATM   14  C           1     -22.691  -3.773  -9.775  0.00  0.00     0.186 C 
BRANCH  14  15
HETATM   15  C           1     -24.193  -3.889  -9.686  0.00  0.00     0.196 C 
HETATM   16  O           1     -24.747  -4.995  -9.870  0.00  0.00    -0.646 OA
HETATM   17  O           1     -24.883  -2.879  -9.429  0.00  0.00    -0.646 OA
ENDBRANCH  14  15
BRANCH  14  18
HETATM   18  C           1     -22.249  -3.980 -11.218  0.00  0.00     0.046 C 
BRANCH  18  19
HETATM   19  C           1     -22.439  -2.686 -11.998  0.00  0.00     0.076 C 
BRANCH  19  20
HETATM   20  S           1     -23.854  -2.858 -13.122  0.00  0.00    -0.173 SA
HETATM   21  C           1     -22.910  -2.666 -14.661  0.00  0.00     0.089 C 
ENDBRANCH  19  20
ENDBRANCH  18  19
ENDBRANCH  14  18
ENDBRANCH   1  14
TORSDOF 9
ENDMDL
MODEL 2
REMARK VINA RESULT:      -5.3      3.173      6.396
REMARK  9 active torsions:
REMARK  status: ('A' for Active; 'I' for Inactive)
REMARK    1  A    between atoms: O_2  and  C_3 
REMARK    2  A    between atoms: C_3  and  C_17 
REMARK    3  A    between atoms: C_4  and  C_5 
REMARK    4  A    between atoms: C_5  and  C_15 
REMARK    5  A    between atoms: C_5  and  N_7 
REMARK       I    between atoms: N_7  and  C_14 
REMARK    6  A    between atoms: N_10  and  C_17 
REMARK    7  A    between atoms: S_12  and  C_13 
REMARK    8  A    between atoms: C_13  and  C_15 
REMARK    9  A    between atoms: C_14  and  C_17 
ROOT
HETATM    1  N           1     -22.192  -5.263  -8.558  0.00  0.00    -0.345 N 
HETATM    2  H           1     -22.295  -6.215  -8.885  0.00  0.00     0.163 HD
HETATM    3  C           1     -23.041  -4.287  -9.008  0.00  0.00     0.251 C 
HETATM    4  O           1     -22.917  -3.151  -8.616  0.00  0.00    -0.271 OA
ENDROOT
BRANCH   3   5
HETATM    5  C           1     -24.131  -4.632  -9.993  0.00  0.00     0.302 C 
BRANCH   5   6
HETATM    6  C           1     -23.602  -4.474 -11.412  0.00  0.00     0.153 C 
HETATM    7  C           1     -24.156  -3.193 -12.021  0.00  0.00     0.042 C 
BRANCH   6   8
HETATM    8  O           1     -22.202  -4.410 -11.385  0.00  0.00    -0.393 OA
HETATM    9  H           1     -21.973  -3.576 -11.012  0.00  0.00     0.210 HD
ENDBRANCH   6   8
ENDBRANCH   5   6
BRANCH   5  10
HETATM   10  N           1     -25.297  -3.710  -9.790  0.00  0.00    -0.064 N 
HETATM   11  H           1     -26.181  -4.204 -10.045  0.00  0.00     0.275 HD
HETATM   12  H           1     -25.338  -3.417  -8.787  0.00  0.00     0.275 HD
HETATM   13  H           1     -25.183  -2.865 -10.395  0.00  0.00     0.275 HD
ENDBRANCH   5  10
ENDBRANCH   3   5
BRANCH   1  14
HETATM   14  C           1     -21.144  -4.931  -7.612  0.00  0.00     0.186 C 
BRANCH  14  15
HETATM   15  C           1     -19.874  -4.612  -8.360  0.00  0.00     0.196 C 
HETATM   16  O           1     -18.838  -4.305  -7.730  0.00  0.00    -0.646 OA
HETATM   17  O           1     -19.856  -4.653  -9.609  0.00  0.00    -0.646 OA
ENDBRANCH  14  15
BRANCH  14  18
HETATM   18  C           1     -20.905  -6.117  -6.685  0.00  0.00     0.046 C 
BRANCH  18  19
HETATM   19  C           1     -21.083  -5.675  -5.238  0.00  0.00     0.076 C 
BRANCH  19  20
HETATM   20  S           1     -21.617  -7.090  -4.234  0.00  0.00    -0.173 SA
HETATM   21  C           1     -21.680  -6.200  -2.654  0.00  0.00     0.089 C 
ENDBRANCH  19  20
ENDBRANCH  18  19
ENDBRANCH  14  18
ENDBRANCH   1  14
TORSDOF 9
ENDMDL
MODEL 3
REMARK VINA RESULT:      -4.8      4.637      7.631
REMARK  9 active torsions:
REMARK  status: ('A' for Active; 'I' for Inactive)
REMARK    1  A    between atoms: O_2  and  C_3 
REMARK    2  A    between atoms: C_3  and  C_17 
REMARK    3  A    between atoms: C_4  and  C_5 
REMARK    4  A    between atoms: C_5  and  C_15 
REMARK    5  A    between atoms: C_5  and  N_7 
REMARK       I    between atoms: N_7  and  C_14 
REMARK    6  A    between atoms: N_10  and  C_17 
REMARK    7  A    between atoms: S_12  and  C_13 
REMARK    8  A    between atoms: C_13  and  C_15 
REMARK    9  A    between atoms: C_14  and  C_17 
ROOT
HETATM    1  N           1     -21.374  -6.508  -5.417  0.00  0.00    -0.345 N 
HETATM    2  H           1     -22.069  -7.062  -5.899  0.00  0.00     0.163 HD
HETATM    3  C           1     -21.074  -5.247  -5.859  0.00  0.00     0.251 C 
HETATM    4  O           1     -20.245  -4.585  -5.282  0.00  0.00    -0.271 OA
ENDROOT
BRANCH   3   5
HETATM    5  C           1     -21.781  -4.684  -7.067  0.00  0.00     0.302 C 
BRANCH   5   6
HETATM    6  C           1     -21.163  -5.263  -8.333  0.00  0.00     0.153 C 
HETATM    7  C           1     -20.728  -4.126  -9.250  0.00  0.00     0.042 C 
BRANCH   6   8
HETATM    8  O           1     -20.048  -6.042  -7.996  0.00  0.00    -0.393 OA
HETATM    9  H           1     -19.555  -6.172  -8.788  0.00  0.00     0.210 HD
ENDBRANCH   6   8
ENDBRANCH   5   6
BRANCH   5  10
HETATM   10  N           1     -21.639  -3.191  -7.079  0.00  0.00    -0.064 N 
HETATM   11  H           1     -21.057  -2.889  -6.265  0.00  0.00     0.275 HD
HETATM   12  H           1     -21.175  -2.893  -7.968  0.00  0.00     0.275 HD
HETATM   13  H           1     -22.584  -2.750  -7.014  0.00  0.00     0.275 HD
ENDBRANCH   5  10
ENDBRANCH   3   5
BRANCH   1  14
HETATM   14  C           1     -20.694  -7.048  -4.255  0.00  0.00     0.186 C 
BRANCH  14  15
HETATM   15  C           1     -19.807  -8.193  -4.679  0.00  0.00     0.196 C 
HETATM   16  O           1     -19.492  -8.328  -5.882  0.00  0.00    -0.646 OA
HETATM   17  O           1     -19.388  -9.007  -3.828  0.00  0.00    -0.646 OA
ENDBRANCH  14  15
BRANCH  14  18
HETATM   18  C           1     -21.725  -7.548  -3.252  0.00  0.00     0.046 C 
BRANCH  18  19
HETATM   19  C           1     -22.051  -6.437  -2.261  0.00  0.00     0.076 C 
BRANCH  19  20
HETATM   20  S           1     -22.346  -7.155  -0.621  0.00  0.00    -0.173 SA
HETATM   21  C           1     -22.048  -8.879  -1.102  0.00  0.00     0.089 C 
ENDBRANCH  19  20
ENDBRANCH  18  19
ENDBRANCH  14  18
ENDBRANCH   1  14
TORSDOF 9
ENDMDL
MODEL 4
REMARK VINA RESULT:      -4.6      2.784      3.890
REMARK  9 active torsions:
REMARK  status: ('A' for Active; 'I' for Inactive)
REMARK    1  A    between atoms: O_2  and  C_3 
REMARK    2  A    between atoms: C_3  and  C_17 
REMARK    3  A    between atoms: C_4  and  C_5 
REMARK    4  A    between atoms: C_5  and  C_15 
REMARK    5  A    between atoms: C_5  and  N_7 
REMARK       I    between atoms: N_7  and  C_14 
REMARK    6  A    between atoms: N_10  and  C_17 
REMARK    7  A    between atoms: S_12  and  C_13 
REMARK    8  A    between atoms: C_13  and  C_15 
REMARK    9  A    between atoms: C_14  and  C_17 
ROOT
HETATM    1  N           1     -21.188  -5.140  -6.259  0.00  0.00    -0.345 N 
HETATM    2  H           1     -21.143  -4.329  -5.656  0.00  0.00     0.163 HD
HETATM    3  C           1     -21.127  -6.398  -5.723  0.00  0.00     0.251 C 
HETATM    4  O           1     -21.181  -7.366  -6.444  0.00  0.00    -0.271 OA
ENDROOT
BRANCH   3   5
HETATM    5  C           1     -20.991  -6.575  -4.230  0.00  0.00     0.302 C 
BRANCH   5   6
HETATM    6  C           1     -20.711  -8.038  -3.916  0.00  0.00     0.153 C 
HETATM    7  C           1     -20.381  -8.185  -2.436  0.00  0.00     0.042 C 
BRANCH   6   8
HETATM    8  O           1     -21.844  -8.807  -4.219  0.00  0.00    -0.393 OA
HETATM    9  H           1     -21.645  -9.290  -5.003  0.00  0.00     0.210 HD
ENDBRANCH   6   8
ENDBRANCH   5   6
BRANCH   5  10
HETATM   10  N           1     -22.266  -6.155  -3.559  0.00  0.00    -0.064 N 
HETATM   11  H           1     -22.090  -6.003  -2.541  0.00  0.00     0.275 HD
HETATM   12  H           1     -22.609  -5.267  -3.991  0.00  0.00     0.275 HD
HETATM   13  H           1     -22.986  -6.903  -3.680  0.00  0.00     0.275 HD
ENDBRANCH   5  10
ENDBRANCH   3   5
BRANCH   1  14
HETATM   14  C           1     -21.318  -4.970  -7.694  0.00  0.00     0.186 C 
BRANCH  14  15
HETATM   15  C           1     -19.952  -4.768  -8.302  0.00  0.00     0.196 C 
HETATM   16  O           1     -18.981  -4.470  -7.573  0.00  0.00    -0.646 OA
HETATM   17  O           1     -19.792  -4.898  -9.535  0.00  0.00    -0.646 OA
ENDBRANCH  14  15
BRANCH  14  18
HETATM   18  C           1     -22.189  -3.754  -7.983  0.00  0.00     0.046 C 
BRANCH  18  19
HETATM   19  C           1     -23.500  -4.206  -8.614  0.00  0.00     0.076 C 
BRANCH  19  20
HETATM   20  S           1     -23.226  -4.596 -10.365  0.00  0.00    -0.173 SA
HETATM   21  C           1     -24.336  -3.323 -11.029  0.00  0.00     0.089 C 
ENDBRANCH  19  20
ENDBRANCH  18  19
ENDBRANCH  14  18
ENDBRANCH   1  14
TORSDOF 9
ENDMDL
MODEL 5
REMARK VINA RESULT:      -4.6      4.015      7.250
REMARK  9 active torsions:
REMARK  status: ('A' for Active; 'I' for Inactive)
REMARK    1  A    between atoms: O_2  and  C_3 
REMARK    2  A    between atoms: C_3  and  C_17 
REMARK    3  A    between atoms: C_4  and  C_5 
REMARK    4  A    between atoms: C_5  and  C_15 
REMARK    5  A    between atoms: C_5  and  N_7 
REMARK       I    between atoms: N_7  and  C_14 
REMARK    6  A    between atoms: N_10  and  C_17 
REMARK    7  A    between atoms: S_12  and  C_13 
REMARK    8  A    between atoms: C_13  and  C_15 
REMARK    9  A    between atoms: C_14  and  C_17 
ROOT
HETATM    1  N           1     -20.973  -5.698  -5.017  0.00  0.00    -0.345 N 
HETATM    2  H           1     -20.772  -4.883  -4.452  0.00  0.00     0.163 HD
HETATM    3  C           1     -20.938  -5.610  -6.383  0.00  0.00     0.251 C 
HETATM    4  O           1     -21.177  -6.584  -7.057  0.00  0.00    -0.271 OA
ENDROOT
BRANCH   3   5
HETATM    5  C           1     -20.601  -4.298  -7.046  0.00  0.00     0.302 C 
BRANCH   5   6
HETATM    6  C           1     -21.853  -3.717  -7.689  0.00  0.00     0.153 C 
HETATM    7  C           1     -21.825  -3.987  -9.188  0.00  0.00     0.042 C 
BRANCH   6   8
HETATM    8  O           1     -22.989  -4.316  -7.128  0.00  0.00    -0.393 OA
HETATM    9  H           1     -22.731  -5.176  -6.841  0.00  0.00     0.210 HD
ENDBRANCH   6   8
ENDBRANCH   5   6
BRANCH   5  10
HETATM   10  N           1     -19.557  -4.524  -8.100  0.00  0.00    -0.064 N 
HETATM   11  H           1     -18.986  -5.363  -7.851  0.00  0.00     0.275 HD
HETATM   12  H           1     -20.024  -4.682  -9.022  0.00  0.00     0.275 HD
HETATM   13  H           1     -18.937  -3.685  -8.162  0.00  0.00     0.275 HD
ENDBRANCH   5  10
ENDBRANCH   3   5
BRANCH   1  14
HETATM   14  C           1     -21.297  -6.960  -4.380  0.00  0.00     0.186 C 
BRANCH  14  15
HETATM   15  C           1     -21.587  -6.725  -2.918  0.00  0.00     0.196 C 
HETATM   16  O           1     -22.503  -5.942  -2.580  0.00  0.00    -0.646 OA
HETATM   17  O           1     -20.913  -7.312  -2.045  0.00  0.00    -0.646 OA
ENDBRANCH  14  15
BRANCH  14  18
HETATM   18  C           1     -20.119  -7.915  -4.518  0.00  0.00     0.046 C 
BRANCH  18  19
HETATM   19  C           1     -20.630  -9.303  -4.885  0.00  0.00     0.076 C 
BRANCH  19  20
HETATM   20  S           1     -19.615 -10.559  -4.057  0.00  0.00    -0.173 SA
HETATM   21  C           1     -18.381  -9.409  -3.388  0.00  0.00     0.089 C 
ENDBRANCH  19  20
ENDBRANCH  18  19
ENDBRANCH  14  18
ENDBRANCH   1  14
TORSDOF 9
ENDMDL
MODEL 6
REMARK VINA RESULT:      -4.5      4.712      8.076
REMARK  9 active torsions:
REMARK  status: ('A' for Active; 'I' for Inactive)
REMARK    1  A    between atoms: O_2  and  C_3 
REMARK    2  A    between atoms: C_3  and  C_17 
REMARK    3  A    between atoms: C_4  and  C_5 
REMARK    4  A    between atoms: C_5  and  C_15 
REMARK    5  A    between atoms: C_5  and  N_7 
REMARK       I    between atoms: N_7  and  C_14 
REMARK    6  A    between atoms: N_10  and  C_17 
REMARK    7  A    between atoms: S_12  and  C_13 
REMARK    8  A    between atoms: C_13  and  C_15 
REMARK    9  A    between atoms: C_14  and  C_17 
ROOT
HETATM    1  N           1     -20.866  -6.582  -4.028  0.00  0.00    -0.345 N 
HETATM    2  H           1     -20.502  -5.722  -3.637  0.00  0.00     0.163 HD
HETATM    3  C           1     -20.909  -6.753  -5.386  0.00  0.00     0.251 C 
HETATM    4  O           1     -21.343  -7.780  -5.852  0.00  0.00    -0.271 OA
ENDROOT
BRANCH   3   5
HETATM    5  C           1     -20.414  -5.659  -6.300  0.00  0.00     0.302 C 
BRANCH   5   6
HETATM    6  C           1     -21.586  -4.788  -6.730  0.00  0.00     0.153 C 
HETATM    7  C           1     -21.752  -4.872  -8.242  0.00  0.00     0.042 C 
BRANCH   6   8
HETATM    8  O           1     -22.758  -5.238  -6.107  0.00  0.00    -0.393 OA
HETATM    9  H           1     -22.554  -5.364  -5.197  0.00  0.00     0.210 HD
ENDBRANCH   6   8
ENDBRANCH   5   6
BRANCH   5  10
HETATM   10  N           1     -19.776  -6.272  -7.512  0.00  0.00    -0.064 N 
HETATM   11  H           1     -18.743  -6.115  -7.479  0.00  0.00     0.275 HD
HETATM   12  H           1     -19.973  -7.298  -7.527  0.00  0.00     0.275 HD
HETATM   13  H           1     -20.168  -5.828  -8.374  0.00  0.00     0.275 HD
ENDBRANCH   5  10
ENDBRANCH   3   5
BRANCH   1  14
HETATM   14  C           1     -21.342  -7.634  -3.150  0.00  0.00     0.186 C 
BRANCH  14  15
HETATM   15  C           1     -21.998  -7.019  -1.939  0.00  0.00     0.196 C 
HETATM   16  O           1     -22.568  -5.909  -2.032  0.00  0.00    -0.646 OA
HETATM   17  O           1     -21.971  -7.618  -0.842  0.00  0.00    -0.646 OA
ENDBRANCH  14  15
BRANCH  14  18
HETATM   18  C           1     -20.166  -8.496  -2.710  0.00  0.00     0.046 C 
BRANCH  18  19
HETATM   19  C           1     -20.368  -9.923  -3.205  0.00  0.00     0.076 C 
BRANCH  19  20
HETATM   20  S           1     -21.004 -10.950  -1.850  0.00  0.00    -0.173 SA
HETATM   21  C           1     -22.712 -11.046  -2.458  0.00  0.00     0.089 C 
ENDBRANCH  19  20
ENDBRANCH  18  19
ENDBRANCH  14  18
ENDBRANCH   1  14
TORSDOF 9
ENDMDL
MODEL 7
REMARK VINA RESULT:      -4.4      7.371     10.075
REMARK  9 active torsions:
REMARK  status: ('A' for Active; 'I' for Inactive)
REMARK    1  A    between atoms: O_2  and  C_3 
REMARK    2  A    between atoms: C_3  and  C_17 
REMARK    3  A    between atoms: C_4  and  C_5 
REMARK    4  A    between atoms: C_5  and  C_15 
REMARK    5  A    between atoms: C_5  and  N_7 
REMARK       I    between atoms: N_7  and  C_14 
REMARK    6  A    between atoms: N_10  and  C_17 
REMARK    7  A    between atoms: S_12  and  C_13 
REMARK    8  A    between atoms: C_13  and  C_15 
REMARK    9  A    between atoms: C_14  and  C_17 
ROOT
HETATM    1  N           1     -21.607  -9.836  -1.010  0.00  0.00    -0.345 N 
HETATM    2  H           1     -22.028 -10.077  -1.898  0.00  0.00     0.163 HD
HETATM    3  C           1     -21.390 -10.807  -0.069  0.00  0.00     0.251 C 
HETATM    4  O           1     -20.887 -10.519   0.991  0.00  0.00    -0.271 OA
ENDROOT
BRANCH   3   5
HETATM    5  C           1     -21.778 -12.236  -0.357  0.00  0.00     0.302 C 
BRANCH   5   6
HETATM    6  C           1     -23.234 -12.455   0.032  0.00  0.00     0.153 C 
HETATM    7  C           1     -23.299 -13.243   1.334  0.00  0.00     0.042 C 
BRANCH   6   8
HETATM    8  O           1     -23.864 -11.215   0.205  0.00  0.00    -0.393 OA
HETATM    9  H           1     -23.933 -10.821  -0.648  0.00  0.00     0.210 HD
ENDBRANCH   6   8
ENDBRANCH   5   6
BRANCH   5  10
HETATM   10  N           1     -20.905 -13.161   0.439  0.00  0.00    -0.064 N 
HETATM   11  H           1     -21.255 -13.211   1.423  0.00  0.00     0.275 HD
HETATM   12  H           1     -20.928 -14.115   0.012  0.00  0.00     0.275 HD
HETATM   13  H           1     -19.923 -12.801   0.436  0.00  0.00     0.275 HD
ENDBRANCH   5  10
ENDBRANCH   3   5
BRANCH   1  14
HETATM   14  C           1     -21.234  -8.463  -0.733  0.00  0.00     0.186 C 
BRANCH  14  15
HETATM   15  C           1     -22.469  -7.664  -0.398  0.00  0.00     0.196 C 
HETATM   16  O           1     -23.303  -8.114   0.419  0.00  0.00    -0.646 OA
HETATM   17  O           1     -22.661  -6.552  -0.938  0.00  0.00    -0.646 OA
ENDBRANCH  14  15
BRANCH  14  18
HETATM   18  C           1     -20.558  -7.864  -1.960  0.00  0.00     0.046 C 
BRANCH  18  19
HETATM   19  C           1     -20.852  -8.733  -3.177  0.00  0.00     0.076 C 
BRANCH  19  20
HETATM   20  S           1     -20.530  -7.783  -4.690  0.00  0.00    -0.173 SA
HETATM   21  C           1     -21.529  -6.338  -4.234  0.00  0.00     0.089 C 
ENDBRANCH  19  20
ENDBRANCH  18  19
ENDBRANCH  14  18
ENDBRANCH   1  14
TORSDOF 9
ENDMDL
MODEL 8
REMARK VINA RESULT:      -4.4      6.390      8.354
REMARK  9 active torsions:
REMARK  status: ('A' for Active; 'I' for Inactive)
REMARK    1  A    between atoms: O_2  and  C_3 
REMARK    2  A    between atoms: C_3  and  C_17 
REMARK    3  A    between atoms: C_4  and  C_5 
REMARK    4  A    between atoms: C_5  and  C_15 
REMARK    5  A    between atoms: C_5  and  N_7 
REMARK       I    between atoms: N_7  and  C_14 
REMARK    6  A    between atoms: N_10  and  C_17 
REMARK    7  A    between atoms: S_12  and  C_13 
REMARK    8  A    between atoms: C_13  and  C_15 
REMARK    9  A    between atoms: C_14  and  C_17 
ROOT
HETATM    1  N           1     -21.604  -8.538  -3.288  0.00  0.00    -0.345 N 
HETATM    2  H           1     -22.519  -8.875  -3.561  0.00  0.00     0.163 HD
HETATM    3  C           1     -21.216  -8.594  -1.977  0.00  0.00     0.251 C 
HETATM    4  O           1     -20.124  -8.192  -1.652  0.00  0.00    -0.271 OA
ENDROOT
BRANCH   3   5
HETATM    5  C           1     -22.152  -9.158  -0.936  0.00  0.00     0.302 C 
BRANCH   5   6
HETATM    6  C           1     -22.779  -8.018  -0.145  0.00  0.00     0.153 C 
HETATM    7  C           1     -22.070  -7.882   1.196  0.00  0.00     0.042 C 
BRANCH   6   8
HETATM    8  O           1     -22.649  -6.822  -0.864  0.00  0.00    -0.393 OA
HETATM    9  H           1     -21.731  -6.611  -0.882  0.00  0.00     0.210 HD
ENDBRANCH   6   8
ENDBRANCH   5   6
BRANCH   5  10
HETATM   10  N           1     -21.385 -10.050  -0.005  0.00  0.00    -0.064 N 
HETATM   11  H           1     -21.189 -10.961  -0.477  0.00  0.00     0.275 HD
HETATM   12  H           1     -20.483  -9.589   0.253  0.00  0.00     0.275 HD
HETATM   13  H           1     -21.950 -10.219   0.859  0.00  0.00     0.275 HD
ENDBRANCH   5  10
ENDBRANCH   3   5
BRANCH   1  14
HETATM   14  C           1     -20.704  -7.995  -4.288  0.00  0.00     0.186 C 
BRANCH  14  15
HETATM   15  C           1     -21.463  -7.053  -5.189  0.00  0.00     0.196 C 
HETATM   16  O           1     -22.344  -6.305  -4.712  0.00  0.00    -0.646 OA
HETATM   17  O           1     -21.211  -7.020  -6.413  0.00  0.00    -0.646 OA
ENDBRANCH  14  15
BRANCH  14  18
HETATM   18  C           1     -20.121  -9.133  -5.116  0.00  0.00     0.046 C 
BRANCH  18  19
HETATM   19  C           1     -18.611  -9.185  -4.918  0.00  0.00     0.076 C 
BRANCH  19  20
HETATM   20  S           1     -18.201 -10.491  -3.727  0.00  0.00    -0.173 SA
HETATM   21  C           1     -16.911  -9.562  -2.849  0.00  0.00     0.089 C 
ENDBRANCH  19  20
ENDBRANCH  18  19
ENDBRANCH  14  18
ENDBRANCH   1  14
TORSDOF 9
ENDMDL
MODEL 9
REMARK VINA RESULT:      -4.4      6.259      9.839
REMARK  9 active torsions:
REMARK  status: ('A' for Active; 'I' for Inactive)
REMARK    1  A    between atoms: O_2  and  C_3 
REMARK    2  A    between atoms: C_3  and  C_17 
REMARK    3  A    between atoms: C_4  and  C_5 
REMARK    4  A    between atoms: C_5  and  C_15 
REMARK    5  A    between atoms: C_5  and  N_7 
REMARK       I    between atoms: N_7  and  C_14 
REMARK    6  A    between atoms: N_10  and  C_17 
REMARK    7  A    between atoms: S_12  and  C_13 
REMARK    8  A    between atoms: C_13  and  C_15 
REMARK    9  A    between atoms: C_14  and  C_17 
ROOT
HETATM    1  N           1     -20.973  -8.253  -1.984  0.00  0.00    -0.345 N 
HETATM    2  H           1     -20.228  -7.617  -1.727  0.00  0.00     0.163 HD
HETATM    3  C           1     -21.200  -8.545  -3.302  0.00  0.00     0.251 C 
HETATM    4  O           1     -22.088  -9.304  -3.608  0.00  0.00    -0.271 OA
ENDROOT
BRANCH   3   5
HETATM    5  C           1     -20.340  -7.919  -4.372  0.00  0.00     0.302 C 
BRANCH   5   6
HETATM    6  C           1     -20.848  -6.516  -4.676  0.00  0.00     0.153 C 
HETATM    7  C           1     -21.236  -6.424  -6.146  0.00  0.00     0.042 C 
BRANCH   6   8
HETATM    8  O           1     -21.969  -6.241  -3.880  0.00  0.00    -0.393 OA
HETATM    9  H           1     -21.657  -6.118  -3.000  0.00  0.00     0.210 HD
ENDBRANCH   6   8
ENDBRANCH   5   6
BRANCH   5  10
HETATM   10  N           1     -20.405  -8.754  -5.617  0.00  0.00    -0.064 N 
HETATM   11  H           1     -20.168  -9.745  -5.385  0.00  0.00     0.275 HD
HETATM   12  H           1     -21.371  -8.710  -6.015  0.00  0.00     0.275 HD
HETATM   13  H           1     -19.722  -8.387  -6.318  0.00  0.00     0.275 HD
ENDBRANCH   5  10
ENDBRANCH   3   5
BRANCH   1  14
HETATM   14  C           1     -21.800  -8.855  -0.956  0.00  0.00     0.186 C 
BRANCH  14  15
HETATM   15  C           1     -22.681  -7.798  -0.337  0.00  0.00     0.196 C 
HETATM   16  O           1     -22.745  -6.659  -0.849  0.00  0.00    -0.646 OA
HETATM   17  O           1     -23.347  -8.061   0.688  0.00  0.00    -0.646 OA
ENDBRANCH  14  15
BRANCH  14  18
HETATM   18  C           1     -20.908  -9.466   0.118  0.00  0.00     0.046 C 
BRANCH  18  19
HETATM   19  C           1     -21.101 -10.978   0.138  0.00  0.00     0.076 C 
BRANCH  19  20
HETATM   20  S           1     -22.586 -11.412  -0.809  0.00  0.00    -0.173 SA
HETATM   21  C           1     -23.364 -12.414   0.489  0.00  0.00     0.089 C 
ENDBRANCH  19  20
ENDBRANCH  18  19
ENDBRANCH  14  18
ENDBRANCH   1  14
TORSDOF 9
ENDMDL
