MODEL 1
REMARK VINA RESULT:      -6.7      0.000      0.000
REMARK  7 active torsions:
REMARK  status: ('A' for Active; 'I' for Inactive)
REMARK       I    between atoms: N_4  and  C_5 
REMARK       I    between atoms: C_5  and  N_6 
REMARK    1  A    between atoms: N_7  and  C_8 
REMARK    2  A    between atoms: C_8  and  C_9 
REMARK    3  A    between atoms: C_9  and  C_10 
REMARK    4  A    between atoms: C_10  and  C_11 
REMARK    5  A    between atoms: C_11  and  C_12 
REMARK    6  A    between atoms: C_11  and  N_15 
REMARK       I    between atoms: N_15  and  C_16 
REMARK    7  A    between atoms: C_16  and  C_17 
ROOT
HETATM    1  C           1     -35.202  -0.838 -11.735  0.00  0.00     0.185 C 
ENDROOT
BRANCH   1   2
HETATM    2  C           1     -35.976   0.128 -12.623  0.00  0.00     0.038 C 
BRANCH   2   3
HETATM    3  C           1     -35.012   0.838 -13.564  0.00  0.00     0.023 C 
BRANCH   3   4
HETATM    4  C           1     -35.451   0.612 -15.005  0.00  0.00     0.138 C 
BRANCH   4   5
HETATM    5  N           1     -34.871  -0.643 -15.503  0.00  0.00    -0.227 N 
HETATM    6  C           1     -35.387  -1.226 -16.501  0.00  0.00     0.665 C 
HETATM    7  N           1     -34.874  -2.336 -16.942  0.00  0.00    -0.235 N 
HETATM    8  N           1     -36.402  -0.728 -17.071  0.00  0.00    -0.235 N 
HETATM    9  H           1     -34.035  -2.748 -16.473  0.00  0.00     0.174 HD
HETATM   10  H           1     -35.299  -2.818 -17.766  0.00  0.00     0.174 HD
HETATM   11  H           1     -36.817   0.168 -16.714  0.00  0.00     0.174 HD
HETATM   12  H           1     -36.830  -1.212 -17.898  0.00  0.00     0.174 HD
HETATM   13  H           1     -34.029  -1.056 -15.031  0.00  0.00     0.177 HD
ENDBRANCH   4   5
ENDBRANCH   3   4
ENDBRANCH   2   3
ENDBRANCH   1   2
BRANCH   1  14
HETATM   14  C           1     -36.092  -1.315 -10.614  0.00  0.00     0.196 C 
HETATM   15  O           1     -36.858  -2.288 -10.794  0.00  0.00    -0.646 OA
HETATM   16  O           1     -36.065  -0.739  -9.505  0.00  0.00    -0.646 OA
ENDBRANCH   1  14
BRANCH   1  17
HETATM   17  N           1     -34.767  -1.974 -12.523  0.00  0.00    -0.345 N 
HETATM   18  C           1     -33.757  -2.777 -12.066  0.00  0.00     0.249 C 
HETATM   19  O           1     -33.229  -2.540 -11.006  0.00  0.00    -0.271 OA
HETATM   20  H           1     -35.210  -2.173 -13.411  0.00  0.00     0.163 HD
BRANCH  18  21
HETATM   21  C           1     -33.304  -3.961 -12.887  0.00  0.00     0.274 C 
HETATM   22  C           1     -34.502  -4.847 -13.204  0.00  0.00     0.042 C 
HETATM   23  C           1     -35.129  -5.339 -11.907  0.00  0.00     0.003 C 
HETATM   24 Se           1     -33.814  -6.364 -10.896  0.00  0.00     0.000 Se
HETATM   25  C           1     -35.016  -6.754  -9.413  0.00  0.00     0.000 C 
HETATM   26  H           1     -32.723  -5.086 -11.218  0.00  0.00     0.275 HD
HETATM   27  N           1     -32.292  -4.749 -12.108  0.00  0.00    -0.067 N 
HETATM   28  H           1     -31.978  -5.569 -12.675  0.00  0.00     0.275 HD
HETATM   29  H           1     -31.471  -4.141 -11.890  0.00  0.00     0.275 HD
ENDBRANCH  18  21
ENDBRANCH   1  17
TORSDOF 7
ENDMDL
MODEL 2
REMARK VINA RESULT:      -6.3     14.302     16.492
REMARK  7 active torsions:
REMARK  status: ('A' for Active; 'I' for Inactive)
REMARK       I    between atoms: N_4  and  C_5 
REMARK       I    between atoms: C_5  and  N_6 
REMARK    1  A    between atoms: N_7  and  C_8 
REMARK    2  A    between atoms: C_8  and  C_9 
REMARK    3  A    between atoms: C_9  and  C_10 
REMARK    4  A    between atoms: C_10  and  C_11 
REMARK    5  A    between atoms: C_11  and  C_12 
REMARK    6  A    between atoms: C_11  and  N_15 
REMARK       I    between atoms: N_15  and  C_16 
REMARK    7  A    between atoms: C_16  and  C_17 
ROOT
HETATM    1  C           1     -20.492  -6.810  -5.380  0.00  0.00     0.185 C 
ENDROOT
BRANCH   1   2
HETATM    2  C           1     -20.300  -6.152  -6.741  0.00  0.00     0.038 C 
BRANCH   2   3
HETATM    3  C           1     -19.902  -4.695  -6.550  0.00  0.00     0.023 C 
BRANCH   3   4
HETATM    4  C           1     -20.529  -3.849  -7.651  0.00  0.00     0.138 C 
BRANCH   4   5
HETATM    5  N           1     -21.981  -3.768  -7.439  0.00  0.00    -0.227 N 
HETATM    6  C           1     -22.776  -4.090  -8.369  0.00  0.00     0.665 C 
HETATM    7  N           1     -24.060  -4.018  -8.182  0.00  0.00    -0.235 N 
HETATM    8  N           1     -22.320  -4.484  -9.484  0.00  0.00    -0.235 N 
HETATM    9  H           1     -24.437  -3.693  -7.263  0.00  0.00     0.174 HD
HETATM   10  H           1     -24.717  -4.285  -8.950  0.00  0.00     0.174 HD
HETATM   11  H           1     -21.282  -4.542  -9.635  0.00  0.00     0.174 HD
HETATM   12  H           1     -22.979  -4.752 -10.255  0.00  0.00     0.174 HD
HETATM   13  H           1     -22.359  -3.441  -6.516  0.00  0.00     0.177 HD
ENDBRANCH   4   5
ENDBRANCH   3   4
ENDBRANCH   2   3
ENDBRANCH   1   2
BRANCH   1  14
HETATM   14  C           1     -21.702  -6.218  -4.701  0.00  0.00     0.196 C 
HETATM   15  O           1     -21.668  -5.956  -3.479  0.00  0.00    -0.646 OA
HETATM   16  O           1     -22.739  -5.990  -5.360  0.00  0.00    -0.646 OA
ENDBRANCH   1  14
BRANCH   1  17
HETATM   17  N           1     -20.685  -8.235  -5.556  0.00  0.00    -0.345 N 
HETATM   18  C           1     -20.041  -9.120  -4.733  0.00  0.00     0.249 C 
HETATM   19  O           1     -19.312  -8.712  -3.860  0.00  0.00    -0.271 OA
HETATM   20  H           1     -21.296  -8.577  -6.287  0.00  0.00     0.163 HD
BRANCH  18  21
HETATM   21  C           1     -20.242 -10.605  -4.916  0.00  0.00     0.274 C 
HETATM   22  C           1     -21.704 -10.953  -4.668  0.00  0.00     0.042 C 
HETATM   23  C           1     -22.087 -10.560  -3.248  0.00  0.00     0.003 C 
HETATM   24 Se           1     -20.965 -11.528  -1.980  0.00  0.00     0.000 Se
HETATM   25  C           1     -21.785 -10.736  -0.400  0.00  0.00     0.000 C 
HETATM   26  H           1     -19.642 -11.078  -2.966  0.00  0.00     0.275 HD
HETATM   27  N           1     -19.379 -11.349  -3.940  0.00  0.00    -0.067 N 
HETATM   28  H           1     -19.517 -12.377  -4.065  0.00  0.00     0.275 HD
HETATM   29  H           1     -18.375 -11.109  -4.110  0.00  0.00     0.275 HD
ENDBRANCH  18  21
ENDBRANCH   1  17
TORSDOF 7
ENDMDL
MODEL 3
REMARK VINA RESULT:      -6.2      2.723      6.325
REMARK  7 active torsions:
REMARK  status: ('A' for Active; 'I' for Inactive)
REMARK       I    between atoms: N_4  and  C_5 
REMARK       I    between atoms: C_5  and  N_6 
REMARK    1  A    between atoms: N_7  and  C_8 
REMARK    2  A    between atoms: C_8  and  C_9 
REMARK    3  A    between atoms: C_9  and  C_10 
REMARK    4  A    between atoms: C_10  and  C_11 
REMARK    5  A    between atoms: C_11  and  C_12 
REMARK    6  A    between atoms: C_11  and  N_15 
REMARK       I    between atoms: N_15  and  C_16 
REMARK    7  A    between atoms: C_16  and  C_17 
ROOT
HETATM    1  C           1     -34.654  -2.810 -11.865  0.00  0.00     0.185 C 
ENDROOT
BRANCH   1   2
HETATM    2  C           1     -34.262  -3.881 -12.874  0.00  0.00     0.038 C 
BRANCH   2   3
HETATM    3  C           1     -34.908  -5.204 -12.489  0.00  0.00     0.023 C 
BRANCH   3   4
HETATM    4  C           1     -34.518  -5.563 -11.061  0.00  0.00     0.138 C 
BRANCH   4   5
HETATM    5  N           1     -33.816  -6.854 -11.054  0.00  0.00    -0.227 N 
HETATM    6  C           1     -34.203  -7.781 -10.284  0.00  0.00     0.665 C 
HETATM    7  N           1     -33.581  -8.923 -10.278  0.00  0.00    -0.235 N 
HETATM    8  N           1     -35.195  -7.596  -9.519  0.00  0.00    -0.235 N 
HETATM    9  H           1     -32.762  -9.076 -10.909  0.00  0.00     0.174 HD
HETATM   10  H           1     -33.901  -9.689  -9.642  0.00  0.00     0.174 HD
HETATM   11  H           1     -35.697  -6.674  -9.524  0.00  0.00     0.174 HD
HETATM   12  H           1     -35.516  -8.365  -8.880  0.00  0.00     0.174 HD
HETATM   13  H           1     -32.993  -7.008 -11.688  0.00  0.00     0.177 HD
ENDBRANCH   4   5
ENDBRANCH   3   4
ENDBRANCH   2   3
ENDBRANCH   1   2
BRANCH   1  14
HETATM   14  C           1     -33.491  -2.536 -10.944  0.00  0.00     0.196 C 
HETATM   15  O           1     -32.371  -3.039 -11.183  0.00  0.00    -0.646 OA
HETATM   16  O           1     -33.645  -1.804  -9.942  0.00  0.00    -0.646 OA
ENDBRANCH   1  14
BRANCH   1  17
HETATM   17  N           1     -35.011  -1.593 -12.567  0.00  0.00    -0.345 N 
HETATM   18  C           1     -36.194  -0.963 -12.286  0.00  0.00     0.249 C 
HETATM   19  O           1     -36.940  -1.421 -11.454  0.00  0.00    -0.271 OA
HETATM   20  H           1     -34.386  -1.209 -13.264  0.00  0.00     0.163 HD
BRANCH  18  21
HETATM   21  C           1     -36.566   0.304 -13.016  0.00  0.00     0.274 C 
HETATM   22  C           1     -37.632  -0.005 -14.060  0.00  0.00     0.042 C 
HETATM   23  C           1     -37.090  -1.023 -15.054  0.00  0.00     0.003 C 
HETATM   24 Se           1     -35.511  -0.295 -15.936  0.00  0.00     0.000 Se
HETATM   25  C           1     -35.203  -1.868 -17.044  0.00  0.00     0.000 C 
HETATM   26  H           1     -34.979   0.165 -14.376  0.00  0.00     0.275 HD
HETATM   27  N           1     -35.351   0.864 -13.695  0.00  0.00    -0.067 N 
HETATM   28  H           1     -35.607   1.742 -14.201  0.00  0.00     0.275 HD
HETATM   29  H           1     -34.619   1.076 -12.979  0.00  0.00     0.275 HD
ENDBRANCH  18  21
ENDBRANCH   1  17
TORSDOF 7
ENDMDL
MODEL 4
REMARK VINA RESULT:      -6.1     14.511     16.670
REMARK  7 active torsions:
REMARK  status: ('A' for Active; 'I' for Inactive)
REMARK       I    between atoms: N_4  and  C_5 
REMARK       I    between atoms: C_5  and  N_6 
REMARK    1  A    between atoms: N_7  and  C_8 
REMARK    2  A    between atoms: C_8  and  C_9 
REMARK    3  A    between atoms: C_9  and  C_10 
REMARK    4  A    between atoms: C_10  and  C_11 
REMARK    5  A    between atoms: C_11  and  C_12 
REMARK    6  A    between atoms: C_11  and  N_15 
REMARK       I    between atoms: N_15  and  C_16 
REMARK    7  A    between atoms: C_16  and  C_17 
ROOT
HETATM    1  C           1     -20.672  -6.861  -5.334  0.00  0.00     0.185 C 
ENDROOT
BRANCH   1   2
HETATM    2  C           1     -20.366  -6.149  -6.645  0.00  0.00     0.038 C 
BRANCH   2   3
HETATM    3  C           1     -20.011  -4.695  -6.365  0.00  0.00     0.023 C 
BRANCH   3   4
HETATM    4  C           1     -20.542  -3.817  -7.489  0.00  0.00     0.138 C 
BRANCH   4   5
HETATM    5  N           1     -22.006  -3.724  -7.389  0.00  0.00    -0.227 N 
HETATM    6  C           1     -22.728  -4.017  -8.387  0.00  0.00     0.665 C 
HETATM    7  N           1     -24.022  -3.935  -8.299  0.00  0.00    -0.235 N 
HETATM    8  N           1     -22.190  -4.389  -9.471  0.00  0.00    -0.235 N 
HETATM    9  H           1     -24.467  -3.628  -7.404  0.00  0.00     0.174 HD
HETATM   10  H           1     -24.619  -4.176  -9.122  0.00  0.00     0.174 HD
HETATM   11  H           1     -21.144  -4.455  -9.542  0.00  0.00     0.174 HD
HETATM   12  H           1     -22.789  -4.631 -10.298  0.00  0.00     0.174 HD
HETATM   13  H           1     -22.452  -3.416  -6.491  0.00  0.00     0.177 HD
ENDBRANCH   4   5
ENDBRANCH   3   4
ENDBRANCH   2   3
ENDBRANCH   1   2
BRANCH   1  14
HETATM   14  C           1     -21.890  -6.241  -4.696  0.00  0.00     0.196 C 
HETATM   15  O           1     -22.907  -6.008  -5.386  0.00  0.00    -0.646 OA
HETATM   16  O           1     -21.885  -5.962  -3.478  0.00  0.00    -0.646 OA
ENDBRANCH   1  14
BRANCH   1  17
HETATM   17  N           1     -20.924  -8.265  -5.594  0.00  0.00    -0.345 N 
HETATM   18  C           1     -20.734  -9.189  -4.602  0.00  0.00     0.249 C 
HETATM   19  O           1     -20.357  -8.836  -3.510  0.00  0.00    -0.271 OA
HETATM   20  H           1     -21.240  -8.561  -6.508  0.00  0.00     0.163 HD
BRANCH  18  21
HETATM   21  C           1     -20.998 -10.651  -4.873  0.00  0.00     0.274 C 
HETATM   22  C           1     -20.078 -11.501  -4.007  0.00  0.00     0.042 C 
HETATM   23  C           1     -18.627 -11.178  -4.335  0.00  0.00     0.003 C 
HETATM   24 Se           1     -18.284 -11.562  -6.216  0.00  0.00     0.000 Se
HETATM   25  C           1     -16.413 -11.021  -6.155  0.00  0.00     0.000 C 
HETATM   26  H           1     -19.738 -10.723  -6.545  0.00  0.00     0.275 HD
HETATM   27  N           1     -20.734 -10.946  -6.320  0.00  0.00    -0.067 N 
HETATM   28  H           1     -20.916 -11.957  -6.509  0.00  0.00     0.275 HD
HETATM   29  H           1     -21.365 -10.361  -6.914  0.00  0.00     0.275 HD
ENDBRANCH  18  21
ENDBRANCH   1  17
TORSDOF 7
ENDMDL
MODEL 5
REMARK VINA RESULT:      -6.1      1.757      2.449
REMARK  7 active torsions:
REMARK  status: ('A' for Active; 'I' for Inactive)
REMARK       I    between atoms: N_4  and  C_5 
REMARK       I    between atoms: C_5  and  N_6 
REMARK    1  A    between atoms: N_7  and  C_8 
REMARK    2  A    between atoms: C_8  and  C_9 
REMARK    3  A    between atoms: C_9  and  C_10 
REMARK    4  A    between atoms: C_10  and  C_11 
REMARK    5  A    between atoms: C_11  and  C_12 
REMARK    6  A    between atoms: C_11  and  N_15 
REMARK       I    between atoms: N_15  and  C_16 
REMARK    7  A    between atoms: C_16  and  C_17 
ROOT
HETATM    1  C           1     -35.787  -0.449 -11.180  0.00  0.00     0.185 C 
ENDROOT
BRANCH   1   2
HETATM    2  C           1     -36.042  -0.083 -12.637  0.00  0.00     0.038 C 
BRANCH   2   3
HETATM    3  C           1     -34.779   0.519 -13.239  0.00  0.00     0.023 C 
BRANCH   3   4
HETATM    4  C           1     -35.102   1.120 -14.600  0.00  0.00     0.138 C 
BRANCH   4   5
HETATM    5  N           1     -35.154   0.051 -15.608  0.00  0.00    -0.227 N 
HETATM    6  C           1     -36.221  -0.153 -16.258  0.00  0.00     0.665 C 
HETATM    7  N           1     -36.267  -1.099 -17.150  0.00  0.00    -0.235 N 
HETATM    8  N           1     -37.242   0.563 -16.042  0.00  0.00    -0.235 N 
HETATM    9  H           1     -35.425  -1.691 -17.329  0.00  0.00     0.174 HD
HETATM   10  H           1     -37.148  -1.268 -17.687  0.00  0.00     0.174 HD
HETATM   11  H           1     -37.205   1.327 -15.322  0.00  0.00     0.174 HD
HETATM   12  H           1     -38.126   0.394 -16.581  0.00  0.00     0.174 HD
HETATM   13  H           1     -34.308  -0.543 -15.788  0.00  0.00     0.177 HD
ENDBRANCH   4   5
ENDBRANCH   3   4
ENDBRANCH   2   3
ENDBRANCH   1   2
BRANCH   1  14
HETATM   14  C           1     -36.959  -0.009 -10.338  0.00  0.00     0.196 C 
HETATM   15  O           1     -36.827   0.930  -9.523  0.00  0.00    -0.646 OA
HETATM   16  O           1     -38.063  -0.583 -10.455  0.00  0.00    -0.646 OA
ENDBRANCH   1  14
BRANCH   1  17
HETATM   17  N           1     -35.621  -1.884 -11.066  0.00  0.00    -0.345 N 
HETATM   18  C           1     -34.433  -2.402 -10.626  0.00  0.00     0.249 C 
HETATM   19  O           1     -33.522  -1.664 -10.334  0.00  0.00    -0.271 OA
HETATM   20  H           1     -36.384  -2.503 -11.310  0.00  0.00     0.163 HD
BRANCH  18  21
HETATM   21  C           1     -34.260  -3.897 -10.506  0.00  0.00     0.274 C 
HETATM   22  C           1     -32.982  -4.320 -11.218  0.00  0.00     0.042 C 
HETATM   23  C           1     -33.068  -3.936 -12.689  0.00  0.00     0.003 C 
HETATM   24 Se           1     -34.592  -4.833 -13.507  0.00  0.00     0.000 Se
HETATM   25  C           1     -34.299  -4.073 -15.277  0.00  0.00     0.000 C 
HETATM   26  H           1     -35.493  -4.323 -12.145  0.00  0.00     0.275 HD
HETATM   27  N           1     -35.434  -4.588 -11.136  0.00  0.00    -0.067 N 
HETATM   28  H           1     -35.315  -5.623 -11.054  0.00  0.00     0.275 HD
HETATM   29  H           1     -36.311  -4.297 -10.648  0.00  0.00     0.275 HD
ENDBRANCH  18  21
ENDBRANCH   1  17
TORSDOF 7
ENDMDL
MODEL 6
REMARK VINA RESULT:      -6.1      2.860      5.064
REMARK  7 active torsions:
REMARK  status: ('A' for Active; 'I' for Inactive)
REMARK       I    between atoms: N_4  and  C_5 
REMARK       I    between atoms: C_5  and  N_6 
REMARK    1  A    between atoms: N_7  and  C_8 
REMARK    2  A    between atoms: C_8  and  C_9 
REMARK    3  A    between atoms: C_9  and  C_10 
REMARK    4  A    between atoms: C_10  and  C_11 
REMARK    5  A    between atoms: C_11  and  C_12 
REMARK    6  A    between atoms: C_11  and  N_15 
REMARK       I    between atoms: N_15  and  C_16 
REMARK    7  A    between atoms: C_16  and  C_17 
ROOT
HETATM    1  C           1     -34.625  -3.915 -12.375  0.00  0.00     0.185 C 
ENDROOT
BRANCH   1   2
HETATM    2  C           1     -34.345  -4.404 -13.790  0.00  0.00     0.038 C 
BRANCH   2   3
HETATM    3  C           1     -34.386  -3.225 -14.754  0.00  0.00     0.023 C 
BRANCH   3   4
HETATM    4  C           1     -34.252  -3.733 -16.183  0.00  0.00     0.138 C 
BRANCH   4   5
HETATM    5  N           1     -33.202  -4.761 -16.242  0.00  0.00    -0.227 N 
HETATM    6  C           1     -32.105  -4.513 -16.823  0.00  0.00     0.665 C 
HETATM    7  N           1     -31.177  -5.422 -16.875  0.00  0.00    -0.235 N 
HETATM    8  N           1     -31.912  -3.380 -17.354  0.00  0.00    -0.235 N 
HETATM    9  H           1     -31.336  -6.357 -16.436  0.00  0.00     0.174 HD
HETATM   10  H           1     -30.271  -5.217 -17.354  0.00  0.00     0.174 HD
HETATM   11  H           1     -32.662  -2.646 -17.313  0.00  0.00     0.174 HD
HETATM   12  H           1     -31.003  -3.174 -17.836  0.00  0.00     0.174 HD
HETATM   13  H           1     -33.362  -5.700 -15.801  0.00  0.00     0.177 HD
ENDBRANCH   4   5
ENDBRANCH   3   4
ENDBRANCH   2   3
ENDBRANCH   1   2
BRANCH   1  14
HETATM   14  C           1     -33.492  -4.326 -11.467  0.00  0.00     0.196 C 
HETATM   15  O           1     -32.312  -4.270 -11.875  0.00  0.00    -0.646 OA
HETATM   16  O           1     -33.734  -4.723 -10.307  0.00  0.00    -0.646 OA
ENDBRANCH   1  14
BRANCH   1  17
HETATM   17  N           1     -34.740  -2.470 -12.379  0.00  0.00    -0.345 N 
HETATM   18  C           1     -35.697  -1.858 -11.614  0.00  0.00     0.249 C 
HETATM   19  O           1     -36.445  -2.522 -10.936  0.00  0.00    -0.271 OA
HETATM   20  H           1     -34.114  -1.913 -12.946  0.00  0.00     0.163 HD
BRANCH  18  21
HETATM   21  C           1     -35.817  -0.353 -11.616  0.00  0.00     0.274 C 
HETATM   22  C           1     -37.174   0.047 -12.182  0.00  0.00     0.042 C 
HETATM   23  C           1     -37.305  -0.475 -13.606  0.00  0.00     0.003 C 
HETATM   24 Se           1     -35.892   0.287 -14.711  0.00  0.00     0.000 Se
HETATM   25  C           1     -36.450  -0.624 -16.341  0.00  0.00     0.000 C 
HETATM   26  H           1     -34.820  -0.126 -13.444  0.00  0.00     0.275 HD
HETATM   27  N           1     -34.729   0.232 -12.467  0.00  0.00    -0.067 N 
HETATM   28  H           1     -34.811   1.274 -12.470  0.00  0.00     0.275 HD
HETATM   29  H           1     -33.798  -0.043 -12.079  0.00  0.00     0.275 HD
ENDBRANCH  18  21
ENDBRANCH   1  17
TORSDOF 7
ENDMDL
MODEL 7
REMARK VINA RESULT:      -5.7      3.139      4.574
REMARK  7 active torsions:
REMARK  status: ('A' for Active; 'I' for Inactive)
REMARK       I    between atoms: N_4  and  C_5 
REMARK       I    between atoms: C_5  and  N_6 
REMARK    1  A    between atoms: N_7  and  C_8 
REMARK    2  A    between atoms: C_8  and  C_9 
REMARK    3  A    between atoms: C_9  and  C_10 
REMARK    4  A    between atoms: C_10  and  C_11 
REMARK    5  A    between atoms: C_11  and  C_12 
REMARK    6  A    between atoms: C_11  and  N_15 
REMARK       I    between atoms: N_15  and  C_16 
REMARK    7  A    between atoms: C_16  and  C_17 
ROOT
HETATM    1  C           1     -35.793  -0.349 -14.964  0.00  0.00     0.185 C 
ENDROOT
BRANCH   1   2
HETATM    2  C           1     -35.306  -0.902 -16.297  0.00  0.00     0.038 C 
BRANCH   2   3
HETATM    3  C           1     -35.054  -2.398 -16.165  0.00  0.00     0.023 C 
BRANCH   3   4
HETATM    4  C           1     -34.051  -2.839 -17.223  0.00  0.00     0.138 C 
BRANCH   4   5
HETATM    5  N           1     -33.325  -4.024 -16.747  0.00  0.00    -0.227 N 
HETATM    6  C           1     -32.084  -4.137 -16.968  0.00  0.00     0.665 C 
HETATM    7  N           1     -31.441  -5.186 -16.547  0.00  0.00    -0.235 N 
HETATM    8  N           1     -31.467  -3.229 -17.600  0.00  0.00    -0.235 N 
HETATM    9  H           1     -31.949  -5.936 -16.025  0.00  0.00     0.174 HD
HETATM   10  H           1     -30.416  -5.279 -16.729  0.00  0.00     0.174 HD
HETATM   11  H           1     -31.987  -2.382 -17.940  0.00  0.00     0.174 HD
HETATM   12  H           1     -30.438  -3.322 -17.783  0.00  0.00     0.174 HD
HETATM   13  H           1     -33.835  -4.778 -16.223  0.00  0.00     0.177 HD
ENDBRANCH   4   5
ENDBRANCH   3   4
ENDBRANCH   2   3
ENDBRANCH   1   2
BRANCH   1  14
HETATM   14  C           1     -37.267  -0.041 -15.054  0.00  0.00     0.196 C 
HETATM   15  O           1     -37.682   0.792 -15.890  0.00  0.00    -0.646 OA
HETATM   16  O           1     -38.074  -0.619 -14.295  0.00  0.00    -0.646 OA
ENDBRANCH   1  14
BRANCH   1  17
HETATM   17  N           1     -35.567  -1.331 -13.922  0.00  0.00    -0.345 N 
HETATM   18  C           1     -35.002  -0.951 -12.735  0.00  0.00     0.249 C 
HETATM   19  O           1     -34.690   0.202 -12.555  0.00  0.00    -0.271 OA
HETATM   20  H           1     -35.828  -2.297 -14.073  0.00  0.00     0.163 HD
BRANCH  18  21
HETATM   21  C           1     -34.767  -1.974 -11.650  0.00  0.00     0.274 C 
HETATM   22  C           1     -36.107  -2.471 -11.122  0.00  0.00     0.042 C 
HETATM   23  C           1     -36.896  -1.299 -10.553  0.00  0.00     0.003 C 
HETATM   24 Se           1     -35.888  -0.482  -9.098  0.00  0.00     0.000 Se
HETATM   25  C           1     -37.227   0.883  -8.720  0.00  0.00     0.000 C 
HETATM   26  H           1     -34.533  -0.541 -10.140  0.00  0.00     0.275 HD
HETATM   27  N           1     -33.992  -1.345 -10.530  0.00  0.00    -0.067 N 
HETATM   28  H           1     -33.829  -2.052  -9.778  0.00  0.00     0.275 HD
HETATM   29  H           1     -33.073  -1.003 -10.892  0.00  0.00     0.275 HD
ENDBRANCH  18  21
ENDBRANCH   1  17
TORSDOF 7
ENDMDL
MODEL 8
REMARK VINA RESULT:      -5.7     14.591     17.695
REMARK  7 active torsions:
REMARK  status: ('A' for Active; 'I' for Inactive)
REMARK       I    between atoms: N_4  and  C_5 
REMARK       I    between atoms: C_5  and  N_6 
REMARK    1  A    between atoms: N_7  and  C_8 
REMARK    2  A    between atoms: C_8  and  C_9 
REMARK    3  A    between atoms: C_9  and  C_10 
REMARK    4  A    between atoms: C_10  and  C_11 
REMARK    5  A    between atoms: C_11  and  C_12 
REMARK    6  A    between atoms: C_11  and  N_15 
REMARK       I    between atoms: N_15  and  C_16 
REMARK    7  A    between atoms: C_16  and  C_17 
ROOT
HETATM    1  C           1     -21.291  -7.003  -4.455  0.00  0.00     0.185 C 
ENDROOT
BRANCH   1   2
HETATM    2  C           1     -20.250  -8.112  -4.527  0.00  0.00     0.038 C 
BRANCH   2   3
HETATM    3  C           1     -20.926  -9.420  -4.915  0.00  0.00     0.023 C 
BRANCH   3   4
HETATM    4  C           1     -20.533 -10.509  -3.925  0.00  0.00     0.138 C 
BRANCH   4   5
HETATM    5  N           1     -21.027 -10.156  -2.587  0.00  0.00    -0.227 N 
HETATM    6  C           1     -20.286 -10.322  -1.574  0.00  0.00     0.665 C 
HETATM    7  N           1     -20.723 -10.010  -0.390  0.00  0.00    -0.235 N 
HETATM    8  N           1     -19.118 -10.791  -1.714  0.00  0.00    -0.235 N 
HETATM    9  H           1     -21.687  -9.623  -0.274  0.00  0.00     0.174 HD
HETATM   10  H           1     -20.111 -10.147   0.446  0.00  0.00     0.174 HD
HETATM   11  H           1     -18.765 -11.043  -2.671  0.00  0.00     0.174 HD
HETATM   12  H           1     -18.503 -10.928  -0.875  0.00  0.00     0.174 HD
HETATM   13  H           1     -21.995  -9.767  -2.470  0.00  0.00     0.177 HD
ENDBRANCH   4   5
ENDBRANCH   3   4
ENDBRANCH   2   3
ENDBRANCH   1   2
BRANCH   1  14
HETATM   14  C           1     -21.592  -6.687  -3.011  0.00  0.00     0.196 C 
HETATM   15  O           1     -22.567  -5.959  -2.720  0.00  0.00    -0.646 OA
HETATM   16  O           1     -20.869  -7.154  -2.104  0.00  0.00    -0.646 OA
ENDBRANCH   1  14
BRANCH   1  17
HETATM   17  N           1     -20.777  -5.816  -5.111  0.00  0.00    -0.345 N 
HETATM   18  C           1     -20.734  -5.756  -6.478  0.00  0.00     0.249 C 
HETATM   19  O           1     -21.123  -6.690  -7.138  0.00  0.00    -0.271 OA
HETATM   20  H           1     -20.452  -5.034  -4.559  0.00  0.00     0.163 HD
BRANCH  18  21
HETATM   21  C           1     -20.200  -4.521  -7.162  0.00  0.00     0.274 C 
HETATM   22  C           1     -21.270  -3.437  -7.160  0.00  0.00     0.042 C 
HETATM   23  C           1     -22.501  -3.936  -7.904  0.00  0.00     0.003 C 
HETATM   24 Se           1     -22.020  -4.369  -9.743  0.00  0.00     0.000 Se
HETATM   25  C           1     -23.815  -4.928 -10.254  0.00  0.00     0.000 C 
HETATM   26  H           1     -20.675  -5.197  -9.087  0.00  0.00     0.275 HD
HETATM   27  N           1     -19.830  -4.854  -8.578  0.00  0.00    -0.067 N 
HETATM   28  H           1     -19.460  -4.000  -9.052  0.00  0.00     0.275 HD
HETATM   29  H           1     -19.096  -5.599  -8.579  0.00  0.00     0.275 HD
ENDBRANCH  18  21
ENDBRANCH   1  17
TORSDOF 7
ENDMDL
MODEL 9
REMARK VINA RESULT:      -5.6     16.773     18.237
REMARK  7 active torsions:
REMARK  status: ('A' for Active; 'I' for Inactive)
REMARK       I    between atoms: N_4  and  C_5 
REMARK       I    between atoms: C_5  and  N_6 
REMARK    1  A    between atoms: N_7  and  C_8 
REMARK    2  A    between atoms: C_8  and  C_9 
REMARK    3  A    between atoms: C_9  and  C_10 
REMARK    4  A    between atoms: C_10  and  C_11 
REMARK    5  A    between atoms: C_11  and  C_12 
REMARK    6  A    between atoms: C_11  and  N_15 
REMARK       I    between atoms: N_15  and  C_16 
REMARK    7  A    between atoms: C_16  and  C_17 
ROOT
HETATM    1  C           1     -21.279  -8.075  -1.507  0.00  0.00     0.185 C 
ENDROOT
BRANCH   1   2
HETATM    2  C           1     -20.582  -8.051  -2.861  0.00  0.00     0.038 C 
BRANCH   2   3
HETATM    3  C           1     -21.418  -8.816  -3.878  0.00  0.00     0.023 C 
BRANCH   3   4
HETATM    4  C           1     -21.384  -8.086  -5.214  0.00  0.00     0.138 C 
BRANCH   4   5
HETATM    5  N           1     -21.146  -6.654  -4.985  0.00  0.00    -0.227 N 
HETATM    6  C           1     -20.428  -5.994  -5.793  0.00  0.00     0.665 C 
HETATM    7  N           1     -20.217  -4.728  -5.590  0.00  0.00    -0.235 N 
HETATM    8  N           1     -19.916  -6.569  -6.799  0.00  0.00    -0.235 N 
HETATM    9  H           1     -20.640  -4.253  -4.761  0.00  0.00     0.174 HD
HETATM   10  H           1     -19.625  -4.183  -6.257  0.00  0.00     0.174 HD
HETATM   11  H           1     -20.086  -7.592  -6.962  0.00  0.00     0.174 HD
HETATM   12  H           1     -19.321  -6.022  -7.469  0.00  0.00     0.174 HD
HETATM   13  H           1     -21.571  -6.178  -4.152  0.00  0.00     0.177 HD
ENDBRANCH   4   5
ENDBRANCH   3   4
ENDBRANCH   2   3
ENDBRANCH   1   2
BRANCH   1  14
HETATM   14  C           1     -22.162  -6.860  -1.373  0.00  0.00     0.196 C 
HETATM   15  O           1     -22.980  -6.781  -0.431  0.00  0.00    -0.646 OA
HETATM   16  O           1     -22.076  -5.930  -2.204  0.00  0.00    -0.646 OA
ENDBRANCH   1  14
BRANCH   1  17
HETATM   17  N           1     -22.088  -9.274  -1.403  0.00  0.00    -0.345 N 
HETATM   18  C           1     -22.006 -10.058  -0.284  0.00  0.00     0.249 C 
HETATM   19  O           1     -21.262  -9.752   0.617  0.00  0.00    -0.271 OA
HETATM   20  H           1     -22.712  -9.530  -2.157  0.00  0.00     0.163 HD
BRANCH  18  21
HETATM   21  C           1     -22.849 -11.306  -0.174  0.00  0.00     0.274 C 
HETATM   22  C           1     -21.943 -12.530  -0.150  0.00  0.00     0.042 C 
HETATM   23  C           1     -21.124 -12.582  -1.433  0.00  0.00     0.003 C 
HETATM   24 Se           1     -22.323 -12.692  -2.966  0.00  0.00     0.000 Se
HETATM   25  C           1     -20.892 -12.733  -4.289  0.00  0.00     0.000 C 
HETATM   26  H           1     -23.209 -11.425  -2.234  0.00  0.00     0.275 HD
HETATM   27  N           1     -23.771 -11.390  -1.355  0.00  0.00    -0.067 N 
HETATM   28  H           1     -24.355 -12.254  -1.280  0.00  0.00     0.275 HD
HETATM   29  H           1     -24.393 -10.550  -1.371  0.00  0.00     0.275 HD
ENDBRANCH  18  21
ENDBRANCH   1  17
TORSDOF 7
ENDMDL
