MODEL 1
REMARK VINA RESULT:      -5.6      0.000      0.000
REMARK  7 active torsions:
REMARK  status: ('A' for Active; 'I' for Inactive)
REMARK    1  A    between atoms: C_4  and  C_5 
REMARK    2  A    between atoms: C_4  and  N_15 
REMARK       I    between atoms: C_5  and  N_6 
REMARK    3  A    between atoms: N_6  and  C_10 
REMARK    4  A    between atoms: C_9  and  C_10 
REMARK    5  A    between atoms: C_10  and  C_11 
REMARK    6  A    between atoms: C_11  and  C_12 
REMARK    7  A    between atoms: C_12  and  S_13 
ROOT
HETATM    1  H           1     -22.099  -5.638  -8.921  0.00  0.00     0.163 HD
HETATM    2  C           1     -21.685  -4.204  -7.487  0.00  0.00     0.248 C 
HETATM    3  N           1     -22.146  -4.653  -8.695  0.00  0.00    -0.345 N 
HETATM    4  O           1     -21.742  -3.028  -7.217  0.00  0.00    -0.271 OA
ENDROOT
BRANCH   3   5
HETATM    5  C           1     -22.704  -3.716  -9.651  0.00  0.00     0.186 C 
BRANCH   5   6
HETATM    6  C           1     -24.207  -3.855  -9.673  0.00  0.00     0.196 C 
HETATM    7  O           1     -24.728  -4.961  -9.933  0.00  0.00    -0.646 OA
HETATM    8  O           1     -24.929  -2.865  -9.431  0.00  0.00    -0.646 OA
ENDBRANCH   5   6
BRANCH   5   9
HETATM    9  C           1     -22.146  -4.013 -11.036  0.00  0.00     0.046 C 
BRANCH   9  10
HETATM   10  C           1     -22.388  -2.817 -11.949  0.00  0.00     0.076 C 
BRANCH  10  11
HETATM   11  S           1     -23.757  -3.188 -13.081  0.00  0.00    -0.173 SA
HETATM   12  C           1     -22.879  -2.747 -14.607  0.00  0.00     0.089 C 
ENDBRANCH  10  11
ENDBRANCH   9  10
ENDBRANCH   5   9
ENDBRANCH   3   5
BRANCH   2  13
HETATM   13  C           1     -21.104  -5.179  -6.492  0.00  0.00     0.270 C 
HETATM   14  C           1     -19.735  -4.689  -6.039  0.00  0.00     0.050 C 
BRANCH  13  15
HETATM   15  N           1     -20.965  -6.527  -7.136  0.00  0.00    -0.067 N 
HETATM   16  H           1     -20.714  -6.407  -8.143  0.00  0.00     0.275 HD
HETATM   17  H           1     -20.214  -7.069  -6.652  0.00  0.00     0.275 HD
HETATM   18  H           1     -21.871  -7.043  -7.061  0.00  0.00     0.275 HD
ENDBRANCH  13  15
ENDBRANCH   2  13
TORSDOF 7
ENDMDL
MODEL 2
REMARK VINA RESULT:      -5.5     13.002     15.057
REMARK  7 active torsions:
REMARK  status: ('A' for Active; 'I' for Inactive)
REMARK    1  A    between atoms: C_4  and  C_5 
REMARK    2  A    between atoms: C_4  and  N_15 
REMARK       I    between atoms: C_5  and  N_6 
REMARK    3  A    between atoms: N_6  and  C_10 
REMARK    4  A    between atoms: C_9  and  C_10 
REMARK    5  A    between atoms: C_10  and  C_11 
REMARK    6  A    between atoms: C_11  and  C_12 
REMARK    7  A    between atoms: C_12  and  S_13 
ROOT
HETATM    1  H           1     -35.044  -0.046 -12.522  0.00  0.00     0.163 HD
HETATM    2  C           1     -36.758  -0.314 -13.650  0.00  0.00     0.248 C 
HETATM    3  N           1     -35.998  -0.384 -12.514  0.00  0.00    -0.345 N 
HETATM    4  O           1     -37.897  -0.717 -13.641  0.00  0.00    -0.271 OA
ENDROOT
BRANCH   3   5
HETATM    5  C           1     -36.560  -0.941 -11.299  0.00  0.00     0.186 C 
BRANCH   5   6
HETATM    6  C           1     -36.971   0.180 -10.376  0.00  0.00     0.196 C 
HETATM    7  O           1     -36.206   0.544  -9.456  0.00  0.00    -0.646 OA
HETATM    8  O           1     -38.075   0.744 -10.531  0.00  0.00    -0.646 OA
ENDBRANCH   5   6
BRANCH   5   9
HETATM    9  C           1     -35.517  -1.810 -10.610  0.00  0.00     0.046 C 
BRANCH   9  10
HETATM   10  C           1     -35.075  -2.920 -11.557  0.00  0.00     0.076 C 
BRANCH  10  11
HETATM   11  S           1     -33.304  -3.243 -11.326  0.00  0.00    -0.173 SA
HETATM   12  C           1     -33.433  -5.053 -11.300  0.00  0.00     0.089 C 
ENDBRANCH  10  11
ENDBRANCH   9  10
ENDBRANCH   5   9
ENDBRANCH   3   5
BRANCH   2  13
HETATM   13  C           1     -36.173   0.265 -14.915  0.00  0.00     0.270 C 
HETATM   14  C           1     -35.027   1.204 -14.561  0.00  0.00     0.050 C 
BRANCH  13  15
HETATM   15  N           1     -37.234   1.028 -15.652  0.00  0.00    -0.067 N 
HETATM   16  H           1     -37.849   1.520 -14.966  0.00  0.00     0.275 HD
HETATM   17  H           1     -36.785   1.730 -16.283  0.00  0.00     0.275 HD
HETATM   18  H           1     -37.807   0.364 -16.221  0.00  0.00     0.275 HD
ENDBRANCH  13  15
ENDBRANCH   2  13
TORSDOF 7
ENDMDL
MODEL 3
REMARK VINA RESULT:      -5.4     12.436     14.164
REMARK  7 active torsions:
REMARK  status: ('A' for Active; 'I' for Inactive)
REMARK    1  A    between atoms: C_4  and  C_5 
REMARK    2  A    between atoms: C_4  and  N_15 
REMARK       I    between atoms: C_5  and  N_6 
REMARK    3  A    between atoms: N_6  and  C_10 
REMARK    4  A    between atoms: C_9  and  C_10 
REMARK    5  A    between atoms: C_10  and  C_11 
REMARK    6  A    between atoms: C_11  and  C_12 
REMARK    7  A    between atoms: C_12  and  S_13 
ROOT
HETATM    1  H           1     -33.964  -0.991 -13.400  0.00  0.00     0.163 HD
HETATM    2  C           1     -35.985  -0.566 -13.532  0.00  0.00     0.248 C 
HETATM    3  N           1     -34.886  -1.234 -13.063  0.00  0.00    -0.345 N 
HETATM    4  O           1     -37.086  -0.856 -13.129  0.00  0.00    -0.271 OA
ENDROOT
BRANCH   3   5
HETATM    5  C           1     -35.045  -2.290 -12.082  0.00  0.00     0.186 C 
BRANCH   5   6
HETATM    6  C           1     -34.613  -1.786 -10.726  0.00  0.00     0.196 C 
HETATM    7  O           1     -35.441  -1.229  -9.974  0.00  0.00    -0.646 OA
HETATM    8  O           1     -33.427  -1.925 -10.357  0.00  0.00    -0.646 OA
ENDBRANCH   5   6
BRANCH   5   9
HETATM    9  C           1     -34.185  -3.483 -12.478  0.00  0.00     0.046 C 
BRANCH   9  10
HETATM   10  C           1     -34.827  -4.766 -11.962  0.00  0.00     0.076 C 
BRANCH  10  11
HETATM   11  S           1     -33.593  -5.733 -11.048  0.00  0.00    -0.173 SA
HETATM   12  C           1     -34.776  -6.839 -10.226  0.00  0.00     0.089 C 
ENDBRANCH  10  11
ENDBRANCH   9  10
ENDBRANCH   5   9
ENDBRANCH   3   5
BRANCH   2  13
HETATM   13  C           1     -35.820   0.533 -14.553  0.00  0.00     0.270 C 
HETATM   14  C           1     -36.833   0.341 -15.674  0.00  0.00     0.050 C 
BRANCH  13  15
HETATM   15  N           1     -34.432   0.485 -15.120  0.00  0.00    -0.067 N 
HETATM   16  H           1     -34.209  -0.494 -15.409  0.00  0.00     0.275 HD
HETATM   17  H           1     -34.372   1.116 -15.950  0.00  0.00     0.275 HD
HETATM   18  H           1     -33.749   0.798 -14.393  0.00  0.00     0.275 HD
ENDBRANCH  13  15
ENDBRANCH   2  13
TORSDOF 7
ENDMDL
MODEL 4
REMARK VINA RESULT:      -5.2     11.958     13.266
REMARK  7 active torsions:
REMARK  status: ('A' for Active; 'I' for Inactive)
REMARK    1  A    between atoms: C_4  and  C_5 
REMARK    2  A    between atoms: C_4  and  N_15 
REMARK       I    between atoms: C_5  and  N_6 
REMARK    3  A    between atoms: N_6  and  C_10 
REMARK    4  A    between atoms: C_9  and  C_10 
REMARK    5  A    between atoms: C_10  and  C_11 
REMARK    6  A    between atoms: C_11  and  C_12 
REMARK    7  A    between atoms: C_12  and  S_13 
ROOT
HETATM    1  H           1     -32.426  -3.618 -14.329  0.00  0.00     0.163 HD
HETATM    2  C           1     -33.917  -4.523 -15.443  0.00  0.00     0.248 C 
HETATM    3  N           1     -33.355  -4.018 -14.302  0.00  0.00    -0.345 N 
HETATM    4  O           1     -35.026  -5.001 -15.411  0.00  0.00    -0.271 OA
ENDROOT
BRANCH   3   5
HETATM    5  C           1     -34.092  -4.057 -13.054  0.00  0.00     0.186 C 
BRANCH   5   6
HETATM    6  C           1     -34.884  -2.781 -12.898  0.00  0.00     0.196 C 
HETATM    7  O           1     -35.652  -2.637 -11.922  0.00  0.00    -0.646 OA
HETATM    8  O           1     -34.772  -1.869 -13.745  0.00  0.00    -0.646 OA
ENDBRANCH   5   6
BRANCH   5   9
HETATM    9  C           1     -33.116  -4.194 -11.893  0.00  0.00     0.046 C 
BRANCH   9  10
HETATM   10  C           1     -33.204  -5.602 -11.318  0.00  0.00     0.076 C 
BRANCH  10  11
HETATM   11  S           1     -34.747  -5.777 -10.378  0.00  0.00    -0.173 SA
HETATM   12  C           1     -34.662  -7.579 -10.187  0.00  0.00     0.089 C 
ENDBRANCH  10  11
ENDBRANCH   9  10
ENDBRANCH   5   9
ENDBRANCH   3   5
BRANCH   2  13
HETATM   13  C           1     -33.150  -4.484 -16.743  0.00  0.00     0.270 C 
HETATM   14  C           1     -31.674  -4.738 -16.470  0.00  0.00     0.050 C 
BRANCH  13  15
HETATM   15  N           1     -33.316  -3.135 -17.379  0.00  0.00    -0.067 N 
HETATM   16  H           1     -32.405  -2.624 -17.352  0.00  0.00     0.275 HD
HETATM   17  H           1     -33.619  -3.253 -18.372  0.00  0.00     0.275 HD
HETATM   18  H           1     -34.039  -2.590 -16.856  0.00  0.00     0.275 HD
ENDBRANCH  13  15
ENDBRANCH   2  13
TORSDOF 7
ENDMDL
MODEL 5
REMARK VINA RESULT:      -5.2     13.897     15.588
REMARK  7 active torsions:
REMARK  status: ('A' for Active; 'I' for Inactive)
REMARK    1  A    between atoms: C_4  and  C_5 
REMARK    2  A    between atoms: C_4  and  N_15 
REMARK       I    between atoms: C_5  and  N_6 
REMARK    3  A    between atoms: N_6  and  C_10 
REMARK    4  A    between atoms: C_9  and  C_10 
REMARK    5  A    between atoms: C_10  and  C_11 
REMARK    6  A    between atoms: C_11  and  C_12 
REMARK    7  A    between atoms: C_12  and  S_13 
ROOT
HETATM    1  H           1     -37.587  -0.854 -13.262  0.00  0.00     0.163 HD
HETATM    2  C           1     -36.091   0.362 -14.015  0.00  0.00     0.248 C 
HETATM    3  N           1     -36.747  -0.336 -13.037  0.00  0.00    -0.345 N 
HETATM    4  O           1     -35.088   0.979 -13.748  0.00  0.00    -0.271 OA
ENDROOT
BRANCH   3   5
HETATM    5  C           1     -36.237  -0.334 -11.680  0.00  0.00     0.186 C 
BRANCH   5   6
HETATM    6  C           1     -35.377  -1.556 -11.464  0.00  0.00     0.196 C 
HETATM    7  O           1     -35.654  -2.626 -12.049  0.00  0.00    -0.646 OA
HETATM    8  O           1     -34.390  -1.498 -10.701  0.00  0.00    -0.646 OA
ENDBRANCH   5   6
BRANCH   5   9
HETATM    9  C           1     -37.403  -0.354 -10.701  0.00  0.00     0.046 C 
BRANCH   9  10
HETATM   10  C           1     -37.280   0.822  -9.740  0.00  0.00     0.076 C 
BRANCH  10  11
HETATM   11  S           1     -36.579   0.247  -8.167  0.00  0.00    -0.173 SA
HETATM   12  C           1     -37.425   1.460  -7.115  0.00  0.00     0.089 C 
ENDBRANCH  10  11
ENDBRANCH   9  10
ENDBRANCH   5   9
ENDBRANCH   3   5
BRANCH   2  13
HETATM   13  C           1     -36.621   0.360 -15.428  0.00  0.00     0.270 C 
HETATM   14  C           1     -35.922  -0.729 -16.232  0.00  0.00     0.050 C 
BRANCH  13  15
HETATM   15  N           1     -36.360   1.694 -16.062  0.00  0.00    -0.067 N 
HETATM   16  H           1     -35.783   1.563 -16.923  0.00  0.00     0.275 HD
HETATM   17  H           1     -37.269   2.143 -16.317  0.00  0.00     0.275 HD
HETATM   18  H           1     -35.847   2.305 -15.386  0.00  0.00     0.275 HD
ENDBRANCH  13  15
ENDBRANCH   2  13
TORSDOF 7
ENDMDL
MODEL 6
REMARK VINA RESULT:      -5.0      8.399     10.863
REMARK  7 active torsions:
REMARK  status: ('A' for Active; 'I' for Inactive)
REMARK    1  A    between atoms: C_4  and  C_5 
REMARK    2  A    between atoms: C_4  and  N_15 
REMARK       I    between atoms: C_5  and  N_6 
REMARK    3  A    between atoms: N_6  and  C_10 
REMARK    4  A    between atoms: C_9  and  C_10 
REMARK    5  A    between atoms: C_10  and  C_11 
REMARK    6  A    between atoms: C_11  and  C_12 
REMARK    7  A    between atoms: C_12  and  S_13 
ROOT
HETATM    1  H           1     -25.459  -7.328 -18.106  0.00  0.00     0.163 HD
HETATM    2  C           1     -26.913  -6.265 -19.126  0.00  0.00     0.248 C 
HETATM    3  N           1     -26.246  -6.698 -18.012  0.00  0.00    -0.345 N 
HETATM    4  O           1     -27.852  -5.513 -19.014  0.00  0.00    -0.271 OA
ENDROOT
BRANCH   3   5
HETATM    5  C           1     -26.666  -6.253 -16.697  0.00  0.00     0.186 C 
BRANCH   5   6
HETATM    6  C           1     -25.520  -6.402 -15.727  0.00  0.00     0.196 C 
HETATM    7  O           1     -24.933  -5.386 -15.293  0.00  0.00    -0.646 OA
HETATM    8  O           1     -25.157  -7.539 -15.358  0.00  0.00    -0.646 OA
ENDBRANCH   5   6
BRANCH   5   9
HETATM    9  C           1     -27.842  -7.099 -16.228  0.00  0.00     0.046 C 
BRANCH   9  10
HETATM   10  C           1     -28.893  -6.200 -15.590  0.00  0.00     0.076 C 
BRANCH  10  11
HETATM   11  S           1     -30.326  -6.064 -16.696  0.00  0.00    -0.173 SA
HETATM   12  C           1     -30.045  -7.624 -17.580  0.00  0.00     0.089 C 
ENDBRANCH  10  11
ENDBRANCH   9  10
ENDBRANCH   5   9
ENDBRANCH   3   5
BRANCH   2  13
HETATM   13  C           1     -26.476  -6.727 -20.494  0.00  0.00     0.270 C 
HETATM   14  C           1     -27.166  -8.043 -20.831  0.00  0.00     0.050 C 
BRANCH  13  15
HETATM   15  N           1     -24.989  -6.926 -20.504  0.00  0.00    -0.067 N 
HETATM   16  H           1     -24.758  -7.843 -20.058  0.00  0.00     0.275 HD
HETATM   17  H           1     -24.642  -6.921 -21.489  0.00  0.00     0.275 HD
HETATM   18  H           1     -24.532  -6.153 -19.969  0.00  0.00     0.275 HD
ENDBRANCH  13  15
ENDBRANCH   2  13
TORSDOF 7
ENDMDL
MODEL 7
REMARK VINA RESULT:      -5.0      9.162     11.015
REMARK  7 active torsions:
REMARK  status: ('A' for Active; 'I' for Inactive)
REMARK    1  A    between atoms: C_4  and  C_5 
REMARK    2  A    between atoms: C_4  and  N_15 
REMARK       I    between atoms: C_5  and  N_6 
REMARK    3  A    between atoms: N_6  and  C_10 
REMARK    4  A    between atoms: C_9  and  C_10 
REMARK    5  A    between atoms: C_10  and  C_11 
REMARK    6  A    between atoms: C_11  and  C_12 
REMARK    7  A    between atoms: C_12  and  S_13 
ROOT
HETATM    1  H           1     -26.602  -7.652 -19.054  0.00  0.00     0.163 HD
HETATM    2  C           1     -24.727  -6.898 -19.501  0.00  0.00     0.248 C 
HETATM    3  N           1     -25.848  -7.058 -18.733  0.00  0.00    -0.345 N 
HETATM    4  O           1     -23.827  -6.189 -19.117  0.00  0.00    -0.271 OA
ENDROOT
BRANCH   3   5
HETATM    5  C           1     -25.954  -6.378 -17.456  0.00  0.00     0.186 C 
BRANCH   5   6
HETATM    6  C           1     -25.447  -7.283 -16.360  0.00  0.00     0.196 C 
HETATM    7  O           1     -26.128  -7.453 -15.326  0.00  0.00    -0.646 OA
HETATM    8  O           1     -24.346  -7.861 -16.487  0.00  0.00    -0.646 OA
ENDBRANCH   5   6
BRANCH   5   9
HETATM    9  C           1     -27.412  -6.025 -17.191  0.00  0.00     0.046 C 
BRANCH   9  10
HETATM   10  C           1     -28.246  -6.348 -18.424  0.00  0.00     0.076 C 
BRANCH  10  11
HETATM   11  S           1     -29.667  -7.370 -17.943  0.00  0.00    -0.173 SA
HETATM   12  C           1     -30.618  -6.036 -17.163  0.00  0.00     0.089 C 
ENDBRANCH  10  11
ENDBRANCH   9  10
ENDBRANCH   5   9
ENDBRANCH   3   5
BRANCH   2  13
HETATM   13  C           1     -24.615  -7.606 -20.829  0.00  0.00     0.270 C 
HETATM   14  C           1     -25.959  -8.228 -21.188  0.00  0.00     0.050 C 
BRANCH  13  15
HETATM   15  N           1     -23.575  -8.683 -20.735  0.00  0.00    -0.067 N 
HETATM   16  H           1     -22.930  -8.475 -19.940  0.00  0.00     0.275 HD
HETATM   17  H           1     -24.041  -9.605 -20.574  0.00  0.00     0.275 HD
HETATM   18  H           1     -23.031  -8.719 -21.627  0.00  0.00     0.275 HD
ENDBRANCH  13  15
ENDBRANCH   2  13
TORSDOF 7
ENDMDL
MODEL 8
REMARK VINA RESULT:      -4.8      2.477      3.235
REMARK  7 active torsions:
REMARK  status: ('A' for Active; 'I' for Inactive)
REMARK    1  A    between atoms: C_4  and  C_5 
REMARK    2  A    between atoms: C_4  and  N_15 
REMARK       I    between atoms: C_5  and  N_6 
REMARK    3  A    between atoms: N_6  and  C_10 
REMARK    4  A    between atoms: C_9  and  C_10 
REMARK    5  A    between atoms: C_10  and  C_11 
REMARK    6  A    between atoms: C_11  and  C_12 
REMARK    7  A    between atoms: C_12  and  S_13 
ROOT
HETATM    1  H           1     -22.198  -4.119  -6.461  0.00  0.00     0.163 HD
HETATM    2  C           1     -21.310  -5.988  -6.415  0.00  0.00     0.248 C 
HETATM    3  N           1     -21.814  -4.869  -7.021  0.00  0.00    -0.345 N 
HETATM    4  O           1     -20.851  -6.883  -7.084  0.00  0.00    -0.271 OA
ENDROOT
BRANCH   3   5
HETATM    5  C           1     -21.797  -4.759  -8.467  0.00  0.00     0.186 C 
BRANCH   5   6
HETATM    6  C           1     -20.415  -4.359  -8.924  0.00  0.00     0.196 C 
HETATM    7  O           1     -19.984  -4.753 -10.029  0.00  0.00    -0.646 OA
HETATM    8  O           1     -19.702  -3.634  -8.197  0.00  0.00    -0.646 OA
ENDBRANCH   5   6
BRANCH   5   9
HETATM    9  C           1     -22.803  -3.703  -8.906  0.00  0.00     0.046 C 
BRANCH   9  10
HETATM   10  C           1     -23.928  -4.368  -9.689  0.00  0.00     0.076 C 
BRANCH  10  11
HETATM   11  S           1     -23.396  -4.637 -11.404  0.00  0.00    -0.173 SA
HETATM   12  C           1     -22.826  -2.940 -11.704  0.00  0.00     0.089 C 
ENDBRANCH  10  11
ENDBRANCH   9  10
ENDBRANCH   5   9
ENDBRANCH   3   5
BRANCH   2  13
HETATM   13  C           1     -21.328  -6.103  -4.910  0.00  0.00     0.270 C 
HETATM   14  C           1     -20.602  -7.374  -4.489  0.00  0.00     0.050 C 
BRANCH  13  15
HETATM   15  N           1     -22.749  -6.157  -4.430  0.00  0.00    -0.067 N 
HETATM   16  H           1     -23.029  -5.217  -4.069  0.00  0.00     0.275 HD
HETATM   17  H           1     -23.375  -6.427  -5.222  0.00  0.00     0.275 HD
HETATM   18  H           1     -22.830  -6.864  -3.664  0.00  0.00     0.275 HD
ENDBRANCH  13  15
ENDBRANCH   2  13
TORSDOF 7
ENDMDL
MODEL 9
REMARK VINA RESULT:      -4.6      9.436     11.103
REMARK  7 active torsions:
REMARK  status: ('A' for Active; 'I' for Inactive)
REMARK    1  A    between atoms: C_4  and  C_5 
REMARK    2  A    between atoms: C_4  and  N_15 
REMARK       I    between atoms: C_5  and  N_6 
REMARK    3  A    between atoms: N_6  and  C_10 
REMARK    4  A    between atoms: C_9  and  C_10 
REMARK    5  A    between atoms: C_10  and  C_11 
REMARK    6  A    between atoms: C_11  and  C_12 
REMARK    7  A    between atoms: C_12  and  S_13 
ROOT
HETATM    1  H           1     -25.782  -7.156 -17.423  0.00  0.00     0.163 HD
HETATM    2  C           1     -26.225  -6.477 -19.328  0.00  0.00     0.248 C 
HETATM    3  N           1     -26.473  -6.691 -17.998  0.00  0.00    -0.345 N 
HETATM    4  O           1     -27.050  -5.922 -20.014  0.00  0.00    -0.271 OA
ENDROOT
BRANCH   3   5
HETATM    5  C           1     -27.725  -6.251 -17.415  0.00  0.00     0.186 C 
BRANCH   5   6
HETATM    6  C           1     -27.685  -6.463 -15.921  0.00  0.00     0.196 C 
HETATM    7  O           1     -28.344  -5.715 -15.166  0.00  0.00    -0.646 OA
HETATM    8  O           1     -26.994  -7.386 -15.439  0.00  0.00    -0.646 OA
ENDBRANCH   5   6
BRANCH   5   9
HETATM    9  C           1     -28.872  -7.056 -18.012  0.00  0.00     0.046 C 
BRANCH   9  10
HETATM   10  C           1     -30.030  -6.122 -18.343  0.00  0.00     0.076 C 
BRANCH  10  11
HETATM   11  S           1     -31.384  -6.395 -17.166  0.00  0.00    -0.173 SA
HETATM   12  C           1     -31.674  -4.644 -16.786  0.00  0.00     0.089 C 
ENDBRANCH  10  11
ENDBRANCH   9  10
ENDBRANCH   5   9
ENDBRANCH   3   5
BRANCH   2  13
HETATM   13  C           1     -24.922  -6.934 -19.935  0.00  0.00     0.270 C 
HETATM   14  C           1     -25.206  -7.889 -21.087  0.00  0.00     0.050 C 
BRANCH  13  15
HETATM   15  N           1     -24.104  -7.637 -18.893  0.00  0.00    -0.067 N 
HETATM   16  H           1     -24.281  -8.666 -18.948  0.00  0.00     0.275 HD
HETATM   17  H           1     -23.090  -7.449 -19.059  0.00  0.00     0.275 HD
HETATM   18  H           1     -24.373  -7.287 -17.945  0.00  0.00     0.275 HD
ENDBRANCH  13  15
ENDBRANCH   2  13
TORSDOF 7
ENDMDL
