MODEL 1
REMARK VINA RESULT:      -5.8      0.000      0.000
REMARK  7 active torsions:
REMARK  status: ('A' for Active; 'I' for Inactive)
REMARK    1  A    between atoms: C_1  and  C_8 
REMARK    2  A    between atoms: C_1  and  O_2 
REMARK    3  A    between atoms: O_2  and  P_3 
REMARK    4  A    between atoms: P_3  and  O_10 
REMARK    5  A    between atoms: C_6  and  C_8 
REMARK    6  A    between atoms: C_8  and  N_23 
REMARK    7  A    between atoms: C_21  and  C_22 
REMARK       I    between atoms: C_22  and  N_23 
ROOT
HETATM    1  O           1     -33.339  -2.652 -11.040  0.00  0.00    -0.271 OA
HETATM    2  C           1     -33.756  -2.862 -12.153  0.00  0.00     0.249 C 
HETATM    3  N           1     -34.681  -2.019 -12.708  0.00  0.00    -0.343 N 
HETATM    4  H           1     -35.031  -2.195 -13.641  0.00  0.00     0.163 HD
ENDROOT
BRANCH   3   5
HETATM    5  C           1     -35.158  -0.872 -11.960  0.00  0.00     0.210 C 
BRANCH   5   6
HETATM    6  C           1     -35.263   0.331 -12.887  0.00  0.00     0.217 C 
BRANCH   6   7
HETATM    7  O           1     -35.082  -0.084 -14.215  0.00  0.00    -0.287 OA
BRANCH   7   8
HETATM    8  P           1     -36.334   0.150 -15.207  0.00  0.00     0.406 P 
HETATM    9  O           1     -36.524  -1.048 -16.055  0.00  0.00    -0.624 OA
HETATM   10  O           1     -36.070   1.326 -16.066  0.00  0.00    -0.624 OA
BRANCH   8  11
HETATM   11  O           1     -37.669   0.408 -14.334  0.00  0.00    -0.300 OA
HETATM   12  H           1     -38.277   0.807 -14.933  0.00  0.00     0.223 HD
ENDBRANCH   8  11
ENDBRANCH   7   8
ENDBRANCH   6   7
ENDBRANCH   5   6
BRANCH   5  13
HETATM   13  C           1     -36.517  -1.181 -11.380  0.00  0.00     0.198 C 
HETATM   14  O           1     -37.504  -0.483 -11.697  0.00  0.00    -0.646 OA
HETATM   15  O           1     -36.654  -2.134 -10.583  0.00  0.00    -0.646 OA
ENDBRANCH   5  13
ENDBRANCH   3   5
BRANCH   2  16
HETATM   16  C           1     -33.260  -4.055 -12.933  0.00  0.00     0.274 C 
HETATM   17  N           1     -32.257  -4.808 -12.110  0.00  0.00    -0.067 N 
HETATM   18  H           1     -31.913  -5.634 -12.648  0.00  0.00     0.275 HD
HETATM   19  H           1     -31.452  -4.180 -11.884  0.00  0.00     0.275 HD
HETATM   20  H           1     -32.706  -5.131 -11.223  0.00  0.00     0.275 HD
HETATM   21 Se           1     -33.782  -6.420 -10.901  0.00  0.00     0.000 Se
HETATM   22  C           1     -35.018  -6.798  -9.442  0.00  0.00     0.000 C 
HETATM   23  C           1     -35.086  -5.443 -11.970  0.00  0.00     0.003 C 
HETATM   24  C           1     -34.433  -4.970 -13.262  0.00  0.00     0.042 C 
ENDBRANCH   2  16
TORSDOF 7
ENDMDL
MODEL 2
REMARK VINA RESULT:      -5.7      1.940      2.523
REMARK  7 active torsions:
REMARK  status: ('A' for Active; 'I' for Inactive)
REMARK    1  A    between atoms: C_1  and  C_8 
REMARK    2  A    between atoms: C_1  and  O_2 
REMARK    3  A    between atoms: O_2  and  P_3 
REMARK    4  A    between atoms: P_3  and  O_10 
REMARK    5  A    between atoms: C_6  and  C_8 
REMARK    6  A    between atoms: C_8  and  N_23 
REMARK    7  A    between atoms: C_21  and  C_22 
REMARK       I    between atoms: C_22  and  N_23 
ROOT
HETATM    1  O           1     -33.761  -1.411 -10.836  0.00  0.00    -0.271 OA
HETATM    2  C           1     -34.686  -2.187 -10.845  0.00  0.00     0.249 C 
HETATM    3  N           1     -35.950  -1.744 -11.126  0.00  0.00    -0.343 N 
HETATM    4  H           1     -36.725  -2.394 -11.134  0.00  0.00     0.163 HD
ENDROOT
BRANCH   3   5
HETATM    5  C           1     -36.178  -0.340 -11.413  0.00  0.00     0.210 C 
BRANCH   5   6
HETATM    6  C           1     -37.001  -0.212 -12.688  0.00  0.00     0.217 C 
BRANCH   6   7
HETATM    7  O           1     -36.439  -1.014 -13.692  0.00  0.00    -0.287 OA
BRANCH   7   8
HETATM    8  P           1     -36.086  -0.268 -15.080  0.00  0.00     0.406 P 
HETATM    9  O           1     -36.232  -1.220 -16.204  0.00  0.00    -0.624 OA
HETATM   10  O           1     -34.693   0.230 -15.033  0.00  0.00    -0.624 OA
BRANCH   8  11
HETATM   11  O           1     -37.096   0.975 -15.293  0.00  0.00    -0.300 OA
HETATM   12  H           1     -37.940   0.581 -15.437  0.00  0.00     0.223 HD
ENDBRANCH   8  11
ENDBRANCH   7   8
ENDBRANCH   6   7
ENDBRANCH   5   6
BRANCH   5  13
HETATM   13  C           1     -36.926   0.292 -10.265  0.00  0.00     0.198 C 
HETATM   14  O           1     -38.074   0.751 -10.445  0.00  0.00    -0.646 OA
HETATM   15  O           1     -36.396   0.357  -9.135  0.00  0.00    -0.646 OA
ENDBRANCH   5  13
ENDBRANCH   3   5
BRANCH   2  16
HETATM   16  C           1     -34.448  -3.648 -10.546  0.00  0.00     0.274 C 
HETATM   17  N           1     -35.557  -4.466 -11.139  0.00  0.00    -0.067 N 
HETATM   18  H           1     -35.394  -5.477 -10.933  0.00  0.00     0.275 HD
HETATM   19  H           1     -36.469  -4.168 -10.724  0.00  0.00     0.275 HD
HETATM   20  H           1     -35.582  -4.320 -12.174  0.00  0.00     0.275 HD
HETATM   21 Se           1     -34.597  -4.934 -13.430  0.00  0.00     0.000 Se
HETATM   22  C           1     -34.257  -4.364 -15.263  0.00  0.00     0.000 C 
HETATM   23  C           1     -33.156  -3.871 -12.660  0.00  0.00     0.003 C 
HETATM   24  C           1     -33.120  -4.081 -11.152  0.00  0.00     0.042 C 
ENDBRANCH   2  16
TORSDOF 7
ENDMDL
MODEL 3
REMARK VINA RESULT:      -5.5      2.816      4.403
REMARK  7 active torsions:
REMARK  status: ('A' for Active; 'I' for Inactive)
REMARK    1  A    between atoms: C_1  and  C_8 
REMARK    2  A    between atoms: C_1  and  O_2 
REMARK    3  A    between atoms: O_2  and  P_3 
REMARK    4  A    between atoms: P_3  and  O_10 
REMARK    5  A    between atoms: C_6  and  C_8 
REMARK    6  A    between atoms: C_8  and  N_23 
REMARK    7  A    between atoms: C_21  and  C_22 
REMARK       I    between atoms: C_22  and  N_23 
ROOT
HETATM    1  O           1     -35.112  -5.508 -13.511  0.00  0.00    -0.271 OA
HETATM    2  C           1     -34.189  -4.775 -13.252  0.00  0.00     0.249 C 
HETATM    3  N           1     -33.597  -4.041 -14.244  0.00  0.00    -0.343 N 
HETATM    4  H           1     -32.823  -3.426 -14.027  0.00  0.00     0.163 HD
ENDROOT
BRANCH   3   5
HETATM    5  C           1     -34.080  -4.143 -15.608  0.00  0.00     0.210 C 
BRANCH   5   6
HETATM    6  C           1     -35.174  -3.109 -15.837  0.00  0.00     0.217 C 
BRANCH   6   7
HETATM    7  O           1     -34.951  -2.000 -15.009  0.00  0.00    -0.287 OA
BRANCH   7   8
HETATM    8  P           1     -35.651  -0.620 -15.471  0.00  0.00     0.406 P 
HETATM    9  O           1     -34.761   0.518 -15.147  0.00  0.00    -0.624 OA
HETATM   10  O           1     -36.939  -0.457 -14.761  0.00  0.00    -0.624 OA
BRANCH   8  11
HETATM   11  O           1     -35.915  -0.659 -17.064  0.00  0.00    -0.300 OA
HETATM   12  H           1     -36.627  -1.264 -17.178  0.00  0.00     0.223 HD
ENDBRANCH   8  11
ENDBRANCH   7   8
ENDBRANCH   6   7
ENDBRANCH   5   6
BRANCH   5  13
HETATM   13  C           1     -32.941  -3.892 -16.565  0.00  0.00     0.198 C 
HETATM   14  O           1     -31.844  -4.467 -16.395  0.00  0.00    -0.646 OA
HETATM   15  O           1     -33.093  -3.109 -17.526  0.00  0.00    -0.646 OA
ENDBRANCH   5  13
ENDBRANCH   3   5
BRANCH   2  16
HETATM   16  C           1     -33.685  -4.668 -11.833  0.00  0.00     0.274 C 
HETATM   17  N           1     -32.789  -3.471 -11.710  0.00  0.00    -0.067 N 
HETATM   18  H           1     -32.441  -3.395 -10.728  0.00  0.00     0.275 HD
HETATM   19  H           1     -31.978  -3.575 -12.361  0.00  0.00     0.275 HD
HETATM   20  H           1     -33.325  -2.608 -11.957  0.00  0.00     0.275 HD
HETATM   21 Se           1     -34.483  -1.702 -11.083  0.00  0.00     0.000 Se
HETATM   22  C           1     -35.852  -0.419 -11.611  0.00  0.00     0.000 C 
HETATM   23  C           1     -35.647  -3.257 -11.243  0.00  0.00     0.003 C 
HETATM   24  C           1     -34.868  -4.515 -10.885  0.00  0.00     0.042 C 
ENDBRANCH   2  16
TORSDOF 7
ENDMDL
MODEL 4
REMARK VINA RESULT:      -5.4      3.301      5.320
REMARK  7 active torsions:
REMARK  status: ('A' for Active; 'I' for Inactive)
REMARK    1  A    between atoms: C_1  and  C_8 
REMARK    2  A    between atoms: C_1  and  O_2 
REMARK    3  A    between atoms: O_2  and  P_3 
REMARK    4  A    between atoms: P_3  and  O_10 
REMARK    5  A    between atoms: C_6  and  C_8 
REMARK    6  A    between atoms: C_8  and  N_23 
REMARK    7  A    between atoms: C_21  and  C_22 
REMARK       I    between atoms: C_22  and  N_23 
ROOT
HETATM    1  O           1     -36.586  -2.459 -10.836  0.00  0.00    -0.271 OA
HETATM    2  C           1     -35.806  -1.788 -11.468  0.00  0.00     0.249 C 
HETATM    3  N           1     -34.791  -2.388 -12.163  0.00  0.00    -0.343 N 
HETATM    4  H           1     -34.138  -1.826 -12.692  0.00  0.00     0.163 HD
ENDROOT
BRANCH   3   5
HETATM    5  C           1     -34.653  -3.832 -12.142  0.00  0.00     0.210 C 
BRANCH   5   6
HETATM    6  C           1     -34.726  -4.369 -13.565  0.00  0.00     0.217 C 
BRANCH   6   7
HETATM    7  O           1     -34.045  -3.499 -14.429  0.00  0.00    -0.287 OA
BRANCH   7   8
HETATM    8  P           1     -33.735  -4.070 -15.908  0.00  0.00     0.406 P 
HETATM    9  O           1     -32.276  -4.258 -16.069  0.00  0.00    -0.624 OA
HETATM   10  O           1     -34.224  -3.107 -16.920  0.00  0.00    -0.624 OA
BRANCH   8  11
HETATM   11  O           1     -34.485  -5.487 -16.104  0.00  0.00    -0.300 OA
HETATM   12  H           1     -35.258  -5.430 -15.568  0.00  0.00     0.223 HD
ENDBRANCH   8  11
ENDBRANCH   7   8
ENDBRANCH   6   7
ENDBRANCH   5   6
BRANCH   5  13
HETATM   13  C           1     -33.323  -4.200 -11.532  0.00  0.00     0.198 C 
HETATM   14  O           1     -32.466  -3.315 -11.322  0.00  0.00    -0.646 OA
HETATM   15  O           1     -33.079  -5.390 -11.236  0.00  0.00    -0.646 OA
ENDBRANCH   5  13
ENDBRANCH   3   5
BRANCH   2  16
HETATM   16  C           1     -35.949  -0.285 -11.490  0.00  0.00     0.274 C 
HETATM   17  N           1     -34.846   0.309 -12.316  0.00  0.00    -0.067 N 
HETATM   18  H           1     -34.945   1.349 -12.332  0.00  0.00     0.275 HD
HETATM   19  H           1     -33.923   0.053 -11.898  0.00  0.00     0.275 HD
HETATM   20  H           1     -34.903  -0.062 -13.291  0.00  0.00     0.275 HD
HETATM   21 Se           1     -35.944   0.322 -14.592  0.00  0.00     0.000 Se
HETATM   22  C           1     -36.442  -0.615 -16.227  0.00  0.00     0.000 C 
HETATM   23  C           1     -37.377  -0.451 -13.520  0.00  0.00     0.003 C 
HETATM   24  C           1     -37.295   0.088 -12.098  0.00  0.00     0.042 C 
ENDBRANCH   2  16
TORSDOF 7
ENDMDL
MODEL 5
REMARK VINA RESULT:      -5.1     15.076     17.386
REMARK  7 active torsions:
REMARK  status: ('A' for Active; 'I' for Inactive)
REMARK    1  A    between atoms: C_1  and  C_8 
REMARK    2  A    between atoms: C_1  and  O_2 
REMARK    3  A    between atoms: O_2  and  P_3 
REMARK    4  A    between atoms: P_3  and  O_10 
REMARK    5  A    between atoms: C_6  and  C_8 
REMARK    6  A    between atoms: C_8  and  N_23 
REMARK    7  A    between atoms: C_21  and  C_22 
REMARK       I    between atoms: C_22  and  N_23 
ROOT
HETATM    1  O           1     -20.949  -6.676  -7.333  0.00  0.00    -0.271 OA
HETATM    2  C           1     -20.593  -5.799  -6.583  0.00  0.00     0.249 C 
HETATM    3  N           1     -20.578  -6.018  -5.231  0.00  0.00    -0.343 N 
HETATM    4  H           1     -20.279  -5.283  -4.602  0.00  0.00     0.163 HD
ENDROOT
BRANCH   3   5
HETATM    5  C           1     -20.990  -7.303  -4.700  0.00  0.00     0.210 C 
BRANCH   5   6
HETATM    6  C           1     -19.769  -8.197  -4.532  0.00  0.00     0.217 C 
BRANCH   6   7
HETATM    7  O           1     -19.700  -9.101  -5.603  0.00  0.00    -0.287 OA
BRANCH   7   8
HETATM    8  P           1     -20.279 -10.581  -5.318  0.00  0.00     0.406 P 
HETATM    9  O           1     -19.161 -11.550  -5.270  0.00  0.00    -0.624 OA
HETATM   10  O           1     -21.216 -10.961  -6.399  0.00  0.00    -0.624 OA
BRANCH   8  11
HETATM   11  O           1     -21.058 -10.589  -3.902  0.00  0.00    -0.300 OA
HETATM   12  H           1     -21.815 -10.045  -4.038  0.00  0.00     0.223 HD
ENDBRANCH   8  11
ENDBRANCH   7   8
ENDBRANCH   6   7
ENDBRANCH   5   6
BRANCH   5  13
HETATM   13  C           1     -21.657  -7.103  -3.361  0.00  0.00     0.198 C 
HETATM   14  O           1     -21.604  -8.003  -2.496  0.00  0.00    -0.646 OA
HETATM   15  O           1     -22.261  -6.036  -3.117  0.00  0.00    -0.646 OA
ENDBRANCH   5  13
ENDBRANCH   3   5
BRANCH   2  16
HETATM   16  C           1     -20.164  -4.461  -7.134  0.00  0.00     0.274 C 
HETATM   17  N           1     -19.728  -4.625  -8.561  0.00  0.00    -0.067 N 
HETATM   18  H           1     -19.432  -3.700  -8.944  0.00  0.00     0.275 HD
HETATM   19  H           1     -18.926  -5.294  -8.604  0.00  0.00     0.275 HD
HETATM   20  H           1     -20.524  -4.999  -9.127  0.00  0.00     0.275 HD
HETATM   21 Se           1     -21.925  -4.244  -9.751  0.00  0.00     0.000 Se
HETATM   22  C           1     -23.645  -4.920 -10.370  0.00  0.00     0.000 C 
HETATM   23  C           1     -22.492  -4.030  -7.898  0.00  0.00     0.003 C 
HETATM   24  C           1     -21.334  -3.488  -7.071  0.00  0.00     0.042 C 
ENDBRANCH   2  16
TORSDOF 7
ENDMDL
MODEL 6
REMARK VINA RESULT:      -5.0      2.686      3.869
REMARK  7 active torsions:
REMARK  status: ('A' for Active; 'I' for Inactive)
REMARK    1  A    between atoms: C_1  and  C_8 
REMARK    2  A    between atoms: C_1  and  O_2 
REMARK    3  A    between atoms: O_2  and  P_3 
REMARK    4  A    between atoms: P_3  and  O_10 
REMARK    5  A    between atoms: C_6  and  C_8 
REMARK    6  A    between atoms: C_8  and  N_23 
REMARK    7  A    between atoms: C_21  and  C_22 
REMARK       I    between atoms: C_22  and  N_23 
ROOT
HETATM    1  O           1     -35.043  -4.876 -13.593  0.00  0.00    -0.271 OA
HETATM    2  C           1     -34.412  -3.858 -13.445  0.00  0.00     0.249 C 
HETATM    3  N           1     -33.918  -3.193 -14.535  0.00  0.00    -0.343 N 
HETATM    4  H           1     -33.389  -2.339 -14.411  0.00  0.00     0.163 HD
ENDROOT
BRANCH   3   5
HETATM    5  C           1     -34.154  -3.712 -15.869  0.00  0.00     0.210 C 
BRANCH   5   6
HETATM    6  C           1     -35.062  -2.756 -16.631  0.00  0.00     0.217 C 
BRANCH   6   7
HETATM    7  O           1     -34.813  -1.440 -16.213  0.00  0.00    -0.287 OA
BRANCH   7   8
HETATM    8  P           1     -36.085  -0.628 -15.639  0.00  0.00     0.406 P 
HETATM    9  O           1     -37.296  -0.998 -16.406  0.00  0.00    -0.624 OA
HETATM   10  O           1     -35.842   0.826 -15.771  0.00  0.00    -0.624 OA
BRANCH   8  11
HETATM   11  O           1     -36.301  -1.000 -14.082  0.00  0.00    -0.300 OA
HETATM   12  H           1     -35.744  -0.405 -13.610  0.00  0.00     0.223 HD
ENDBRANCH   8  11
ENDBRANCH   7   8
ENDBRANCH   6   7
ENDBRANCH   5   6
BRANCH   5  13
HETATM   13  C           1     -32.839  -3.845 -16.596  0.00  0.00     0.198 C 
HETATM   14  O           1     -32.640  -3.205 -17.651  0.00  0.00    -0.646 OA
HETATM   15  O           1     -31.948  -4.596 -16.143  0.00  0.00    -0.646 OA
ENDBRANCH   5  13
ENDBRANCH   3   5
BRANCH   2  16
HETATM   16  C           1     -34.165  -3.317 -12.058  0.00  0.00     0.274 C 
HETATM   17  N           1     -35.350  -3.617 -11.187  0.00  0.00    -0.067 N 
HETATM   18  H           1     -35.180  -3.243 -10.226  0.00  0.00     0.275 HD
HETATM   19  H           1     -36.201  -3.164 -11.591  0.00  0.00     0.275 HD
HETATM   20  H           1     -35.495  -4.651 -11.140  0.00  0.00     0.275 HD
HETATM   21 Se           1     -34.675  -5.871 -10.266  0.00  0.00     0.000 Se
HETATM   22  C           1     -34.546  -7.805 -10.473  0.00  0.00     0.000 C 
HETATM   23  C           1     -33.136  -5.483 -11.397  0.00  0.00     0.003 C 
HETATM   24  C           1     -32.925  -3.977 -11.469  0.00  0.00     0.042 C 
ENDBRANCH   2  16
TORSDOF 7
ENDMDL
MODEL 7
REMARK VINA RESULT:      -4.9      4.656      6.433
REMARK  7 active torsions:
REMARK  status: ('A' for Active; 'I' for Inactive)
REMARK    1  A    between atoms: C_1  and  C_8 
REMARK    2  A    between atoms: C_1  and  O_2 
REMARK    3  A    between atoms: O_2  and  P_3 
REMARK    4  A    between atoms: P_3  and  O_10 
REMARK    5  A    between atoms: C_6  and  C_8 
REMARK    6  A    between atoms: C_8  and  N_23 
REMARK    7  A    between atoms: C_21  and  C_22 
REMARK       I    between atoms: C_22  and  N_23 
ROOT
HETATM    1  O           1     -36.763  -1.717 -16.506  0.00  0.00    -0.271 OA
HETATM    2  C           1     -35.766  -1.105 -16.207  0.00  0.00     0.249 C 
HETATM    3  N           1     -34.546  -1.723 -16.247  0.00  0.00    -0.343 N 
HETATM    4  H           1     -33.710  -1.210 -15.996  0.00  0.00     0.163 HD
ENDROOT
BRANCH   3   5
HETATM    5  C           1     -34.449  -3.113 -16.650  0.00  0.00     0.210 C 
BRANCH   5   6
HETATM    6  C           1     -33.080  -3.368 -17.265  0.00  0.00     0.217 C 
BRANCH   6   7
HETATM    7  O           1     -32.240  -3.959 -16.310  0.00  0.00    -0.287 OA
BRANCH   7   8
HETATM    8  P           1     -31.224  -5.087 -16.861  0.00  0.00     0.406 P 
HETATM    9  O           1     -30.199  -5.375 -15.832  0.00  0.00    -0.624 OA
HETATM   10  O           1     -30.564  -4.597 -18.092  0.00  0.00    -0.624 OA
BRANCH   8  11
HETATM   11  O           1     -32.049  -6.436 -17.191  0.00  0.00    -0.300 OA
HETATM   12  H           1     -32.400  -6.302 -18.055  0.00  0.00     0.223 HD
ENDBRANCH   8  11
ENDBRANCH   7   8
ENDBRANCH   6   7
ENDBRANCH   5   6
BRANCH   5  13
HETATM   13  C           1     -34.633  -4.000 -15.443  0.00  0.00     0.198 C 
HETATM   14  O           1     -34.333  -3.577 -14.306  0.00  0.00    -0.646 OA
HETATM   15  O           1     -35.085  -5.157 -15.581  0.00  0.00    -0.646 OA
ENDBRANCH   5  13
ENDBRANCH   3   5
BRANCH   2  16
HETATM   16  C           1     -35.866   0.341 -15.787  0.00  0.00     0.274 C 
HETATM   17  N           1     -37.224   0.600 -15.205  0.00  0.00    -0.067 N 
HETATM   18  H           1     -37.294   1.601 -14.913  0.00  0.00     0.275 HD
HETATM   19  H           1     -37.955   0.395 -15.923  0.00  0.00     0.275 HD
HETATM   20  H           1     -37.370  -0.017 -14.373  0.00  0.00     0.275 HD
HETATM   21 Se           1     -36.780   0.080 -12.772  0.00  0.00     0.000 Se
HETATM   22  C           1     -36.593  -1.224 -11.335  0.00  0.00     0.000 C 
HETATM   23  C           1     -35.015  -0.257 -13.527  0.00  0.00     0.003 C 
HETATM   24  C           1     -34.801   0.640 -14.739  0.00  0.00     0.042 C 
ENDBRANCH   2  16
TORSDOF 7
ENDMDL
MODEL 8
REMARK VINA RESULT:      -4.9     15.245     17.345
REMARK  7 active torsions:
REMARK  status: ('A' for Active; 'I' for Inactive)
REMARK    1  A    between atoms: C_1  and  C_8 
REMARK    2  A    between atoms: C_1  and  O_2 
REMARK    3  A    between atoms: O_2  and  P_3 
REMARK    4  A    between atoms: P_3  and  O_10 
REMARK    5  A    between atoms: C_6  and  C_8 
REMARK    6  A    between atoms: C_8  and  N_23 
REMARK    7  A    between atoms: C_21  and  C_22 
REMARK       I    between atoms: C_22  and  N_23 
ROOT
HETATM    1  O           1     -19.494  -8.570  -5.589  0.00  0.00    -0.271 OA
HETATM    2  C           1     -20.489  -9.130  -5.194  0.00  0.00     0.249 C 
HETATM    3  N           1     -21.445  -8.429  -4.511  0.00  0.00    -0.343 N 
HETATM    4  H           1     -22.279  -8.898  -4.181  0.00  0.00     0.163 HD
ENDROOT
BRANCH   3   5
HETATM    5  C           1     -21.265  -7.011  -4.262  0.00  0.00     0.210 C 
BRANCH   5   6
HETATM    6  C           1     -22.184  -6.215  -5.180  0.00  0.00     0.217 C 
BRANCH   6   7
HETATM    7  O           1     -21.524  -5.952  -6.390  0.00  0.00    -0.287 OA
BRANCH   7   8
HETATM    8  P           1     -22.079  -4.696  -7.239  0.00  0.00     0.406 P 
HETATM    9  O           1     -21.988  -4.998  -8.686  0.00  0.00    -0.624 OA
HETATM   10  O           1     -21.268  -3.497  -6.934  0.00  0.00    -0.624 OA
BRANCH   8  11
HETATM   11  O           1     -23.621  -4.419  -6.844  0.00  0.00    -0.300 OA
HETATM   12  H           1     -24.123  -4.965  -7.425  0.00  0.00     0.223 HD
ENDBRANCH   8  11
ENDBRANCH   7   8
ENDBRANCH   6   7
ENDBRANCH   5   6
BRANCH   5  13
HETATM   13  C           1     -21.603  -6.707  -2.824  0.00  0.00     0.198 C 
HETATM   14  O           1     -22.508  -5.888  -2.554  0.00  0.00    -0.646 OA
HETATM   15  O           1     -20.979  -7.274  -1.902  0.00  0.00    -0.646 OA
ENDBRANCH   5  13
ENDBRANCH   3   5
BRANCH   2  16
HETATM   16  C           1     -20.676 -10.606  -5.452  0.00  0.00     0.274 C 
HETATM   17  N           1     -19.584 -11.097  -6.355  0.00  0.00    -0.067 N 
HETATM   18  H           1     -19.713 -12.119  -6.534  0.00  0.00     0.275 HD
HETATM   19  H           1     -19.622 -10.577  -7.261  0.00  0.00     0.275 HD
HETATM   20  H           1     -18.657 -10.937  -5.900  0.00  0.00     0.275 HD
HETATM   21 Se           1     -17.851 -11.771  -4.643  0.00  0.00     0.000 Se
HETATM   22  C           1     -16.405 -11.286  -3.429  0.00  0.00     0.000 C 
HETATM   23  C           1     -19.270 -11.132  -3.469  0.00  0.00     0.003 C 
HETATM   24  C           1     -20.621 -11.363  -4.132  0.00  0.00     0.042 C 
ENDBRANCH   2  16
TORSDOF 7
ENDMDL
MODEL 9
REMARK VINA RESULT:      -4.8     16.768     18.302
REMARK  7 active torsions:
REMARK  status: ('A' for Active; 'I' for Inactive)
REMARK    1  A    between atoms: C_1  and  C_8 
REMARK    2  A    between atoms: C_1  and  O_2 
REMARK    3  A    between atoms: O_2  and  P_3 
REMARK    4  A    between atoms: P_3  and  O_10 
REMARK    5  A    between atoms: C_6  and  C_8 
REMARK    6  A    between atoms: C_8  and  N_23 
REMARK    7  A    between atoms: C_21  and  C_22 
REMARK       I    between atoms: C_22  and  N_23 
ROOT
HETATM    1  O           1     -19.044  -9.536  -2.197  0.00  0.00    -0.271 OA
HETATM    2  C           1     -20.104  -9.905  -1.752  0.00  0.00     0.249 C 
HETATM    3  N           1     -21.204  -9.096  -1.840  0.00  0.00    -0.343 N 
HETATM    4  H           1     -22.092  -9.405  -1.467  0.00  0.00     0.163 HD
ENDROOT
BRANCH   3   5
HETATM    5  C           1     -21.096  -7.793  -2.469  0.00  0.00     0.210 C 
BRANCH   5   6
HETATM    6  C           1     -21.476  -7.908  -3.940  0.00  0.00     0.217 C 
BRANCH   6   7
HETATM    7  O           1     -20.506  -7.267  -4.725  0.00  0.00    -0.287 OA
BRANCH   7   8
HETATM    8  P           1     -21.043  -6.090  -5.692  0.00  0.00     0.406 P 
HETATM    9  O           1     -20.870  -6.494  -7.105  0.00  0.00    -0.624 OA
HETATM   10  O           1     -20.275  -4.852  -5.434  0.00  0.00    -0.624 OA
BRANCH   8  11
HETATM   11  O           1     -22.609  -5.826  -5.396  0.00  0.00    -0.300 OA
HETATM   12  H           1     -22.957  -6.668  -5.157  0.00  0.00     0.223 HD
ENDBRANCH   8  11
ENDBRANCH   7   8
ENDBRANCH   6   7
ENDBRANCH   5   6
BRANCH   5  13
HETATM   13  C           1     -22.028  -6.825  -1.782  0.00  0.00     0.198 C 
HETATM   14  O           1     -22.365  -7.018  -0.594  0.00  0.00    -0.646 OA
HETATM   15  O           1     -22.464  -5.831  -2.401  0.00  0.00    -0.646 OA
ENDBRANCH   5  13
ENDBRANCH   3   5
BRANCH   2  16
HETATM   16  C           1     -20.216 -11.260  -1.096  0.00  0.00     0.274 C 
HETATM   17  N           1     -21.664 -11.604  -0.905  0.00  0.00    -0.067 N 
HETATM   18  H           1     -21.742 -12.542  -0.452  0.00  0.00     0.275 HD
HETATM   19  H           1     -22.114 -10.884  -0.296  0.00  0.00     0.275 HD
HETATM   20  H           1     -22.142 -11.624  -1.834  0.00  0.00     0.275 HD
HETATM   21 Se           1     -22.139 -12.787  -3.087  0.00  0.00     0.000 Se
HETATM   22  C           1     -22.577 -12.709  -4.985  0.00  0.00     0.000 C 
HETATM   23  C           1     -20.258 -12.341  -3.336  0.00  0.00     0.003 C 
HETATM   24  C           1     -19.559 -12.310  -1.984  0.00  0.00     0.042 C 
ENDBRANCH   2  16
TORSDOF 7
ENDMDL
