MODEL 1
REMARK VINA RESULT:      -8.0      0.000      0.000
REMARK  8 active torsions:
REMARK  status: ('A' for Active; 'I' for Inactive)
REMARK    1  A    between atoms: C_2  and  C_4 
REMARK       I    between atoms: N_5  and  C_6 
REMARK    2  A    between atoms: C_6  and  C_7 
REMARK    3  A    between atoms: C_7  and  C_8 
REMARK    4  A    between atoms: C_7  and  N_20 
REMARK    5  A    between atoms: C_8  and  C_9 
REMARK    6  A    between atoms: C_12  and  O_13 
REMARK    7  A    between atoms: O_13  and  P_14 
REMARK    8  A    between atoms: P_14  and  O_16 
ROOT
HETATM    1  C           1     -20.956  -5.937  -5.798  0.00  0.00     0.279 C 
ENDROOT
BRANCH   1   2
HETATM    2  C           1     -21.090  -7.405  -5.480  0.00  0.00     0.251 C 
HETATM    3  N           1     -20.855  -7.855  -4.208  0.00  0.00    -0.336 N 
HETATM    4  C           1     -21.838  -8.111  -3.159  0.00  0.00     0.188 C 
HETATM    5  C           1     -19.566  -8.181  -3.604  0.00  0.00     0.127 C 
HETATM    6  C           1     -21.346  -9.393  -2.509  0.00  0.00     0.038 C 
HETATM    7  C           1     -19.850  -9.436  -2.797  0.00  0.00     0.022 C 
HETATM    8  O           1     -21.404  -8.185  -6.347  0.00  0.00    -0.271 OA
BRANCH   4   9
HETATM    9  C           1     -21.867  -6.979  -2.162  0.00  0.00     0.196 C 
HETATM   10  O           1     -21.511  -7.178  -0.981  0.00  0.00    -0.646 OA
HETATM   11  O           1     -22.246  -5.842  -2.518  0.00  0.00    -0.646 OA
ENDBRANCH   4   9
ENDBRANCH   1   2
BRANCH   1  12
HETATM   12  C           1     -19.973  -5.752  -6.947  0.00  0.00     0.081 C 
BRANCH  12  13
HETATM   13  C           1     -20.639  -5.001  -8.058  0.00  0.00    -0.056 A 
HETATM   14  C           1     -19.930  -4.828  -9.394  0.00  0.00     0.010 A 
HETATM   15  C           1     -20.608  -4.064 -10.523  0.00  0.00     0.038 A 
HETATM   16  C           1     -21.996  -3.472 -10.316  0.00  0.00     0.081 A 
HETATM   17  C           1     -22.706  -3.644  -8.979  0.00  0.00     0.038 A 
HETATM   18  C           1     -22.027  -4.408  -7.850  0.00  0.00     0.010 A 
BRANCH  16  19
HETATM   19  O           1     -22.600  -2.791 -11.320  0.00  0.00    -0.247 OA
BRANCH  19  20
HETATM   20  P           1     -23.883  -3.467 -12.030  0.00  0.00     0.411 P 
HETATM   21  O           1     -24.083  -2.863 -13.367  0.00  0.00    -0.624 OA
HETATM   22  O           1     -25.086  -3.235 -11.200  0.00  0.00    -0.624 OA
BRANCH  20  23
HETATM   23  O           1     -23.635  -5.055 -12.189  0.00  0.00    -0.300 OA
HETATM   24  H           1     -23.585  -5.202 -13.118  0.00  0.00     0.223 HD
ENDBRANCH  20  23
ENDBRANCH  19  20
ENDBRANCH  16  19
ENDBRANCH  12  13
ENDBRANCH   1  12
BRANCH   1  25
HETATM   25  N           1     -20.450  -5.208  -4.587  0.00  0.00    -0.066 N 
HETATM   26  H           1     -20.563  -5.814  -3.744  0.00  0.00     0.275 HD
HETATM   27  H           1     -19.440  -4.977  -4.717  0.00  0.00     0.275 HD
HETATM   28  H           1     -20.996  -4.326  -4.458  0.00  0.00     0.275 HD
ENDBRANCH   1  25
TORSDOF 8
ENDMDL
MODEL 2
REMARK VINA RESULT:      -7.9      1.680      2.622
REMARK  8 active torsions:
REMARK  status: ('A' for Active; 'I' for Inactive)
REMARK    1  A    between atoms: C_2  and  C_4 
REMARK       I    between atoms: N_5  and  C_6 
REMARK    2  A    between atoms: C_6  and  C_7 
REMARK    3  A    between atoms: C_7  and  C_8 
REMARK    4  A    between atoms: C_7  and  N_20 
REMARK    5  A    between atoms: C_8  and  C_9 
REMARK    6  A    between atoms: C_12  and  O_13 
REMARK    7  A    between atoms: O_13  and  P_14 
REMARK    8  A    between atoms: P_14  and  O_16 
ROOT
HETATM    1  C           1     -21.720  -5.438  -6.310  0.00  0.00     0.279 C 
ENDROOT
BRANCH   1   2
HETATM    2  C           1     -20.856  -5.546  -5.078  0.00  0.00     0.251 C 
HETATM    3  N           1     -21.061  -6.564  -4.186  0.00  0.00    -0.336 N 
HETATM    4  C           1     -20.352  -7.838  -4.112  0.00  0.00     0.188 C 
HETATM    5  C           1     -22.037  -6.612  -3.101  0.00  0.00     0.127 C 
HETATM    6  C           1     -20.164  -8.061  -2.621  0.00  0.00     0.038 C 
HETATM    7  C           1     -21.276  -7.258  -1.956  0.00  0.00     0.022 C 
HETATM    8  O           1     -19.984  -4.735  -4.879  0.00  0.00    -0.271 OA
BRANCH   4   9
HETATM    9  C           1     -21.175  -8.947  -4.722  0.00  0.00     0.196 C 
HETATM   10  O           1     -21.420  -8.940  -5.948  0.00  0.00    -0.646 OA
HETATM   11  O           1     -21.610  -9.872  -4.002  0.00  0.00    -0.646 OA
ENDBRANCH   4   9
ENDBRANCH   1   2
BRANCH   1  12
HETATM   12  C           1     -21.430  -4.122  -7.021  0.00  0.00     0.081 C 
BRANCH  12  13
HETATM   13  C           1     -21.979  -4.175  -8.413  0.00  0.00    -0.056 A 
HETATM   14  C           1     -21.039  -4.357  -9.597  0.00  0.00     0.010 A 
HETATM   15  C           1     -21.597  -4.412 -11.013  0.00  0.00     0.038 A 
HETATM   16  C           1     -23.097  -4.284 -11.244  0.00  0.00     0.081 A 
HETATM   17  C           1     -24.038  -4.102 -10.061  0.00  0.00     0.038 A 
HETATM   18  C           1     -23.479  -4.048  -8.645  0.00  0.00     0.010 A 
BRANCH  16  19
HETATM   19  O           1     -23.595  -4.332 -12.504  0.00  0.00    -0.247 OA
BRANCH  19  20
HETATM   20  P           1     -23.915  -2.935 -13.248  0.00  0.00     0.411 P 
HETATM   21  O           1     -25.337  -2.580 -13.041  0.00  0.00    -0.624 OA
HETATM   22  O           1     -23.647  -3.075 -14.696  0.00  0.00    -0.624 OA
BRANCH  20  23
HETATM   23  O           1     -22.976  -1.773 -12.635  0.00  0.00    -0.300 OA
HETATM   24  H           1     -22.958  -1.939 -11.707  0.00  0.00     0.223 HD
ENDBRANCH  20  23
ENDBRANCH  19  20
ENDBRANCH  16  19
ENDBRANCH  12  13
ENDBRANCH   1  12
BRANCH   1  25
HETATM   25  N           1     -23.166  -5.481  -5.911  0.00  0.00    -0.066 N 
HETATM   26  H           1     -23.655  -6.228  -6.455  0.00  0.00     0.275 HD
HETATM   27  H           1     -23.239  -5.690  -4.891  0.00  0.00     0.275 HD
HETATM   28  H           1     -23.611  -4.557  -6.111  0.00  0.00     0.275 HD
ENDBRANCH   1  25
TORSDOF 8
ENDMDL
MODEL 3
REMARK VINA RESULT:      -7.6      1.529      2.384
REMARK  8 active torsions:
REMARK  status: ('A' for Active; 'I' for Inactive)
REMARK    1  A    between atoms: C_2  and  C_4 
REMARK       I    between atoms: N_5  and  C_6 
REMARK    2  A    between atoms: C_6  and  C_7 
REMARK    3  A    between atoms: C_7  and  C_8 
REMARK    4  A    between atoms: C_7  and  N_20 
REMARK    5  A    between atoms: C_8  and  C_9 
REMARK    6  A    between atoms: C_12  and  O_13 
REMARK    7  A    between atoms: O_13  and  P_14 
REMARK    8  A    between atoms: P_14  and  O_16 
ROOT
HETATM    1  C           1     -21.489  -7.069  -4.260  0.00  0.00     0.279 C 
ENDROOT
BRANCH   1   2
HETATM    2  C           1     -21.548  -8.501  -3.789  0.00  0.00     0.251 C 
HETATM    3  N           1     -21.273  -8.803  -2.483  0.00  0.00    -0.336 N 
HETATM    4  C           1     -22.228  -8.994  -1.394  0.00  0.00     0.188 C 
HETATM    5  C           1     -19.961  -9.005  -1.873  0.00  0.00     0.127 C 
HETATM    6  C           1     -21.665 -10.176  -0.624  0.00  0.00     0.038 C 
HETATM    7  C           1     -20.173 -10.180  -0.935  0.00  0.00     0.022 C 
HETATM    8  O           1     -21.837  -9.380  -4.565  0.00  0.00    -0.271 OA
BRANCH   4   9
HETATM    9  C           1     -22.296  -7.766  -0.519  0.00  0.00     0.196 C 
HETATM   10  O           1     -21.960  -7.836   0.683  0.00  0.00    -0.646 OA
HETATM   11  O           1     -22.688  -6.679  -0.996  0.00  0.00    -0.646 OA
ENDBRANCH   4   9
ENDBRANCH   1   2
BRANCH   1  12
HETATM   12  C           1     -20.559  -6.966  -5.463  0.00  0.00     0.081 C 
BRANCH  12  13
HETATM   13  C           1     -21.142  -6.019  -6.465  0.00  0.00    -0.056 A 
HETATM   14  C           1     -22.538  -5.448  -6.252  0.00  0.00     0.010 A 
HETATM   15  C           1     -23.130  -4.484  -7.271  0.00  0.00     0.038 A 
HETATM   16  C           1     -22.327  -4.091  -8.504  0.00  0.00     0.081 A 
HETATM   17  C           1     -20.931  -4.661  -8.717  0.00  0.00     0.038 A 
HETATM   18  C           1     -20.339  -5.625  -7.697  0.00  0.00     0.010 A 
BRANCH  16  19
HETATM   19  O           1     -22.853  -3.233  -9.411  0.00  0.00    -0.247 OA
BRANCH  19  20
HETATM   20  P           1     -24.073  -3.756 -10.332  0.00  0.00     0.411 P 
HETATM   21  O           1     -24.007  -5.230 -10.447  0.00  0.00    -0.624 OA
HETATM   22  O           1     -23.969  -3.151 -11.678  0.00  0.00    -0.624 OA
BRANCH  20  23
HETATM   23  O           1     -25.476  -3.331  -9.655  0.00  0.00    -0.300 OA
HETATM   24  H           1     -25.908  -4.145  -9.459  0.00  0.00     0.223 HD
ENDBRANCH  20  23
ENDBRANCH  19  20
ENDBRANCH  16  19
ENDBRANCH  12  13
ENDBRANCH   1  12
BRANCH   1  25
HETATM   25  N           1     -20.970  -6.200  -3.153  0.00  0.00    -0.066 N 
HETATM   26  H           1     -19.929  -6.270  -3.114  0.00  0.00     0.275 HD
HETATM   27  H           1     -21.246  -5.208  -3.331  0.00  0.00     0.275 HD
HETATM   28  H           1     -21.375  -6.516  -2.242  0.00  0.00     0.275 HD
ENDBRANCH   1  25
TORSDOF 8
ENDMDL
MODEL 4
REMARK VINA RESULT:      -7.6      1.612      2.503
REMARK  8 active torsions:
REMARK  status: ('A' for Active; 'I' for Inactive)
REMARK    1  A    between atoms: C_2  and  C_4 
REMARK       I    between atoms: N_5  and  C_6 
REMARK    2  A    between atoms: C_6  and  C_7 
REMARK    3  A    between atoms: C_7  and  C_8 
REMARK    4  A    between atoms: C_7  and  N_20 
REMARK    5  A    between atoms: C_8  and  C_9 
REMARK    6  A    between atoms: C_12  and  O_13 
REMARK    7  A    between atoms: O_13  and  P_14 
REMARK    8  A    between atoms: P_14  and  O_16 
ROOT
HETATM    1  C           1     -20.350  -6.608  -5.599  0.00  0.00     0.279 C 
ENDROOT
BRANCH   1   2
HETATM    2  C           1     -21.082  -6.872  -4.307  0.00  0.00     0.251 C 
HETATM    3  N           1     -20.963  -8.089  -3.689  0.00  0.00    -0.336 N 
HETATM    4  C           1     -20.059  -8.449  -2.600  0.00  0.00     0.188 C 
HETATM    5  C           1     -21.712  -9.309  -3.977  0.00  0.00     0.127 C 
HETATM    6  C           1     -20.912  -9.323  -1.697  0.00  0.00     0.038 C 
HETATM    7  C           1     -21.997  -9.892  -2.604  0.00  0.00     0.022 C 
HETATM    8  O           1     -21.771  -6.011  -3.816  0.00  0.00    -0.271 OA
BRANCH   4   9
HETATM    9  C           1     -18.869  -9.217  -3.123  0.00  0.00     0.196 C 
HETATM   10  O           1     -18.328 -10.090  -2.410  0.00  0.00    -0.646 OA
HETATM   11  O           1     -18.425  -8.981  -4.267  0.00  0.00    -0.646 OA
ENDBRANCH   4   9
ENDBRANCH   1   2
BRANCH   1  12
HETATM   12  C           1     -20.113  -5.111  -5.753  0.00  0.00     0.081 C 
BRANCH  12  13
HETATM   13  C           1     -20.684  -4.647  -7.057  0.00  0.00    -0.056 A 
HETATM   14  C           1     -22.120  -4.147  -7.126  0.00  0.00     0.010 A 
HETATM   15  C           1     -22.700  -3.675  -8.453  0.00  0.00     0.038 A 
HETATM   16  C           1     -21.843  -3.704  -9.711  0.00  0.00     0.081 A 
HETATM   17  C           1     -20.406  -4.204  -9.643  0.00  0.00     0.038 A 
HETATM   18  C           1     -19.826  -4.676  -8.316  0.00  0.00     0.010 A 
BRANCH  16  19
HETATM   19  O           1     -22.358  -3.284 -10.892  0.00  0.00    -0.247 OA
BRANCH  19  20
HETATM   20  P           1     -23.694  -4.009 -11.438  0.00  0.00     0.411 P 
HETATM   21  O           1     -24.880  -3.211 -11.056  0.00  0.00    -0.624 OA
HETATM   22  O           1     -23.798  -5.361 -10.847  0.00  0.00    -0.624 OA
BRANCH  20  23
HETATM   23  O           1     -23.621  -4.128 -13.047  0.00  0.00    -0.300 OA
HETATM   24  H           1     -22.778  -3.777 -13.279  0.00  0.00     0.223 HD
ENDBRANCH  20  23
ENDBRANCH  19  20
ENDBRANCH  16  19
ENDBRANCH  12  13
ENDBRANCH   1  12
BRANCH   1  25
HETATM   25  N           1     -21.175  -7.104  -6.750  0.00  0.00    -0.066 N 
HETATM   26  H           1     -20.664  -6.933  -7.645  0.00  0.00     0.275 HD
HETATM   27  H           1     -21.348  -8.128  -6.639  0.00  0.00     0.275 HD
HETATM   28  H           1     -22.089  -6.596  -6.768  0.00  0.00     0.275 HD
ENDBRANCH   1  25
TORSDOF 8
ENDMDL
MODEL 5
REMARK VINA RESULT:      -7.1      3.419      8.572
REMARK  8 active torsions:
REMARK  status: ('A' for Active; 'I' for Inactive)
REMARK    1  A    between atoms: C_2  and  C_4 
REMARK       I    between atoms: N_5  and  C_6 
REMARK    2  A    between atoms: C_6  and  C_7 
REMARK    3  A    between atoms: C_7  and  C_8 
REMARK    4  A    between atoms: C_7  and  N_20 
REMARK    5  A    between atoms: C_8  and  C_9 
REMARK    6  A    between atoms: C_12  and  O_13 
REMARK    7  A    between atoms: O_13  and  P_14 
REMARK    8  A    between atoms: P_14  and  O_16 
ROOT
HETATM    1  C           1     -22.322  -4.601  -6.736  0.00  0.00     0.279 C 
ENDROOT
BRANCH   1   2
HETATM    2  C           1     -21.626  -3.687  -7.713  0.00  0.00     0.251 C 
HETATM    3  N           1     -21.593  -4.006  -9.044  0.00  0.00    -0.336 N 
HETATM    4  C           1     -22.487  -3.530 -10.096  0.00  0.00     0.188 C 
HETATM    5  C           1     -20.656  -4.899  -9.721  0.00  0.00     0.127 C 
HETATM    6  C           1     -21.559  -3.282 -11.273  0.00  0.00     0.038 C 
HETATM    7  C           1     -20.357  -4.187 -11.029  0.00  0.00     0.022 C 
HETATM    8  O           1     -21.099  -2.674  -7.322  0.00  0.00    -0.271 OA
BRANCH   4   9
HETATM    9  C           1     -23.521  -4.575 -10.437  0.00  0.00     0.196 C 
HETATM   10  O           1     -24.421  -4.854  -9.615  0.00  0.00    -0.646 OA
HETATM   11  O           1     -23.477  -5.162 -11.540  0.00  0.00    -0.646 OA
ENDBRANCH   4   9
ENDBRANCH   1   2
BRANCH   1  12
HETATM   12  C           1     -21.787  -6.019  -6.894  0.00  0.00     0.081 C 
BRANCH  12  13
HETATM   13  C           1     -21.513  -6.603  -5.543  0.00  0.00    -0.056 A 
HETATM   14  C           1     -21.210  -5.688  -4.364  0.00  0.00     0.010 A 
HETATM   15  C           1     -20.932  -6.282  -2.990  0.00  0.00     0.038 A 
HETATM   16  C           1     -20.956  -7.792  -2.795  0.00  0.00     0.081 A 
HETATM   17  C           1     -21.260  -8.708  -3.973  0.00  0.00     0.038 A 
HETATM   18  C           1     -21.538  -8.113  -5.348  0.00  0.00     0.010 A 
BRANCH  16  19
HETATM   19  O           1     -20.709  -8.322  -1.572  0.00  0.00    -0.247 OA
BRANCH  19  20
HETATM   20  P           1     -21.937  -8.433  -0.530  0.00  0.00     0.411 P 
HETATM   21  O           1     -21.407  -8.601   0.842  0.00  0.00    -0.624 OA
HETATM   22  O           1     -22.777  -9.599  -0.880  0.00  0.00    -0.624 OA
BRANCH  20  23
HETATM   23  O           1     -22.826  -7.086  -0.602  0.00  0.00    -0.300 OA
HETATM   24  H           1     -22.969  -6.841   0.296  0.00  0.00     0.223 HD
ENDBRANCH  20  23
ENDBRANCH  19  20
ENDBRANCH  16  19
ENDBRANCH  12  13
ENDBRANCH   1  12
BRANCH   1  25
HETATM   25  N           1     -23.798  -4.592  -7.008  0.00  0.00    -0.066 N 
HETATM   26  H           1     -24.187  -5.549  -6.851  0.00  0.00     0.275 HD
HETATM   27  H           1     -24.266  -3.916  -6.363  0.00  0.00     0.275 HD
HETATM   28  H           1     -23.968  -4.305  -7.998  0.00  0.00     0.275 HD
ENDBRANCH   1  25
TORSDOF 8
ENDMDL
MODEL 6
REMARK VINA RESULT:      -6.9      3.399      8.284
REMARK  8 active torsions:
REMARK  status: ('A' for Active; 'I' for Inactive)
REMARK    1  A    between atoms: C_2  and  C_4 
REMARK       I    between atoms: N_5  and  C_6 
REMARK    2  A    between atoms: C_6  and  C_7 
REMARK    3  A    between atoms: C_7  and  C_8 
REMARK    4  A    between atoms: C_7  and  N_20 
REMARK    5  A    between atoms: C_8  and  C_9 
REMARK    6  A    between atoms: C_12  and  O_13 
REMARK    7  A    between atoms: O_13  and  P_14 
REMARK    8  A    between atoms: P_14  and  O_16 
ROOT
HETATM    1  C           1     -21.241  -4.525  -9.331  0.00  0.00     0.279 C 
ENDROOT
BRANCH   1   2
HETATM    2  C           1     -21.548  -3.759 -10.594  0.00  0.00     0.251 C 
HETATM    3  N           1     -22.773  -3.889 -11.193  0.00  0.00    -0.336 N 
HETATM    4  C           1     -23.932  -3.014 -11.046  0.00  0.00     0.188 C 
HETATM    5  C           1     -23.204  -4.935 -12.117  0.00  0.00     0.127 C 
HETATM    6  C           1     -24.494  -2.920 -12.455  0.00  0.00     0.038 C 
HETATM    7  C           1     -24.019  -4.187 -13.157  0.00  0.00     0.022 C 
HETATM    8  O           1     -20.715  -3.031 -11.077  0.00  0.00    -0.271 OA
BRANCH   4   9
HETATM    9  C           1     -24.944  -3.617 -10.103  0.00  0.00     0.196 C 
HETATM   10  O           1     -25.936  -2.948  -9.740  0.00  0.00    -0.646 OA
HETATM   11  O           1     -24.791  -4.785  -9.685  0.00  0.00    -0.646 OA
ENDBRANCH   4   9
ENDBRANCH   1   2
BRANCH   1  12
HETATM   12  C           1     -21.594  -3.671  -8.120  0.00  0.00     0.081 C 
BRANCH  12  13
HETATM   13  C           1     -21.552  -4.516  -6.885  0.00  0.00    -0.056 A 
HETATM   14  C           1     -22.731  -5.414  -6.535  0.00  0.00     0.010 A 
HETATM   15  C           1     -22.689  -6.274  -5.279  0.00  0.00     0.038 A 
HETATM   16  C           1     -21.466  -6.235  -4.371  0.00  0.00     0.081 A 
HETATM   17  C           1     -20.286  -5.337  -4.720  0.00  0.00     0.038 A 
HETATM   18  C           1     -20.330  -4.478  -5.977  0.00  0.00     0.010 A 
BRANCH  16  19
HETATM   19  O           1     -21.428  -6.999  -3.253  0.00  0.00    -0.247 OA
BRANCH  19  20
HETATM   20  P           1     -20.792  -8.480  -3.367  0.00  0.00     0.411 P 
HETATM   21  O           1     -21.825  -9.487  -3.036  0.00  0.00    -0.624 OA
HETATM   22  O           1     -19.661  -8.605  -2.422  0.00  0.00    -0.624 OA
BRANCH  20  23
HETATM   23  O           1     -20.267  -8.724  -4.874  0.00  0.00    -0.300 OA
HETATM   24  H           1     -20.212  -9.660  -4.965  0.00  0.00     0.223 HD
ENDBRANCH  20  23
ENDBRANCH  19  20
ENDBRANCH  16  19
ENDBRANCH  12  13
ENDBRANCH   1  12
BRANCH   1  25
HETATM   25  N           1     -19.780  -4.863  -9.295  0.00  0.00    -0.066 N 
HETATM   26  H           1     -19.236  -4.027  -8.983  0.00  0.00     0.275 HD
HETATM   27  H           1     -19.621  -5.650  -8.627  0.00  0.00     0.275 HD
HETATM   28  H           1     -19.464  -5.147 -10.250  0.00  0.00     0.275 HD
ENDBRANCH   1  25
TORSDOF 8
ENDMDL
MODEL 7
REMARK VINA RESULT:      -6.6      4.153      6.118
REMARK  8 active torsions:
REMARK  status: ('A' for Active; 'I' for Inactive)
REMARK    1  A    between atoms: C_2  and  C_4 
REMARK       I    between atoms: N_5  and  C_6 
REMARK    2  A    between atoms: C_6  and  C_7 
REMARK    3  A    between atoms: C_7  and  C_8 
REMARK    4  A    between atoms: C_7  and  N_20 
REMARK    5  A    between atoms: C_8  and  C_9 
REMARK    6  A    between atoms: C_12  and  O_13 
REMARK    7  A    between atoms: O_13  and  P_14 
REMARK    8  A    between atoms: P_14  and  O_16 
ROOT
HETATM    1  C           1     -22.191  -8.734  -0.591  0.00  0.00     0.279 C 
ENDROOT
BRANCH   1   2
HETATM    2  C           1     -21.823 -10.026   0.097  0.00  0.00     0.251 C 
HETATM    3  N           1     -22.380 -11.205  -0.319  0.00  0.00    -0.336 N 
HETATM    4  C           1     -21.807 -12.184  -1.239  0.00  0.00     0.188 C 
HETATM    5  C           1     -23.677 -11.759   0.060  0.00  0.00     0.127 C 
HETATM    6  C           1     -22.168 -13.521  -0.614  0.00  0.00     0.038 C 
HETATM    7  C           1     -23.402 -13.242   0.236  0.00  0.00     0.022 C 
HETATM    8  O           1     -21.038 -10.019   1.014  0.00  0.00    -0.271 OA
BRANCH   4   9
HETATM    9  C           1     -22.416 -12.050  -2.613  0.00  0.00     0.196 C 
HETATM   10  O           1     -22.588 -10.917  -3.112  0.00  0.00    -0.646 OA
HETATM   11  O           1     -22.748 -13.072  -3.252  0.00  0.00    -0.646 OA
ENDBRANCH   4   9
ENDBRANCH   1   2
BRANCH   1  12
HETATM   12  C           1     -20.923  -7.983  -0.975  0.00  0.00     0.081 C 
BRANCH  12  13
HETATM   13  C           1     -20.950  -7.675  -2.440  0.00  0.00    -0.056 A 
HETATM   14  C           1     -20.041  -8.435  -3.396  0.00  0.00     0.010 A 
HETATM   15  C           1     -20.069  -8.121  -4.886  0.00  0.00     0.038 A 
HETATM   16  C           1     -21.006  -7.046  -5.420  0.00  0.00     0.081 A 
HETATM   17  C           1     -21.915  -6.285  -4.464  0.00  0.00     0.038 A 
HETATM   18  C           1     -21.887  -6.599  -2.974  0.00  0.00     0.010 A 
BRANCH  16  19
HETATM   19  O           1     -21.032  -6.766  -6.745  0.00  0.00    -0.247 OA
BRANCH  19  20
HETATM   20  P           1     -20.604  -5.282  -7.216  0.00  0.00     0.411 P 
HETATM   21  O           1     -20.047  -5.340  -8.587  0.00  0.00    -0.624 OA
HETATM   22  O           1     -19.580  -4.747  -6.291  0.00  0.00    -0.624 OA
BRANCH  20  23
HETATM   23  O           1     -21.900  -4.319  -7.202  0.00  0.00    -0.300 OA
HETATM   24  H           1     -21.567  -3.460  -7.398  0.00  0.00     0.223 HD
ENDBRANCH  20  23
ENDBRANCH  19  20
ENDBRANCH  16  19
ENDBRANCH  12  13
ENDBRANCH   1  12
BRANCH   1  25
HETATM   25  N           1     -23.010  -7.888   0.339  0.00  0.00    -0.066 N 
HETATM   26  H           1     -22.377  -7.274   0.899  0.00  0.00     0.275 HD
HETATM   27  H           1     -23.667  -7.296  -0.217  0.00  0.00     0.275 HD
HETATM   28  H           1     -23.555  -8.506   0.983  0.00  0.00     0.275 HD
ENDBRANCH   1  25
TORSDOF 8
ENDMDL
MODEL 8
REMARK VINA RESULT:      -6.5      2.156      3.636
REMARK  8 active torsions:
REMARK  status: ('A' for Active; 'I' for Inactive)
REMARK    1  A    between atoms: C_2  and  C_4 
REMARK       I    between atoms: N_5  and  C_6 
REMARK    2  A    between atoms: C_6  and  C_7 
REMARK    3  A    between atoms: C_7  and  C_8 
REMARK    4  A    between atoms: C_7  and  N_20 
REMARK    5  A    between atoms: C_8  and  C_9 
REMARK    6  A    between atoms: C_12  and  O_13 
REMARK    7  A    between atoms: O_13  and  P_14 
REMARK    8  A    between atoms: P_14  and  O_16 
ROOT
HETATM    1  C           1     -20.375  -7.566  -5.440  0.00  0.00     0.279 C 
ENDROOT
BRANCH   1   2
HETATM    2  C           1     -19.996  -8.250  -4.149  0.00  0.00     0.251 C 
HETATM    3  N           1     -19.329  -9.446  -4.179  0.00  0.00    -0.336 N 
HETATM    4  C           1     -17.890  -9.665  -4.066  0.00  0.00     0.188 C 
HETATM    5  C           1     -19.902 -10.780  -4.331  0.00  0.00     0.127 C 
HETATM    6  C           1     -17.780 -10.896  -3.182  0.00  0.00     0.038 C 
HETATM    7  C           1     -19.103 -11.632  -3.361  0.00  0.00     0.022 C 
HETATM    8  O           1     -20.280  -7.743  -3.091  0.00  0.00    -0.271 OA
BRANCH   4   9
HETATM    9  C           1     -17.277  -9.920  -5.421  0.00  0.00     0.196 C 
HETATM   10  O           1     -17.704  -9.307  -6.424  0.00  0.00    -0.646 OA
HETATM   11  O           1     -16.343 -10.742  -5.541  0.00  0.00    -0.646 OA
ENDBRANCH   4   9
ENDBRANCH   1   2
BRANCH   1  12
HETATM   12  C           1     -20.866  -6.155  -5.142  0.00  0.00     0.081 C 
BRANCH  12  13
HETATM   13  C           1     -21.204  -5.464  -6.426  0.00  0.00    -0.056 A 
HETATM   14  C           1     -22.580  -4.839  -6.617  0.00  0.00     0.010 A 
HETATM   15  C           1     -22.924  -4.136  -7.923  0.00  0.00     0.038 A 
HETATM   16  C           1     -21.891  -4.057  -9.040  0.00  0.00     0.081 A 
HETATM   17  C           1     -20.515  -4.682  -8.850  0.00  0.00     0.038 A 
HETATM   18  C           1     -20.172  -5.385  -7.543  0.00  0.00     0.010 A 
BRANCH  16  19
HETATM   19  O           1     -22.196  -3.432 -10.202  0.00  0.00    -0.247 OA
BRANCH  19  20
HETATM   20  P           1     -23.518  -3.910 -10.997  0.00  0.00     0.411 P 
HETATM   21  O           1     -23.746  -5.352 -10.754  0.00  0.00    -0.624 OA
HETATM   22  O           1     -23.332  -3.678 -12.447  0.00  0.00    -0.624 OA
BRANCH  20  23
HETATM   23  O           1     -24.793  -3.068 -10.475  0.00  0.00    -0.300 OA
HETATM   24  H           1     -25.234  -3.643  -9.873  0.00  0.00     0.223 HD
ENDBRANCH  20  23
ENDBRANCH  19  20
ENDBRANCH  16  19
ENDBRANCH  12  13
ENDBRANCH   1  12
BRANCH   1  25
HETATM   25  N           1     -21.467  -8.343  -6.114  0.00  0.00    -0.066 N 
HETATM   26  H           1     -21.884  -9.020  -5.436  0.00  0.00     0.275 HD
HETATM   27  H           1     -22.207  -7.685  -6.448  0.00  0.00     0.275 HD
HETATM   28  H           1     -21.072  -8.865  -6.929  0.00  0.00     0.275 HD
ENDBRANCH   1  25
TORSDOF 8
ENDMDL
MODEL 9
REMARK VINA RESULT:      -6.5      2.389      3.521
REMARK  8 active torsions:
REMARK  status: ('A' for Active; 'I' for Inactive)
REMARK    1  A    between atoms: C_2  and  C_4 
REMARK       I    between atoms: N_5  and  C_6 
REMARK    2  A    between atoms: C_6  and  C_7 
REMARK    3  A    between atoms: C_7  and  C_8 
REMARK    4  A    between atoms: C_7  and  N_20 
REMARK    5  A    between atoms: C_8  and  C_9 
REMARK    6  A    between atoms: C_12  and  O_13 
REMARK    7  A    between atoms: O_13  and  P_14 
REMARK    8  A    between atoms: P_14  and  O_16 
ROOT
HETATM    1  C           1     -21.543  -7.480  -3.134  0.00  0.00     0.279 C 
ENDROOT
BRANCH   1   2
HETATM    2  C           1     -20.649  -8.098  -2.087  0.00  0.00     0.251 C 
HETATM    3  N           1     -21.198  -8.667  -0.969  0.00  0.00    -0.336 N 
HETATM    4  C           1     -21.495 -10.079  -0.744  0.00  0.00     0.188 C 
HETATM    5  C           1     -21.614  -7.994   0.259  0.00  0.00     0.127 C 
HETATM    6  C           1     -21.082 -10.310   0.700  0.00  0.00     0.038 C 
HETATM    7  C           1     -21.165  -8.939   1.361  0.00  0.00     0.022 C 
HETATM    8  O           1     -19.451  -8.090  -2.234  0.00  0.00    -0.271 OA
BRANCH   4   9
HETATM    9  C           1     -22.967 -10.354  -0.933  0.00  0.00     0.196 C 
HETATM   10  O           1     -23.760 -10.189   0.019  0.00  0.00    -0.646 OA
HETATM   11  O           1     -23.393 -10.746  -2.041  0.00  0.00    -0.646 OA
ENDBRANCH   4   9
ENDBRANCH   1   2
BRANCH   1  12
HETATM   12  C           1     -21.090  -7.929  -4.518  0.00  0.00     0.081 C 
BRANCH  12  13
HETATM   13  C           1     -21.318  -6.823  -5.500  0.00  0.00    -0.056 A 
HETATM   14  C           1     -20.178  -6.344  -6.389  0.00  0.00     0.010 A 
HETATM   15  C           1     -20.411  -5.219  -7.388  0.00  0.00     0.038 A 
HETATM   16  C           1     -21.785  -4.572  -7.499  0.00  0.00     0.081 A 
HETATM   17  C           1     -22.926  -5.050  -6.611  0.00  0.00     0.038 A 
HETATM   18  C           1     -22.693  -6.176  -5.612  0.00  0.00     0.010 A 
BRANCH  16  19
HETATM   19  O           1     -21.993  -3.571  -8.388  0.00  0.00    -0.247 OA
BRANCH  19  20
HETATM   20  P           1     -23.114  -3.790  -9.530  0.00  0.00     0.411 P 
HETATM   21  O           1     -23.193  -5.228  -9.874  0.00  0.00    -0.624 OA
HETATM   22  O           1     -22.749  -3.014 -10.735  0.00  0.00    -0.624 OA
BRANCH  20  23
HETATM   23  O           1     -24.547  -3.289  -8.978  0.00  0.00    -0.300 OA
HETATM   24  H           1     -24.676  -3.760  -8.173  0.00  0.00     0.223 HD
ENDBRANCH  20  23
ENDBRANCH  19  20
ENDBRANCH  16  19
ENDBRANCH  12  13
ENDBRANCH   1  12
BRANCH   1  25
HETATM   25  N           1     -21.460  -5.985  -3.042  0.00  0.00    -0.066 N 
HETATM   26  H           1     -22.200  -5.557  -3.642  0.00  0.00     0.275 HD
HETATM   27  H           1     -21.602  -5.689  -2.050  0.00  0.00     0.275 HD
HETATM   28  H           1     -20.519  -5.667  -3.369  0.00  0.00     0.275 HD
ENDBRANCH   1  25
TORSDOF 8
ENDMDL
