MODEL 1
REMARK VINA RESULT:      -6.1      0.000      0.000
REMARK  6 active torsions:
REMARK  status: ('A' for Active; 'I' for Inactive)
REMARK    1  A    between atoms: N_2  and  C_8 
REMARK       I    between atoms: N_2  and  C_3 
REMARK    2  A    between atoms: C_3  and  C_4 
REMARK    3  A    between atoms: C_4  and  N_6 
REMARK    4  A    between atoms: C_8  and  C_12 
REMARK    5  A    between atoms: C_8  and  C_9 
REMARK    6  A    between atoms: C_11  and  C_12 
ROOT
HETATM    1  N           1     -35.702  -0.544 -12.409  0.00  0.00    -0.344 N 
HETATM    2  C           1     -36.414  -0.392 -13.569  0.00  0.00     0.248 C 
HETATM    3  O           1     -37.543  -0.814 -13.643  0.00  0.00    -0.271 OA
HETATM    4  H           1     -34.755  -0.191 -12.347  0.00  0.00     0.163 HD
ENDROOT
BRANCH   1   5
HETATM    5  C           1     -36.302  -1.212 -11.271  0.00  0.00     0.189 C 
BRANCH   5   6
HETATM    6  C           1     -35.282  -2.148 -10.636  0.00  0.00     0.014 C 
HETATM    7  C           1     -35.703  -3.592 -10.875  0.00  0.00     0.012 C 
BRANCH   6   8
HETATM    8  C           1     -33.915  -1.906 -11.261  0.00  0.00     0.002 C 
HETATM    9  C           1     -33.141  -3.217 -11.313  0.00  0.00     0.005 C 
ENDBRANCH   6   8
ENDBRANCH   5   6
BRANCH   5  10
HETATM   10  C           1     -36.740  -0.182 -10.259  0.00  0.00     0.197 C 
HETATM   11  O           1     -37.664   0.613 -10.535  0.00  0.00    -0.646 OA
HETATM   12  O           1     -36.178  -0.125  -9.144  0.00  0.00    -0.646 OA
ENDBRANCH   5  10
ENDBRANCH   1   5
BRANCH   2  13
HETATM   13  C           1     -35.788   0.302 -14.753  0.00  0.00     0.270 C 
HETATM   14  C           1     -34.767   1.321 -14.264  0.00  0.00     0.050 C 
BRANCH  13  15
HETATM   15  N           1     -36.854   1.002 -15.542  0.00  0.00    -0.067 N 
HETATM   16  H           1     -36.447   1.365 -16.434  0.00  0.00     0.275 HD
HETATM   17  H           1     -37.625   0.331 -15.759  0.00  0.00     0.275 HD
HETATM   18  H           1     -37.233   1.801 -14.983  0.00  0.00     0.275 HD
ENDBRANCH  13  15
ENDBRANCH   2  13
TORSDOF 6
ENDMDL
MODEL 2
REMARK VINA RESULT:      -5.9     12.719     15.045
REMARK  6 active torsions:
REMARK  status: ('A' for Active; 'I' for Inactive)
REMARK    1  A    between atoms: N_2  and  C_8 
REMARK       I    between atoms: N_2  and  C_3 
REMARK    2  A    between atoms: C_3  and  C_4 
REMARK    3  A    between atoms: C_4  and  N_6 
REMARK    4  A    between atoms: C_8  and  C_12 
REMARK    5  A    between atoms: C_8  and  C_9 
REMARK    6  A    between atoms: C_11  and  C_12 
ROOT
HETATM    1  N           1     -22.268  -4.815  -8.874  0.00  0.00    -0.344 N 
HETATM    2  C           1     -21.649  -4.406  -7.724  0.00  0.00     0.248 C 
HETATM    3  O           1     -21.569  -3.229  -7.467  0.00  0.00    -0.271 OA
HETATM    4  H           1     -22.335  -5.801  -9.090  0.00  0.00     0.163 HD
ENDROOT
BRANCH   1   5
HETATM    5  C           1     -22.827  -3.834  -9.785  0.00  0.00     0.189 C 
BRANCH   5   6
HETATM    6  C           1     -22.403  -4.166 -11.210  0.00  0.00     0.014 C 
HETATM    7  C           1     -22.884  -3.068 -12.149  0.00  0.00     0.012 C 
BRANCH   6   8
HETATM    8  C           1     -20.885  -4.261 -11.276  0.00  0.00     0.002 C 
HETATM    9  C           1     -20.281  -2.867 -11.168  0.00  0.00     0.005 C 
ENDBRANCH   6   8
ENDBRANCH   5   6
BRANCH   5  10
HETATM   10  C           1     -24.333  -3.862  -9.689  0.00  0.00     0.197 C 
HETATM   11  O           1     -24.964  -2.809  -9.457  0.00  0.00    -0.646 OA
HETATM   12  O           1     -24.949  -4.939  -9.842  0.00  0.00    -0.646 OA
ENDBRANCH   5  10
ENDBRANCH   1   5
BRANCH   2  13
HETATM   13  C           1     -21.067  -5.426  -6.777  0.00  0.00     0.270 C 
HETATM   14  C           1     -20.389  -4.713  -5.615  0.00  0.00     0.050 C 
BRANCH  13  15
HETATM   15  N           1     -20.059  -6.265  -7.505  0.00  0.00    -0.067 N 
HETATM   16  H           1     -20.319  -7.274  -7.422  0.00  0.00     0.275 HD
HETATM   17  H           1     -20.041  -5.992  -8.514  0.00  0.00     0.275 HD
HETATM   18  H           1     -19.113  -6.116  -7.085  0.00  0.00     0.275 HD
ENDBRANCH  13  15
ENDBRANCH   2  13
TORSDOF 6
ENDMDL
MODEL 3
REMARK VINA RESULT:      -5.8      1.856      4.251
REMARK  6 active torsions:
REMARK  status: ('A' for Active; 'I' for Inactive)
REMARK    1  A    between atoms: N_2  and  C_8 
REMARK       I    between atoms: N_2  and  C_3 
REMARK    2  A    between atoms: C_3  and  C_4 
REMARK    3  A    between atoms: C_4  and  N_6 
REMARK    4  A    between atoms: C_8  and  C_12 
REMARK    5  A    between atoms: C_8  and  C_9 
REMARK    6  A    between atoms: C_11  and  C_12 
ROOT
HETATM    1  N           1     -35.273  -1.714 -12.562  0.00  0.00    -0.344 N 
HETATM    2  C           1     -34.264  -2.424 -11.969  0.00  0.00     0.248 C 
HETATM    3  O           1     -33.573  -1.901 -11.127  0.00  0.00    -0.271 OA
HETATM    4  H           1     -35.853  -2.151 -13.267  0.00  0.00     0.163 HD
ENDROOT
BRANCH   1   5
HETATM    5  C           1     -35.512  -0.336 -12.181  0.00  0.00     0.189 C 
BRANCH   5   6
HETATM    6  C           1     -35.877   0.476 -13.416  0.00  0.00     0.014 C 
HETATM    7  C           1     -34.636   1.191 -13.937  0.00  0.00     0.012 C 
BRANCH   6   8
HETATM    8  C           1     -36.416  -0.455 -14.493  0.00  0.00     0.002 C 
HETATM    9  C           1     -35.752  -0.131 -15.825  0.00  0.00     0.005 C 
ENDBRANCH   6   8
ENDBRANCH   5   6
BRANCH   5  10
HETATM   10  C           1     -36.647  -0.279 -11.188  0.00  0.00     0.197 C 
HETATM   11  O           1     -37.627  -1.045 -11.315  0.00  0.00    -0.646 OA
HETATM   12  O           1     -36.608   0.534 -10.240  0.00  0.00    -0.646 OA
ENDBRANCH   5  10
ENDBRANCH   1   5
BRANCH   2  13
HETATM   13  C           1     -34.015  -3.858 -12.366  0.00  0.00     0.270 C 
HETATM   14  C           1     -32.710  -4.338 -11.747  0.00  0.00     0.050 C 
BRANCH  13  15
HETATM   15  N           1     -33.925  -3.954 -13.861  0.00  0.00    -0.067 N 
HETATM   16  H           1     -32.929  -4.101 -14.141  0.00  0.00     0.275 HD
HETATM   17  H           1     -34.504  -4.757 -14.194  0.00  0.00     0.275 HD
HETATM   18  H           1     -34.278  -3.067 -14.288  0.00  0.00     0.275 HD
ENDBRANCH  13  15
ENDBRANCH   2  13
TORSDOF 6
ENDMDL
MODEL 4
REMARK VINA RESULT:      -5.5      2.554      4.659
REMARK  6 active torsions:
REMARK  status: ('A' for Active; 'I' for Inactive)
REMARK    1  A    between atoms: N_2  and  C_8 
REMARK       I    between atoms: N_2  and  C_3 
REMARK    2  A    between atoms: C_3  and  C_4 
REMARK    3  A    between atoms: C_4  and  N_6 
REMARK    4  A    between atoms: C_8  and  C_12 
REMARK    5  A    between atoms: C_8  and  C_9 
REMARK    6  A    between atoms: C_11  and  C_12 
ROOT
HETATM    1  N           1     -34.726  -1.433 -12.091  0.00  0.00    -0.344 N 
HETATM    2  C           1     -34.222  -2.679 -12.353  0.00  0.00     0.248 C 
HETATM    3  O           1     -34.593  -3.286 -13.329  0.00  0.00    -0.271 OA
HETATM    4  H           1     -34.416  -0.923 -11.274  0.00  0.00     0.163 HD
ENDROOT
BRANCH   1   5
HETATM    5  C           1     -35.705  -0.844 -12.984  0.00  0.00     0.189 C 
BRANCH   5   6
HETATM    6  C           1     -36.779  -0.139 -12.165  0.00  0.00     0.014 C 
HETATM    7  C           1     -38.061  -0.050 -12.983  0.00  0.00     0.012 C 
BRANCH   6   8
HETATM    8  C           1     -37.043  -0.929 -10.890  0.00  0.00     0.002 C 
HETATM    9  C           1     -37.062   0.020  -9.699  0.00  0.00     0.005 C 
ENDBRANCH   6   8
ENDBRANCH   5   6
BRANCH   5  10
HETATM   10  C           1     -35.023   0.156 -13.886  0.00  0.00     0.197 C 
HETATM   11  O           1     -34.804  -0.130 -15.083  0.00  0.00    -0.646 OA
HETATM   12  O           1     -34.678   1.269 -13.436  0.00  0.00    -0.646 OA
ENDBRANCH   5  10
ENDBRANCH   1   5
BRANCH   2  13
HETATM   13  C           1     -33.204  -3.291 -11.423  0.00  0.00     0.270 C 
HETATM   14  C           1     -32.360  -4.302 -12.189  0.00  0.00     0.050 C 
BRANCH  13  15
HETATM   15  N           1     -33.911  -3.982 -10.295  0.00  0.00    -0.067 N 
HETATM   16  H           1     -34.716  -4.532 -10.672  0.00  0.00     0.275 HD
HETATM   17  H           1     -33.246  -4.627  -9.810  0.00  0.00     0.275 HD
HETATM   18  H           1     -34.264  -3.269  -9.617  0.00  0.00     0.275 HD
ENDBRANCH  13  15
ENDBRANCH   2  13
TORSDOF 6
ENDMDL
MODEL 5
REMARK VINA RESULT:      -5.4      1.749      2.401
REMARK  6 active torsions:
REMARK  status: ('A' for Active; 'I' for Inactive)
REMARK    1  A    between atoms: N_2  and  C_8 
REMARK       I    between atoms: N_2  and  C_3 
REMARK    2  A    between atoms: C_3  and  C_4 
REMARK    3  A    between atoms: C_4  and  N_6 
REMARK    4  A    between atoms: C_8  and  C_12 
REMARK    5  A    between atoms: C_8  and  C_9 
REMARK    6  A    between atoms: C_11  and  C_12 
ROOT
HETATM    1  N           1     -34.753  -1.886 -13.133  0.00  0.00    -0.344 N 
HETATM    2  C           1     -35.671  -1.078 -13.749  0.00  0.00     0.248 C 
HETATM    3  O           1     -36.773  -0.945 -13.271  0.00  0.00    -0.271 OA
HETATM    4  H           1     -33.829  -1.998 -13.533  0.00  0.00     0.163 HD
ENDROOT
BRANCH   1   5
HETATM    5  C           1     -35.103  -2.583 -11.911  0.00  0.00     0.189 C 
BRANCH   5   6
HETATM    6  C           1     -34.524  -3.991 -11.946  0.00  0.00     0.014 C 
HETATM    7  C           1     -33.126  -3.949 -12.548  0.00  0.00     0.012 C 
BRANCH   6   8
HETATM    8  C           1     -34.451  -4.544 -10.530  0.00  0.00     0.002 C 
HETATM    9  C           1     -34.271  -6.056 -10.582  0.00  0.00     0.005 C 
ENDBRANCH   6   8
ENDBRANCH   5   6
BRANCH   5  10
HETATM   10  C           1     -34.536  -1.836 -10.728  0.00  0.00     0.197 C 
HETATM   11  O           1     -33.299  -1.704 -10.606  0.00  0.00    -0.646 OA
HETATM   12  O           1     -35.304  -1.349  -9.871  0.00  0.00    -0.646 OA
ENDBRANCH   5  10
ENDBRANCH   1   5
BRANCH   2  13
HETATM   13  C           1     -35.307  -0.354 -15.021  0.00  0.00     0.270 C 
HETATM   14  C           1     -35.150   1.133 -14.732  0.00  0.00     0.050 C 
BRANCH  13  15
HETATM   15  N           1     -36.392  -0.554 -16.037  0.00  0.00    -0.067 N 
HETATM   16  H           1     -35.987  -0.988 -16.898  0.00  0.00     0.275 HD
HETATM   17  H           1     -37.127  -1.183 -15.643  0.00  0.00     0.275 HD
HETATM   18  H           1     -36.815   0.370 -16.281  0.00  0.00     0.275 HD
ENDBRANCH  13  15
ENDBRANCH   2  13
TORSDOF 6
ENDMDL
MODEL 6
REMARK VINA RESULT:      -5.0      2.209      3.269
REMARK  6 active torsions:
REMARK  status: ('A' for Active; 'I' for Inactive)
REMARK    1  A    between atoms: N_2  and  C_8 
REMARK       I    between atoms: N_2  and  C_3 
REMARK    2  A    between atoms: C_3  and  C_4 
REMARK    3  A    between atoms: C_4  and  N_6 
REMARK    4  A    between atoms: C_8  and  C_12 
REMARK    5  A    between atoms: C_8  and  C_9 
REMARK    6  A    between atoms: C_11  and  C_12 
ROOT
HETATM    1  N           1     -35.989  -0.593 -13.400  0.00  0.00    -0.344 N 
HETATM    2  C           1     -35.349  -0.005 -14.458  0.00  0.00     0.248 C 
HETATM    3  O           1     -34.371   0.677 -14.267  0.00  0.00    -0.271 OA
HETATM    4  H           1     -36.809  -1.164 -13.559  0.00  0.00     0.163 HD
ENDROOT
BRANCH   1   5
HETATM    5  C           1     -35.493  -0.396 -12.052  0.00  0.00     0.189 C 
BRANCH   5   6
HETATM    6  C           1     -36.640   0.039 -11.148  0.00  0.00     0.014 C 
HETATM    7  C           1     -37.964  -0.194 -11.864  0.00  0.00     0.012 C 
BRANCH   6   8
HETATM    8  C           1     -36.607  -0.775  -9.862  0.00  0.00     0.002 C 
HETATM    9  C           1     -36.874   0.140  -8.674  0.00  0.00     0.005 C 
ENDBRANCH   6   8
ENDBRANCH   5   6
BRANCH   5  10
HETATM   10  C           1     -34.911  -1.690 -11.538  0.00  0.00     0.197 C 
HETATM   11  O           1     -33.866  -1.677 -10.853  0.00  0.00    -0.646 OA
HETATM   12  O           1     -35.474  -2.775 -11.799  0.00  0.00    -0.646 OA
ENDBRANCH   5  10
ENDBRANCH   1   5
BRANCH   2  13
HETATM   13  C           1     -35.866  -0.209 -15.861  0.00  0.00     0.270 C 
HETATM   14  C           1     -37.378  -0.382 -15.825  0.00  0.00     0.050 C 
BRANCH  13  15
HETATM   15  N           1     -35.236  -1.435 -16.451  0.00  0.00    -0.067 N 
HETATM   16  H           1     -35.550  -1.546 -17.442  0.00  0.00     0.275 HD
HETATM   17  H           1     -34.196  -1.340 -16.424  0.00  0.00     0.275 HD
HETATM   18  H           1     -35.525  -2.275 -15.900  0.00  0.00     0.275 HD
ENDBRANCH  13  15
ENDBRANCH   2  13
TORSDOF 6
ENDMDL
MODEL 7
REMARK VINA RESULT:      -5.0     15.807     17.571
REMARK  6 active torsions:
REMARK  status: ('A' for Active; 'I' for Inactive)
REMARK    1  A    between atoms: N_2  and  C_8 
REMARK       I    between atoms: N_2  and  C_3 
REMARK    2  A    between atoms: C_3  and  C_4 
REMARK    3  A    between atoms: C_4  and  N_6 
REMARK    4  A    between atoms: C_8  and  C_12 
REMARK    5  A    between atoms: C_8  and  C_9 
REMARK    6  A    between atoms: C_11  and  C_12 
ROOT
HETATM    1  N           1     -21.597  -6.550  -5.538  0.00  0.00    -0.344 N 
HETATM    2  C           1     -21.127  -5.522  -6.311  0.00  0.00     0.248 C 
HETATM    3  O           1     -19.959  -5.219  -6.267  0.00  0.00    -0.271 OA
HETATM    4  H           1     -22.576  -6.804  -5.574  0.00  0.00     0.163 HD
ENDROOT
BRANCH   1   5
HETATM    5  C           1     -20.693  -7.273  -4.666  0.00  0.00     0.189 C 
BRANCH   5   6
HETATM    6  C           1     -21.402  -7.600  -3.358  0.00  0.00     0.014 C 
HETATM    7  C           1     -20.423  -8.277  -2.408  0.00  0.00     0.012 C 
BRANCH   6   8
HETATM    8  C           1     -21.917  -6.314  -2.727  0.00  0.00     0.002 C 
HETATM    9  C           1     -22.289  -6.575  -1.273  0.00  0.00     0.005 C 
ENDBRANCH   6   8
ENDBRANCH   5   6
BRANCH   5  10
HETATM   10  C           1     -20.264  -8.554  -5.340  0.00  0.00     0.197 C 
HETATM   11  O           1     -21.116  -9.420  -5.636  0.00  0.00    -0.646 OA
HETATM   12  O           1     -19.057  -8.749  -5.601  0.00  0.00    -0.646 OA
ENDBRANCH   5  10
ENDBRANCH   1   5
BRANCH   2  13
HETATM   13  C           1     -22.069  -4.769  -7.218  0.00  0.00     0.270 C 
HETATM   14  C           1     -21.524  -3.368  -7.466  0.00  0.00     0.050 C 
BRANCH  13  15
HETATM   15  N           1     -23.417  -4.672  -6.568  0.00  0.00    -0.067 N 
HETATM   16  H           1     -23.379  -3.981  -5.785  0.00  0.00     0.275 HD
HETATM   17  H           1     -24.123  -4.361  -7.273  0.00  0.00     0.275 HD
HETATM   18  H           1     -23.690  -5.608  -6.191  0.00  0.00     0.275 HD
ENDBRANCH  13  15
ENDBRANCH   2  13
TORSDOF 6
ENDMDL
MODEL 8
REMARK VINA RESULT:      -4.8      2.366      3.429
REMARK  6 active torsions:
REMARK  status: ('A' for Active; 'I' for Inactive)
REMARK    1  A    between atoms: N_2  and  C_8 
REMARK       I    between atoms: N_2  and  C_3 
REMARK    2  A    between atoms: C_3  and  C_4 
REMARK    3  A    between atoms: C_4  and  N_6 
REMARK    4  A    between atoms: C_8  and  C_12 
REMARK    5  A    between atoms: C_8  and  C_9 
REMARK    6  A    between atoms: C_11  and  C_12 
ROOT
HETATM    1  N           1     -35.779  -1.416 -13.236  0.00  0.00    -0.344 N 
HETATM    2  C           1     -35.503  -0.294 -13.971  0.00  0.00     0.248 C 
HETATM    3  O           1     -34.374   0.134 -14.017  0.00  0.00    -0.271 OA
HETATM    4  H           1     -36.724  -1.776 -13.197  0.00  0.00     0.163 HD
ENDROOT
BRANCH   1   5
HETATM    5  C           1     -34.718  -2.090 -12.513  0.00  0.00     0.189 C 
BRANCH   5   6
HETATM    6  C           1     -35.129  -2.267 -11.057  0.00  0.00     0.014 C 
HETATM    7  C           1     -33.995  -1.806 -10.151  0.00  0.00     0.012 C 
BRANCH   6   8
HETATM    8  C           1     -36.373  -1.435 -10.778  0.00  0.00     0.002 C 
HETATM    9  C           1     -36.198  -0.683  -9.465  0.00  0.00     0.005 C 
ENDBRANCH   6   8
ENDBRANCH   5   6
BRANCH   5  10
HETATM   10  C           1     -34.467  -3.442 -13.134  0.00  0.00     0.197 C 
HETATM   11  O           1     -34.321  -3.545 -14.371  0.00  0.00    -0.646 OA
HETATM   12  O           1     -34.408  -4.460 -12.411  0.00  0.00    -0.646 OA
ENDBRANCH   5  10
ENDBRANCH   1   5
BRANCH   2  13
HETATM   13  C           1     -36.607   0.406 -14.722  0.00  0.00     0.270 C 
HETATM   14  C           1     -37.949   0.067 -14.087  0.00  0.00     0.050 C 
BRANCH  13  15
HETATM   15  N           1     -36.603  -0.046 -16.153  0.00  0.00    -0.067 N 
HETATM   16  H           1     -35.875  -0.786 -16.283  0.00  0.00     0.275 HD
HETATM   17  H           1     -37.541  -0.434 -16.398  0.00  0.00     0.275 HD
HETATM   18  H           1     -36.386   0.767 -16.774  0.00  0.00     0.275 HD
ENDBRANCH  13  15
ENDBRANCH   2  13
TORSDOF 6
ENDMDL
MODEL 9
REMARK VINA RESULT:      -4.7      2.810      5.173
REMARK  6 active torsions:
REMARK  status: ('A' for Active; 'I' for Inactive)
REMARK    1  A    between atoms: N_2  and  C_8 
REMARK       I    between atoms: N_2  and  C_3 
REMARK    2  A    between atoms: C_3  and  C_4 
REMARK    3  A    between atoms: C_4  and  N_6 
REMARK    4  A    between atoms: C_8  and  C_12 
REMARK    5  A    between atoms: C_8  and  C_9 
REMARK    6  A    between atoms: C_11  and  C_12 
ROOT
HETATM    1  N           1     -34.567  -1.737 -13.209  0.00  0.00    -0.344 N 
HETATM    2  C           1     -34.600  -2.796 -12.342  0.00  0.00     0.248 C 
HETATM    3  O           1     -35.538  -3.557 -12.353  0.00  0.00    -0.271 OA
HETATM    4  H           1     -33.781  -1.099 -13.200  0.00  0.00     0.163 HD
ENDROOT
BRANCH   1   5
HETATM    5  C           1     -35.659  -1.529 -14.141  0.00  0.00     0.189 C 
BRANCH   5   6
HETATM    6  C           1     -36.181  -0.105 -14.000  0.00  0.00     0.014 C 
HETATM    7  C           1     -37.581  -0.136 -13.402  0.00  0.00     0.012 C 
BRANCH   6   8
HETATM    8  C           1     -35.255   0.686 -13.085  0.00  0.00     0.002 C 
HETATM    9  C           1     -34.515   1.740 -13.897  0.00  0.00     0.005 C 
ENDBRANCH   6   8
ENDBRANCH   5   6
BRANCH   5  10
HETATM   10  C           1     -35.164  -1.746 -15.550  0.00  0.00     0.197 C 
HETATM   11  O           1     -34.800  -2.884 -15.916  0.00  0.00    -0.646 OA
HETATM   12  O           1     -35.118  -0.787 -16.350  0.00  0.00    -0.646 OA
ENDBRANCH   5  10
ENDBRANCH   1   5
BRANCH   2  13
HETATM   13  C           1     -33.464  -3.012 -11.372  0.00  0.00     0.270 C 
HETATM   14  C           1     -33.744  -4.249 -10.530  0.00  0.00     0.050 C 
BRANCH  13  15
HETATM   15  N           1     -33.338  -1.815 -10.476  0.00  0.00    -0.067 N 
HETATM   16  H           1     -33.036  -0.988 -11.040  0.00  0.00     0.275 HD
HETATM   17  H           1     -34.261  -1.615 -10.030  0.00  0.00     0.275 HD
HETATM   18  H           1     -32.626  -2.009  -9.736  0.00  0.00     0.275 HD
ENDBRANCH  13  15
ENDBRANCH   2  13
TORSDOF 6
ENDMDL
