MODEL 1
REMARK VINA RESULT:      -5.3      0.000      0.000
REMARK  11 active torsions:
REMARK  status: ('A' for Active; 'I' for Inactive)
REMARK    1  A    between atoms: C_3  and  C_19 
REMARK    2  A    between atoms: C_3  and  C_17 
REMARK    3  A    between atoms: C_3  and  N_11 
REMARK    4  A    between atoms: Se_6  and  C_20 
REMARK    5  A    between atoms: N_7  and  C_8 
REMARK    6  A    between atoms: C_8  and  C_24 
REMARK       I    between atoms: C_10  and  N_11 
REMARK    7  A    between atoms: C_10  and  C_22 
REMARK    8  A    between atoms: N_16  and  C_22 
REMARK    9  A    between atoms: C_19  and  C_20 
REMARK   10  A    between atoms: C_22  and  C_23 
REMARK   11  A    between atoms: C_23  and  C_24 
ROOT
HETATM    1  H           1     -22.273  -6.146  -9.077  0.00  0.00     0.163 HD
HETATM    2  C           1     -23.179  -4.287  -9.007  0.00  0.00     0.249 C 
HETATM    3  N           1     -22.231  -5.218  -8.677  0.00  0.00    -0.345 N 
HETATM    4  O           1     -23.128  -3.178  -8.530  0.00  0.00    -0.271 OA
ENDROOT
BRANCH   2   5
HETATM    5  C           1     -24.286  -4.645  -9.968  0.00  0.00     0.274 C 
BRANCH   5   6
HETATM    6  N           1     -25.385  -3.630  -9.863  0.00  0.00    -0.067 N 
HETATM    7  H           1     -25.958  -3.824  -9.010  0.00  0.00     0.275 HD
HETATM    8  H           1     -25.992  -3.685 -10.712  0.00  0.00     0.275 HD
HETATM    9  H           1     -24.970  -2.674  -9.793  0.00  0.00     0.275 HD
ENDBRANCH   5   6
BRANCH   5  10
HETATM   10  C           1     -23.742  -4.659 -11.390  0.00  0.00     0.044 C 
BRANCH  10  11
HETATM   11  C           1     -23.931  -3.284 -12.019  0.00  0.00     0.030 C 
BRANCH  11  12
HETATM   12  C           1     -22.598  -2.787 -12.563  0.00  0.00     0.230 C 
BRANCH  12  13
HETATM   13  N           1     -21.548  -3.836 -12.351  0.00  0.00    -0.079 N 
HETATM   14  H           1     -21.980  -4.678 -11.908  0.00  0.00     0.274 HD
HETATM   15  H           1     -20.800  -3.458 -11.727  0.00  0.00     0.274 HD
HETATM   16  H           1     -21.131  -4.103 -13.273  0.00  0.00     0.274 HD
ENDBRANCH  12  13
ENDBRANCH  11  12
ENDBRANCH  10  11
ENDBRANCH   5  10
ENDBRANCH   2   5
BRANCH   3  17
HETATM   17  C           1     -21.167  -4.873  -7.755  0.00  0.00     0.185 C 
BRANCH  17  18
HETATM   18  C           1     -20.908  -6.044  -6.816  0.00  0.00     0.036 C 
BRANCH  18  19
HETATM   19  C           1     -21.182  -5.616  -5.381  0.00  0.00     0.003 C 
BRANCH  19  20
HETATM   20 Se           1     -21.640  -7.180  -4.312  0.00  0.00     0.000 Se
HETATM   21  C           1     -21.666  -6.218  -2.617  0.00  0.00     0.000 C 
ENDBRANCH  19  20
ENDBRANCH  18  19
ENDBRANCH  17  18
BRANCH  17  22
HETATM   22  C           1     -19.910  -4.562  -8.531  0.00  0.00     0.196 C 
HETATM   23  O           1     -19.906  -4.654  -9.778  0.00  0.00    -0.646 OA
HETATM   24  O           1     -18.873  -4.211  -7.927  0.00  0.00    -0.646 OA
ENDBRANCH  17  22
ENDBRANCH   3  17
TORSDOF 11
ENDMDL
MODEL 2
REMARK VINA RESULT:      -5.1      3.622      5.241
REMARK  11 active torsions:
REMARK  status: ('A' for Active; 'I' for Inactive)
REMARK    1  A    between atoms: C_3  and  C_19 
REMARK    2  A    between atoms: C_3  and  C_17 
REMARK    3  A    between atoms: C_3  and  N_11 
REMARK    4  A    between atoms: Se_6  and  C_20 
REMARK    5  A    between atoms: N_7  and  C_8 
REMARK    6  A    between atoms: C_8  and  C_24 
REMARK       I    between atoms: C_10  and  N_11 
REMARK    7  A    between atoms: C_10  and  C_22 
REMARK    8  A    between atoms: N_16  and  C_22 
REMARK    9  A    between atoms: C_19  and  C_20 
REMARK   10  A    between atoms: C_22  and  C_23 
REMARK   11  A    between atoms: C_23  and  C_24 
ROOT
HETATM    1  H           1     -19.845  -6.901  -4.829  0.00  0.00     0.163 HD
HETATM    2  C           1     -21.362  -5.775  -5.675  0.00  0.00     0.249 C 
HETATM    3  N           1     -20.841  -6.724  -4.837  0.00  0.00    -0.345 N 
HETATM    4  O           1     -22.551  -5.564  -5.684  0.00  0.00    -0.271 OA
ENDROOT
BRANCH   2   5
HETATM    5  C           1     -20.450  -4.992  -6.587  0.00  0.00     0.274 C 
BRANCH   5   6
HETATM    6  N           1     -19.939  -5.890  -7.672  0.00  0.00    -0.067 N 
HETATM    7  H           1     -19.619  -5.312  -8.483  0.00  0.00     0.275 HD
HETATM    8  H           1     -20.703  -6.533  -7.982  0.00  0.00     0.275 HD
HETATM    9  H           1     -19.136  -6.454  -7.310  0.00  0.00     0.275 HD
ENDBRANCH   5   6
BRANCH   5  10
HETATM   10  C           1     -21.222  -3.835  -7.207  0.00  0.00     0.044 C 
BRANCH  10  11
HETATM   11  C           1     -21.448  -4.112  -8.688  0.00  0.00     0.030 C 
BRANCH  11  12
HETATM   12  C           1     -22.863  -3.700  -9.072  0.00  0.00     0.230 C 
BRANCH  12  13
HETATM   13  N           1     -23.813  -4.092  -7.980  0.00  0.00    -0.079 N 
HETATM   14  H           1     -23.295  -4.617  -7.239  0.00  0.00     0.274 HD
HETATM   15  H           1     -24.567  -4.698  -8.374  0.00  0.00     0.274 HD
HETATM   16  H           1     -24.238  -3.233  -7.563  0.00  0.00     0.274 HD
ENDBRANCH  12  13
ENDBRANCH  11  12
ENDBRANCH  10  11
ENDBRANCH   5  10
ENDBRANCH   2   5
BRANCH   3  17
HETATM   17  C           1     -21.718  -7.476  -3.961  0.00  0.00     0.185 C 
BRANCH  17  18
HETATM   18  C           1     -21.277  -8.934  -3.930  0.00  0.00     0.036 C 
BRANCH  18  19
HETATM   19  C           1     -20.020  -9.103  -4.774  0.00  0.00     0.003 C 
BRANCH  19  20
HETATM   20 Se           1     -18.495  -9.441  -3.607  0.00  0.00     0.000 Se
HETATM   21  C           1     -17.301  -9.979  -5.051  0.00  0.00     0.000 C 
ENDBRANCH  19  20
ENDBRANCH  18  19
ENDBRANCH  17  18
BRANCH  17  22
HETATM   22  C           1     -21.651  -6.901  -2.568  0.00  0.00     0.196 C 
HETATM   23  O           1     -20.873  -7.397  -1.723  0.00  0.00    -0.646 OA
HETATM   24  O           1     -22.372  -5.928  -2.257  0.00  0.00    -0.646 OA
ENDBRANCH  17  22
ENDBRANCH   3  17
TORSDOF 11
ENDMDL
MODEL 3
REMARK VINA RESULT:      -5.0      2.608      3.519
REMARK  11 active torsions:
REMARK  status: ('A' for Active; 'I' for Inactive)
REMARK    1  A    between atoms: C_3  and  C_19 
REMARK    2  A    between atoms: C_3  and  C_17 
REMARK    3  A    between atoms: C_3  and  N_11 
REMARK    4  A    between atoms: Se_6  and  C_20 
REMARK    5  A    between atoms: N_7  and  C_8 
REMARK    6  A    between atoms: C_8  and  C_24 
REMARK       I    between atoms: C_10  and  N_11 
REMARK    7  A    between atoms: C_10  and  C_22 
REMARK    8  A    between atoms: N_16  and  C_22 
REMARK    9  A    between atoms: C_19  and  C_20 
REMARK   10  A    between atoms: C_22  and  C_23 
REMARK   11  A    between atoms: C_23  and  C_24 
ROOT
HETATM    1  H           1     -21.673  -7.207  -7.384  0.00  0.00     0.163 HD
HETATM    2  C           1     -21.129  -5.234  -7.078  0.00  0.00     0.249 C 
HETATM    3  N           1     -21.248  -6.554  -6.738  0.00  0.00    -0.345 N 
HETATM    4  O           1     -20.622  -4.455  -6.308  0.00  0.00    -0.271 OA
ENDROOT
BRANCH   2   5
HETATM    5  C           1     -21.632  -4.752  -8.417  0.00  0.00     0.274 C 
BRANCH   5   6
HETATM    6  N           1     -22.395  -3.475  -8.233  0.00  0.00    -0.067 N 
HETATM    7  H           1     -23.227  -3.471  -8.866  0.00  0.00     0.275 HD
HETATM    8  H           1     -21.777  -2.663  -8.462  0.00  0.00     0.275 HD
HETATM    9  H           1     -22.713  -3.399  -7.240  0.00  0.00     0.275 HD
ENDBRANCH   5   6
BRANCH   5  10
HETATM   10  C           1     -20.450  -4.507  -9.346  0.00  0.00     0.044 C 
BRANCH  10  11
HETATM   11  C           1     -20.887  -3.612 -10.499  0.00  0.00     0.030 C 
BRANCH  11  12
HETATM   12  C           1     -21.654  -4.439 -11.522  0.00  0.00     0.230 C 
BRANCH  12  13
HETATM   13  N           1     -21.787  -3.661 -12.797  0.00  0.00    -0.079 N 
HETATM   14  H           1     -21.914  -4.322 -13.598  0.00  0.00     0.274 HD
HETATM   15  H           1     -20.925  -3.091 -12.949  0.00  0.00     0.274 HD
HETATM   16  H           1     -22.617  -3.028 -12.734  0.00  0.00     0.274 HD
ENDBRANCH  12  13
ENDBRANCH  11  12
ENDBRANCH  10  11
ENDBRANCH   5  10
ENDBRANCH   2   5
BRANCH   3  17
HETATM   17  C           1     -20.765  -7.017  -5.452  0.00  0.00     0.185 C 
BRANCH  17  18
HETATM   18  C           1     -21.905  -6.992  -4.442  0.00  0.00     0.036 C 
BRANCH  18  19
HETATM   19  C           1     -21.418  -6.368  -3.141  0.00  0.00     0.003 C 
BRANCH  19  20
HETATM   20 Se           1     -21.034  -7.776  -1.848  0.00  0.00     0.000 Se
HETATM   21  C           1     -22.423  -7.230  -0.594  0.00  0.00     0.000 C 
ENDBRANCH  19  20
ENDBRANCH  18  19
ENDBRANCH  17  18
BRANCH  17  22
HETATM   22  C           1     -20.243  -8.427  -5.588  0.00  0.00     0.196 C 
HETATM   23  O           1     -19.019  -8.628  -5.745  0.00  0.00    -0.646 OA
HETATM   24  O           1     -21.034  -9.393  -5.542  0.00  0.00    -0.646 OA
ENDBRANCH  17  22
ENDBRANCH   3  17
TORSDOF 11
ENDMDL
MODEL 4
REMARK VINA RESULT:      -4.9      3.545      7.157
REMARK  11 active torsions:
REMARK  status: ('A' for Active; 'I' for Inactive)
REMARK    1  A    between atoms: C_3  and  C_19 
REMARK    2  A    between atoms: C_3  and  C_17 
REMARK    3  A    between atoms: C_3  and  N_11 
REMARK    4  A    between atoms: Se_6  and  C_20 
REMARK    5  A    between atoms: N_7  and  C_8 
REMARK    6  A    between atoms: C_8  and  C_24 
REMARK       I    between atoms: C_10  and  N_11 
REMARK    7  A    between atoms: C_10  and  C_22 
REMARK    8  A    between atoms: N_16  and  C_22 
REMARK    9  A    between atoms: C_19  and  C_20 
REMARK   10  A    between atoms: C_22  and  C_23 
REMARK   11  A    between atoms: C_23  and  C_24 
ROOT
HETATM    1  H           1     -20.293  -4.689  -4.764  0.00  0.00     0.163 HD
HETATM    2  C           1     -21.526  -6.284  -4.295  0.00  0.00     0.249 C 
HETATM    3  N           1     -20.931  -5.382  -5.135  0.00  0.00    -0.345 N 
HETATM    4  O           1     -22.287  -7.111  -4.737  0.00  0.00    -0.271 OA
ENDROOT
BRANCH   2   5
HETATM    5  C           1     -21.231  -6.245  -2.815  0.00  0.00     0.274 C 
BRANCH   5   6
HETATM    6  N           1     -22.495  -5.957  -2.062  0.00  0.00    -0.067 N 
HETATM    7  H           1     -23.260  -6.576  -2.415  0.00  0.00     0.275 HD
HETATM    8  H           1     -22.763  -4.956  -2.201  0.00  0.00     0.275 HD
HETATM    9  H           1     -22.343  -6.137  -1.044  0.00  0.00     0.275 HD
ENDBRANCH   5   6
BRANCH   5  10
HETATM   10  C           1     -20.672  -7.590  -2.373  0.00  0.00     0.044 C 
BRANCH  10  11
HETATM   11  C           1     -21.704  -8.312  -1.515  0.00  0.00     0.030 C 
BRANCH  11  12
HETATM   12  C           1     -21.788  -9.772  -1.940  0.00  0.00     0.230 C 
BRANCH  12  13
HETATM   13  N           1     -21.956  -9.851  -3.429  0.00  0.00    -0.079 N 
HETATM   14  H           1     -22.728  -9.212  -3.727  0.00  0.00     0.274 HD
HETATM   15  H           1     -22.191 -10.832  -3.701  0.00  0.00     0.274 HD
HETATM   16  H           1     -21.066  -9.563  -3.896  0.00  0.00     0.274 HD
ENDBRANCH  12  13
ENDBRANCH  11  12
ENDBRANCH  10  11
ENDBRANCH   5  10
ENDBRANCH   2   5
BRANCH   3  17
HETATM   17  C           1     -21.214  -5.420  -6.556  0.00  0.00     0.185 C 
BRANCH  17  18
HETATM   18  C           1     -21.760  -4.069  -7.002  0.00  0.00     0.036 C 
BRANCH  18  19
HETATM   19  C           1     -23.100  -4.266  -7.698  0.00  0.00     0.003 C 
BRANCH  19  20
HETATM   20 Se           1     -22.814  -4.457  -9.617  0.00  0.00     0.000 Se
HETATM   21  C           1     -24.395  -3.435 -10.120  0.00  0.00     0.000 C 
ENDBRANCH  19  20
ENDBRANCH  18  19
ENDBRANCH  17  18
BRANCH  17  22
HETATM   22  C           1     -19.946  -5.726  -7.314  0.00  0.00     0.196 C 
HETATM   23  O           1     -19.364  -6.819  -7.144  0.00  0.00    -0.646 OA
HETATM   24  O           1     -19.478  -4.887  -8.114  0.00  0.00    -0.646 OA
ENDBRANCH  17  22
ENDBRANCH   3  17
TORSDOF 11
ENDMDL
MODEL 5
REMARK VINA RESULT:      -4.8      3.159      6.318
REMARK  11 active torsions:
REMARK  status: ('A' for Active; 'I' for Inactive)
REMARK    1  A    between atoms: C_3  and  C_19 
REMARK    2  A    between atoms: C_3  and  C_17 
REMARK    3  A    between atoms: C_3  and  N_11 
REMARK    4  A    between atoms: Se_6  and  C_20 
REMARK    5  A    between atoms: N_7  and  C_8 
REMARK    6  A    between atoms: C_8  and  C_24 
REMARK       I    between atoms: C_10  and  N_11 
REMARK    7  A    between atoms: C_10  and  C_22 
REMARK    8  A    between atoms: N_16  and  C_22 
REMARK    9  A    between atoms: C_19  and  C_20 
REMARK   10  A    between atoms: C_22  and  C_23 
REMARK   11  A    between atoms: C_23  and  C_24 
ROOT
HETATM    1  H           1     -22.389  -4.221  -6.676  0.00  0.00     0.163 HD
HETATM    2  C           1     -21.277  -5.959  -6.511  0.00  0.00     0.249 C 
HETATM    3  N           1     -21.881  -4.932  -7.186  0.00  0.00    -0.345 N 
HETATM    4  O           1     -20.671  -6.808  -7.119  0.00  0.00    -0.271 OA
ENDROOT
BRANCH   2   5
HETATM    5  C           1     -21.370  -6.030  -5.006  0.00  0.00     0.274 C 
BRANCH   5   6
HETATM    6  N           1     -22.806  -6.182  -4.602  0.00  0.00    -0.067 N 
HETATM    7  H           1     -23.325  -6.700  -5.347  0.00  0.00     0.275 HD
HETATM    8  H           1     -23.233  -5.237  -4.471  0.00  0.00     0.275 HD
HETATM    9  H           1     -22.861  -6.715  -3.704  0.00  0.00     0.275 HD
ENDBRANCH   5   6
BRANCH   5  10
HETATM   10  C           1     -20.572  -7.225  -4.503  0.00  0.00     0.044 C 
BRANCH  10  11
HETATM   11  C           1     -21.525  -8.360  -4.149  0.00  0.00     0.030 C 
BRANCH  11  12
HETATM   12  C           1     -21.094  -9.630  -4.869  0.00  0.00     0.230 C 
BRANCH  12  13
HETATM   13  N           1     -19.831  -9.367  -5.635  0.00  0.00    -0.079 N 
HETATM   14  H           1     -20.053  -9.265  -6.651  0.00  0.00     0.274 HD
HETATM   15  H           1     -19.170 -10.166  -5.501  0.00  0.00     0.274 HD
HETATM   16  H           1     -19.389  -8.486  -5.285  0.00  0.00     0.274 HD
ENDBRANCH  12  13
ENDBRANCH  11  12
ENDBRANCH  10  11
ENDBRANCH   5  10
ENDBRANCH   2   5
BRANCH   3  17
HETATM   17  C           1     -21.791  -4.864  -8.631  0.00  0.00     0.185 C 
BRANCH  17  18
HETATM   18  C           1     -22.832  -3.885  -9.159  0.00  0.00     0.036 C 
BRANCH  18  19
HETATM   19  C           1     -23.705  -4.581 -10.195  0.00  0.00     0.003 C 
BRANCH  19  20
HETATM   20 Se           1     -24.126  -3.334 -11.634  0.00  0.00     0.000 Se
HETATM   21  C           1     -22.266  -2.897 -12.019  0.00  0.00     0.000 C 
ENDBRANCH  19  20
ENDBRANCH  18  19
ENDBRANCH  17  18
BRANCH  17  22
HETATM   22  C           1     -20.413  -4.396  -9.029  0.00  0.00     0.196 C 
HETATM   23  O           1     -19.908  -4.781 -10.106  0.00  0.00    -0.646 OA
HETATM   24  O           1     -19.776  -3.622  -8.282  0.00  0.00    -0.646 OA
ENDBRANCH  17  22
ENDBRANCH   3  17
TORSDOF 11
ENDMDL
MODEL 6
REMARK VINA RESULT:      -4.7      3.748      5.480
REMARK  11 active torsions:
REMARK  status: ('A' for Active; 'I' for Inactive)
REMARK    1  A    between atoms: C_3  and  C_19 
REMARK    2  A    between atoms: C_3  and  C_17 
REMARK    3  A    between atoms: C_3  and  N_11 
REMARK    4  A    between atoms: Se_6  and  C_20 
REMARK    5  A    between atoms: N_7  and  C_8 
REMARK    6  A    between atoms: C_8  and  C_24 
REMARK       I    between atoms: C_10  and  N_11 
REMARK    7  A    between atoms: C_10  and  C_22 
REMARK    8  A    between atoms: N_16  and  C_22 
REMARK    9  A    between atoms: C_19  and  C_20 
REMARK   10  A    between atoms: C_22  and  C_23 
REMARK   11  A    between atoms: C_23  and  C_24 
ROOT
HETATM    1  H           1     -19.949  -6.708  -4.080  0.00  0.00     0.163 HD
HETATM    2  C           1     -21.575  -6.092  -5.202  0.00  0.00     0.249 C 
HETATM    3  N           1     -20.955  -6.753  -4.176  0.00  0.00    -0.345 N 
HETATM    4  O           1     -22.777  -6.146  -5.316  0.00  0.00    -0.271 OA
ENDROOT
BRANCH   2   5
HETATM    5  C           1     -20.758  -5.296  -6.190  0.00  0.00     0.274 C 
BRANCH   5   6
HETATM    6  N           1     -20.148  -6.226  -7.196  0.00  0.00    -0.067 N 
HETATM    7  H           1     -19.259  -5.813  -7.559  0.00  0.00     0.275 HD
HETATM    8  H           1     -20.815  -6.370  -7.987  0.00  0.00     0.275 HD
HETATM    9  H           1     -19.944  -7.145  -6.742  0.00  0.00     0.275 HD
ENDBRANCH   5   6
BRANCH   5  10
HETATM   10  C           1     -21.657  -4.295  -6.904  0.00  0.00     0.044 C 
BRANCH  10  11
HETATM   11  C           1     -21.417  -4.379  -8.406  0.00  0.00     0.030 C 
BRANCH  11  12
HETATM   12  C           1     -22.741  -4.224  -9.142  0.00  0.00     0.230 C 
BRANCH  12  13
HETATM   13  N           1     -23.844  -4.012  -8.148  0.00  0.00    -0.079 N 
HETATM   14  H           1     -23.985  -4.886  -7.592  0.00  0.00     0.274 HD
HETATM   15  H           1     -24.727  -3.775  -8.654  0.00  0.00     0.274 HD
HETATM   16  H           1     -23.588  -3.228  -7.506  0.00  0.00     0.274 HD
ENDBRANCH  12  13
ENDBRANCH  11  12
ENDBRANCH  10  11
ENDBRANCH   5  10
ENDBRANCH   2   5
BRANCH   3  17
HETATM   17  C           1     -21.741  -7.517  -3.227  0.00  0.00     0.185 C 
BRANCH  17  18
HETATM   18  C           1     -20.984  -8.782  -2.843  0.00  0.00     0.036 C 
BRANCH  18  19
HETATM   19  C           1     -21.114  -9.811  -3.958  0.00  0.00     0.003 C 
BRANCH  19  20
HETATM   20 Se           1     -22.578 -11.032  -3.549  0.00  0.00     0.000 Se
HETATM   21  C           1     -22.355 -10.912  -1.616  0.00  0.00     0.000 C 
ENDBRANCH  19  20
ENDBRANCH  18  19
ENDBRANCH  17  18
BRANCH  17  22
HETATM   22  C           1     -21.988  -6.685  -1.993  0.00  0.00     0.196 C 
HETATM   23  O           1     -21.936  -5.437  -2.059  0.00  0.00    -0.646 OA
HETATM   24  O           1     -22.246  -7.241  -0.904  0.00  0.00    -0.646 OA
ENDBRANCH  17  22
ENDBRANCH   3  17
TORSDOF 11
ENDMDL
MODEL 7
REMARK VINA RESULT:      -4.6     18.712     20.003
REMARK  11 active torsions:
REMARK  status: ('A' for Active; 'I' for Inactive)
REMARK    1  A    between atoms: C_3  and  C_19 
REMARK    2  A    between atoms: C_3  and  C_17 
REMARK    3  A    between atoms: C_3  and  N_11 
REMARK    4  A    between atoms: Se_6  and  C_20 
REMARK    5  A    between atoms: N_7  and  C_8 
REMARK    6  A    between atoms: C_8  and  C_24 
REMARK       I    between atoms: C_10  and  N_11 
REMARK    7  A    between atoms: C_10  and  C_22 
REMARK    8  A    between atoms: N_16  and  C_22 
REMARK    9  A    between atoms: C_19  and  C_20 
REMARK   10  A    between atoms: C_22  and  C_23 
REMARK   11  A    between atoms: C_23  and  C_24 
ROOT
HETATM    1  H           1     -12.486   7.157 -18.858  0.00  0.00     0.163 HD
HETATM    2  C           1     -12.448   6.726 -20.881  0.00  0.00     0.249 C 
HETATM    3  N           1     -12.334   7.536 -19.784  0.00  0.00    -0.345 N 
HETATM    4  O           1     -12.266   7.177 -21.987  0.00  0.00    -0.271 OA
ENDROOT
BRANCH   2   5
HETATM    5  C           1     -12.799   5.268 -20.710  0.00  0.00     0.274 C 
BRANCH   5   6
HETATM    6  N           1     -12.416   4.515 -21.949  0.00  0.00    -0.067 N 
HETATM    7  H           1     -12.061   3.567 -21.685  0.00  0.00     0.275 HD
HETATM    8  H           1     -11.669   5.038 -22.458  0.00  0.00     0.275 HD
HETATM    9  H           1     -13.253   4.412 -22.567  0.00  0.00     0.275 HD
ENDBRANCH   5   6
BRANCH   5  10
HETATM   10  C           1     -12.044   4.699 -19.516  0.00  0.00     0.044 C 
BRANCH  10  11
HETATM   11  C           1     -10.651   4.266 -19.956  0.00  0.00     0.030 C 
BRANCH  11  12
HETATM   12  C           1      -9.667   5.404 -19.723  0.00  0.00     0.230 C 
BRANCH  12  13
HETATM   13  N           1      -9.537   5.660 -18.251  0.00  0.00    -0.079 N 
HETATM   14  H           1      -8.620   6.122 -18.056  0.00  0.00     0.274 HD
HETATM   15  H           1      -9.587   4.753 -17.734  0.00  0.00     0.274 HD
HETATM   16  H           1     -10.314   6.284 -17.936  0.00  0.00     0.274 HD
ENDBRANCH  12  13
ENDBRANCH  11  12
ENDBRANCH  10  11
ENDBRANCH   5  10
ENDBRANCH   2   5
BRANCH   3  17
HETATM   17  C           1     -11.995   8.936 -19.948  0.00  0.00     0.185 C 
BRANCH  17  18
HETATM   18  C           1     -12.902   9.785 -19.066  0.00  0.00     0.036 C 
BRANCH  18  19
HETATM   19  C           1     -13.476  10.934 -19.883  0.00  0.00     0.003 C 
BRANCH  19  20
HETATM   20 Se           1     -14.977  11.727 -18.924  0.00  0.00     0.000 Se
HETATM   21  C           1     -14.815  10.558 -17.373  0.00  0.00     0.000 C 
ENDBRANCH  19  20
ENDBRANCH  18  19
ENDBRANCH  17  18
BRANCH  17  22
HETATM   22  C           1     -10.557   9.156 -19.551  0.00  0.00     0.196 C 
HETATM   23  O           1      -9.765   9.703 -20.349  0.00  0.00    -0.646 OA
HETATM   24  O           1     -10.156   8.792 -18.424  0.00  0.00    -0.646 OA
ENDBRANCH  17  22
ENDBRANCH   3  17
TORSDOF 11
ENDMDL
MODEL 8
REMARK VINA RESULT:      -4.5      5.279      9.032
REMARK  11 active torsions:
REMARK  status: ('A' for Active; 'I' for Inactive)
REMARK    1  A    between atoms: C_3  and  C_19 
REMARK    2  A    between atoms: C_3  and  C_17 
REMARK    3  A    between atoms: C_3  and  N_11 
REMARK    4  A    between atoms: Se_6  and  C_20 
REMARK    5  A    between atoms: N_7  and  C_8 
REMARK    6  A    between atoms: C_8  and  C_24 
REMARK       I    between atoms: C_10  and  N_11 
REMARK    7  A    between atoms: C_10  and  C_22 
REMARK    8  A    between atoms: N_16  and  C_22 
REMARK    9  A    between atoms: C_19  and  C_20 
REMARK   10  A    between atoms: C_22  and  C_23 
REMARK   11  A    between atoms: C_23  and  C_24 
ROOT
HETATM    1  H           1     -20.375  -7.011  -3.124  0.00  0.00     0.163 HD
HETATM    2  C           1     -21.425  -8.509  -2.156  0.00  0.00     0.249 C 
HETATM    3  N           1     -20.787  -7.930  -3.220  0.00  0.00    -0.345 N 
HETATM    4  O           1     -21.917  -9.606  -2.271  0.00  0.00    -0.271 OA
ENDROOT
BRANCH   2   5
HETATM    5  C           1     -21.513  -7.776  -0.840  0.00  0.00     0.274 C 
BRANCH   5   6
HETATM    6  N           1     -22.332  -6.532  -1.016  0.00  0.00    -0.067 N 
HETATM    7  H           1     -22.121  -5.863  -0.241  0.00  0.00     0.275 HD
HETATM    8  H           1     -23.348  -6.778  -0.998  0.00  0.00     0.275 HD
HETATM    9  H           1     -22.099  -6.088  -1.933  0.00  0.00     0.275 HD
ENDBRANCH   5   6
BRANCH   5  10
HETATM   10  C           1     -22.172  -8.674   0.199  0.00  0.00     0.044 C 
BRANCH  10  11
HETATM   11  C           1     -21.139  -9.087   1.241  0.00  0.00     0.030 C 
BRANCH  11  12
HETATM   12  C           1     -20.685 -10.515   0.969  0.00  0.00     0.230 C 
BRANCH  12  13
HETATM   13  N           1     -21.790 -11.271   0.293  0.00  0.00    -0.079 N 
HETATM   14  H           1     -21.615 -12.298   0.381  0.00  0.00     0.274 HD
HETATM   15  H           1     -21.823 -11.009  -0.718  0.00  0.00     0.274 HD
HETATM   16  H           1     -22.702 -11.033   0.745  0.00  0.00     0.274 HD
ENDBRANCH  12  13
ENDBRANCH  11  12
ENDBRANCH  10  11
ENDBRANCH   5  10
ENDBRANCH   2   5
BRANCH   3  17
HETATM   17  C           1     -20.702  -8.635  -4.484  0.00  0.00     0.185 C 
BRANCH  17  18
HETATM   18  C           1     -21.352  -7.797  -5.578  0.00  0.00     0.036 C 
BRANCH  18  19
HETATM   19  C           1     -21.492  -6.358  -5.101  0.00  0.00     0.003 C 
BRANCH  19  20
HETATM   20 Se           1     -20.242  -5.224  -6.078  0.00  0.00     0.000 Se
HETATM   21  C           1     -21.622  -4.313  -7.110  0.00  0.00     0.000 C 
ENDBRANCH  19  20
ENDBRANCH  18  19
ENDBRANCH  17  18
BRANCH  17  22
HETATM   22  C           1     -19.253  -8.876  -4.829  0.00  0.00     0.196 C 
HETATM   23  O           1     -18.877  -8.826  -6.021  0.00  0.00    -0.646 OA
HETATM   24  O           1     -18.427  -9.125  -3.925  0.00  0.00    -0.646 OA
ENDBRANCH  17  22
ENDBRANCH   3  17
TORSDOF 11
ENDMDL
MODEL 9
REMARK VINA RESULT:      -4.4      3.290      6.751
REMARK  11 active torsions:
REMARK  status: ('A' for Active; 'I' for Inactive)
REMARK    1  A    between atoms: C_3  and  C_19 
REMARK    2  A    between atoms: C_3  and  C_17 
REMARK    3  A    between atoms: C_3  and  N_11 
REMARK    4  A    between atoms: Se_6  and  C_20 
REMARK    5  A    between atoms: N_7  and  C_8 
REMARK    6  A    between atoms: C_8  and  C_24 
REMARK       I    between atoms: C_10  and  N_11 
REMARK    7  A    between atoms: C_10  and  C_22 
REMARK    8  A    between atoms: N_16  and  C_22 
REMARK    9  A    between atoms: C_19  and  C_20 
REMARK   10  A    between atoms: C_22  and  C_23 
REMARK   11  A    between atoms: C_23  and  C_24 
ROOT
HETATM    1  H           1     -22.025  -4.467  -6.443  0.00  0.00     0.163 HD
HETATM    2  C           1     -21.254  -6.320  -5.941  0.00  0.00     0.249 C 
HETATM    3  N           1     -21.439  -5.232  -6.750  0.00  0.00    -0.345 N 
HETATM    4  O           1     -20.554  -7.234  -6.308  0.00  0.00    -0.271 OA
ENDROOT
BRANCH   2   5
HETATM    5  C           1     -21.925  -6.379  -4.591  0.00  0.00     0.274 C 
BRANCH   5   6
HETATM    6  N           1     -23.409  -6.259  -4.765  0.00  0.00    -0.067 N 
HETATM    7  H           1     -23.798  -7.175  -5.087  0.00  0.00     0.275 HD
HETATM    8  H           1     -23.618  -5.522  -5.476  0.00  0.00     0.275 HD
HETATM    9  H           1     -23.847  -5.997  -3.853  0.00  0.00     0.275 HD
ENDBRANCH   5   6
BRANCH   5  10
HETATM   10  C           1     -21.598  -7.706  -3.918  0.00  0.00     0.044 C 
BRANCH  10  11
HETATM   11  C           1     -20.880  -7.444  -2.600  0.00  0.00     0.030 C 
BRANCH  11  12
HETATM   12  C           1     -21.882  -7.500  -1.455  0.00  0.00     0.230 C 
BRANCH  12  13
HETATM   13  N           1     -21.264  -8.201  -0.282  0.00  0.00    -0.079 N 
HETATM   14  H           1     -20.830  -9.098  -0.600  0.00  0.00     0.274 HD
HETATM   15  H           1     -22.001  -8.404   0.430  0.00  0.00     0.274 HD
HETATM   16  H           1     -20.528  -7.590   0.141  0.00  0.00     0.274 HD
ENDBRANCH  12  13
ENDBRANCH  11  12
ENDBRANCH  10  11
ENDBRANCH   5  10
ENDBRANCH   2   5
BRANCH   3  17
HETATM   17  C           1     -20.795  -5.176  -8.048  0.00  0.00     0.185 C 
BRANCH  17  18
HETATM   18  C           1     -21.770  -4.617  -9.076  0.00  0.00     0.036 C 
BRANCH  18  19
HETATM   19  C           1     -23.029  -4.130  -8.371  0.00  0.00     0.003 C 
BRANCH  19  20
HETATM   20 Se           1     -24.347  -3.581  -9.698  0.00  0.00     0.000 Se
HETATM   21  C           1     -23.652  -4.737 -11.106  0.00  0.00     0.000 C 
ENDBRANCH  19  20
ENDBRANCH  18  19
ENDBRANCH  17  18
BRANCH  17  22
HETATM   22  C           1     -19.581  -4.283  -7.969  0.00  0.00     0.196 C 
HETATM   23  O           1     -19.539  -3.225  -8.634  0.00  0.00    -0.646 OA
HETATM   24  O           1     -18.618  -4.599  -7.237  0.00  0.00    -0.646 OA
ENDBRANCH  17  22
ENDBRANCH   3  17
TORSDOF 11
ENDMDL
