MODEL 1
REMARK VINA RESULT:      -6.4      0.000      0.000
REMARK  7 active torsions:
REMARK  status: ('A' for Active; 'I' for Inactive)
REMARK    1  A    between atoms: C_1  and  C_2 
REMARK    2  A    between atoms: C_1  and  C_11 
REMARK    3  A    between atoms: C_1  and  N_6 
REMARK       I    between atoms: C_2  and  N_19 
REMARK    4  A    between atoms: C_4  and  C_17 
REMARK    5  A    between atoms: C_4  and  C_9 
REMARK    6  A    between atoms: C_7  and  C_9 
REMARK    7  A    between atoms: C_9  and  N_19 
ROOT
HETATM    1  C           1     -34.511  -2.413 -11.927  0.00  0.00     0.249 C 
HETATM    2  H           1     -36.064  -2.077 -13.253  0.00  0.00     0.163 HD
HETATM    3  N           1     -35.465  -1.657 -12.553  0.00  0.00    -0.344 N 
HETATM    4  O           1     -33.797  -1.911 -11.090  0.00  0.00    -0.271 OA
ENDROOT
BRANCH   1   5
HETATM    5  C           1     -34.350  -3.871 -12.280  0.00  0.00     0.278 C 
BRANCH   5   6
HETATM    6  C           1     -33.328  -4.510 -11.349  0.00  0.00     0.017 C 
HETATM    7  C           1     -32.028  -4.741 -12.108  0.00  0.00     0.012 C 
HETATM    8  C           1     -33.863  -5.842 -10.843  0.00  0.00     0.012 C 
ENDBRANCH   5   6
BRANCH   5   9
HETATM    9  N           1     -33.876  -3.990 -13.699  0.00  0.00    -0.066 N 
HETATM   10  H           1     -34.686  -4.212 -14.320  0.00  0.00     0.275 HD
HETATM   11  H           1     -33.446  -3.085 -13.999  0.00  0.00     0.275 HD
HETATM   12  H           1     -33.165  -4.753 -13.765  0.00  0.00     0.275 HD
ENDBRANCH   5   9
ENDBRANCH   1   5
BRANCH   3  13
HETATM   13  C           1     -35.620  -0.257 -12.212  0.00  0.00     0.189 C 
BRANCH  13  14
HETATM   14  C           1     -35.881   0.548 -13.479  0.00  0.00     0.014 C 
HETATM   15  C           1     -34.592   1.221 -13.929  0.00  0.00     0.012 C 
BRANCH  14  16
HETATM   16  C           1     -36.378  -0.383 -14.577  0.00  0.00     0.002 C 
HETATM   17  C           1     -37.760   0.065 -15.037  0.00  0.00     0.005 C 
ENDBRANCH  14  16
ENDBRANCH  13  14
BRANCH  13  18
HETATM   18  C           1     -36.783  -0.095 -11.265  0.00  0.00     0.197 C 
HETATM   19  O           1     -36.687   0.677 -10.285  0.00  0.00    -0.646 OA
HETATM   20  O           1     -37.841  -0.731 -11.457  0.00  0.00    -0.646 OA
ENDBRANCH  13  18
ENDBRANCH   3  13
TORSDOF 7
ENDMDL
MODEL 2
REMARK VINA RESULT:      -6.2     11.668     13.956
REMARK  7 active torsions:
REMARK  status: ('A' for Active; 'I' for Inactive)
REMARK    1  A    between atoms: C_1  and  C_2 
REMARK    2  A    between atoms: C_1  and  C_11 
REMARK    3  A    between atoms: C_1  and  N_6 
REMARK       I    between atoms: C_2  and  N_19 
REMARK    4  A    between atoms: C_4  and  C_17 
REMARK    5  A    between atoms: C_4  and  C_9 
REMARK    6  A    between atoms: C_7  and  C_9 
REMARK    7  A    between atoms: C_9  and  N_19 
ROOT
HETATM    1  C           1     -21.885  -4.628  -7.989  0.00  0.00     0.249 C 
HETATM    2  H           1     -22.505  -5.799  -9.578  0.00  0.00     0.163 HD
HETATM    3  N           1     -22.470  -4.860  -9.204  0.00  0.00    -0.344 N 
HETATM    4  O           1     -21.843  -3.506  -7.542  0.00  0.00    -0.271 OA
ENDROOT
BRANCH   1   5
HETATM    5  C           1     -21.290  -5.774  -7.207  0.00  0.00     0.278 C 
BRANCH   5   6
HETATM    6  C           1     -21.419  -5.493  -5.716  0.00  0.00     0.017 C 
HETATM    7  C           1     -20.117  -4.895  -5.199  0.00  0.00     0.012 C 
HETATM    8  C           1     -21.709  -6.791  -4.976  0.00  0.00     0.012 C 
ENDBRANCH   5   6
BRANCH   5   9
HETATM    9  N           1     -19.839  -5.921  -7.563  0.00  0.00    -0.066 N 
HETATM   10  H           1     -19.348  -5.012  -7.405  0.00  0.00     0.275 HD
HETATM   11  H           1     -19.407  -6.658  -6.961  0.00  0.00     0.275 HD
HETATM   12  H           1     -19.753  -6.194  -8.567  0.00  0.00     0.275 HD
ENDBRANCH   5   9
ENDBRANCH   1   5
BRANCH   3  13
HETATM   13  C           1     -23.042  -3.759  -9.954  0.00  0.00     0.189 C 
BRANCH  13  14
HETATM   14  C           1     -22.705  -3.921 -11.431  0.00  0.00     0.014 C 
HETATM   15  C           1     -22.996  -2.620 -12.165  0.00  0.00     0.012 C 
BRANCH  14  16
HETATM   16  C           1     -21.230  -4.269 -11.578  0.00  0.00     0.002 C 
HETATM   17  C           1     -20.383  -3.054 -11.222  0.00  0.00     0.005 C 
ENDBRANCH  14  16
ENDBRANCH  13  14
BRANCH  13  18
HETATM   18  C           1     -24.540  -3.754  -9.777  0.00  0.00     0.197 C 
HETATM   19  O           1     -25.182  -4.825  -9.854  0.00  0.00    -0.646 OA
HETATM   20  O           1     -25.141  -2.681  -9.554  0.00  0.00    -0.646 OA
ENDBRANCH  13  18
ENDBRANCH   3  13
TORSDOF 7
ENDMDL
MODEL 3
REMARK VINA RESULT:      -5.5      2.533      3.397
REMARK  7 active torsions:
REMARK  status: ('A' for Active; 'I' for Inactive)
REMARK    1  A    between atoms: C_1  and  C_2 
REMARK    2  A    between atoms: C_1  and  C_11 
REMARK    3  A    between atoms: C_1  and  N_6 
REMARK       I    between atoms: C_2  and  N_19 
REMARK    4  A    between atoms: C_4  and  C_17 
REMARK    5  A    between atoms: C_4  and  C_9 
REMARK    6  A    between atoms: C_7  and  C_9 
REMARK    7  A    between atoms: C_9  and  N_19 
ROOT
HETATM    1  C           1     -35.239  -1.597 -12.696  0.00  0.00     0.249 C 
HETATM    2  H           1     -33.973  -1.156 -14.272  0.00  0.00     0.163 HD
HETATM    3  N           1     -34.926  -1.107 -13.934  0.00  0.00    -0.344 N 
HETATM    4  O           1     -36.377  -1.540 -12.293  0.00  0.00    -0.271 OA
ENDROOT
BRANCH   1   5
HETATM    5  C           1     -34.164  -2.209 -11.831  0.00  0.00     0.278 C 
BRANCH   5   6
HETATM    6  C           1     -34.164  -3.721 -12.014  0.00  0.00     0.017 C 
HETATM    7  C           1     -34.963  -4.367 -10.889  0.00  0.00     0.012 C 
HETATM    8  C           1     -32.733  -4.238 -11.979  0.00  0.00     0.012 C 
ENDBRANCH   5   6
BRANCH   5   9
HETATM    9  N           1     -34.434  -1.881 -10.392  0.00  0.00    -0.066 N 
HETATM   10  H           1     -34.435  -2.760  -9.828  0.00  0.00     0.275 HD
HETATM   11  H           1     -33.688  -1.241 -10.036  0.00  0.00     0.275 HD
HETATM   12  H           1     -35.364  -1.413 -10.310  0.00  0.00     0.275 HD
ENDBRANCH   5   9
ENDBRANCH   1   5
BRANCH   3  13
HETATM   13  C           1     -35.959  -0.521 -14.765  0.00  0.00     0.189 C 
BRANCH  13  14
HETATM   14  C           1     -35.845   0.997 -14.721  0.00  0.00     0.014 C 
HETATM   15  C           1     -34.650   1.392 -13.864  0.00  0.00     0.012 C 
BRANCH  14  16
HETATM   16  C           1     -35.656   1.533 -16.134  0.00  0.00     0.002 C 
HETATM   17  C           1     -36.383   2.863 -16.275  0.00  0.00     0.005 C 
ENDBRANCH  14  16
ENDBRANCH  13  14
BRANCH  13  18
HETATM   18  C           1     -35.793  -0.997 -16.187  0.00  0.00     0.197 C 
HETATM   19  O           1     -36.736  -0.875 -17.000  0.00  0.00    -0.646 OA
HETATM   20  O           1     -34.715  -1.512 -16.553  0.00  0.00    -0.646 OA
ENDBRANCH  13  18
ENDBRANCH   3  13
TORSDOF 7
ENDMDL
MODEL 4
REMARK VINA RESULT:      -5.5     14.281     17.084
REMARK  7 active torsions:
REMARK  status: ('A' for Active; 'I' for Inactive)
REMARK    1  A    between atoms: C_1  and  C_2 
REMARK    2  A    between atoms: C_1  and  C_11 
REMARK    3  A    between atoms: C_1  and  N_6 
REMARK       I    between atoms: C_2  and  N_19 
REMARK    4  A    between atoms: C_4  and  C_17 
REMARK    5  A    between atoms: C_4  and  C_9 
REMARK    6  A    between atoms: C_7  and  C_9 
REMARK    7  A    between atoms: C_9  and  N_19 
ROOT
HETATM    1  C           1     -21.038  -5.276  -6.179  0.00  0.00     0.249 C 
HETATM    2  H           1     -22.426  -6.773  -5.841  0.00  0.00     0.163 HD
HETATM    3  N           1     -21.494  -6.442  -5.626  0.00  0.00    -0.344 N 
HETATM    4  O           1     -19.925  -4.880  -5.922  0.00  0.00    -0.271 OA
ENDROOT
BRANCH   1   5
HETATM    5  C           1     -21.924  -4.484  -7.109  0.00  0.00     0.278 C 
BRANCH   5   6
HETATM    6  C           1     -21.749  -4.993  -8.534  0.00  0.00     0.017 C 
HETATM    7  C           1     -20.455  -4.439  -9.115  0.00  0.00     0.012 C 
HETATM    8  C           1     -22.924  -4.535  -9.386  0.00  0.00     0.012 C 
ENDBRANCH   5   6
BRANCH   5   9
HETATM    9  N           1     -21.542  -3.034  -7.048  0.00  0.00    -0.066 N 
HETATM   10  H           1     -21.020  -2.774  -7.916  0.00  0.00     0.275 HD
HETATM   11  H           1     -22.406  -2.450  -6.974  0.00  0.00     0.275 HD
HETATM   12  H           1     -20.935  -2.868  -6.214  0.00  0.00     0.275 HD
ENDBRANCH   5   9
ENDBRANCH   1   5
BRANCH   3  13
HETATM   13  C           1     -20.642  -7.202  -4.733  0.00  0.00     0.189 C 
BRANCH  13  14
HETATM   14  C           1     -21.410  -7.537  -3.461  0.00  0.00     0.014 C 
HETATM   15  C           1     -20.496  -8.280  -2.496  0.00  0.00     0.012 C 
BRANCH  14  16
HETATM   16  C           1     -21.896  -6.249  -2.809  0.00  0.00     0.002 C 
HETATM   17  C           1     -22.266  -6.522  -1.358  0.00  0.00     0.005 C 
ENDBRANCH  14  16
ENDBRANCH  13  14
BRANCH  13  18
HETATM   18  C           1     -20.213  -8.479  -5.413  0.00  0.00     0.197 C 
HETATM   19  O           1     -19.005  -8.674  -5.671  0.00  0.00    -0.646 OA
HETATM   20  O           1     -21.064  -9.342  -5.717  0.00  0.00    -0.646 OA
ENDBRANCH  13  18
ENDBRANCH   3  13
TORSDOF 7
ENDMDL
MODEL 5
REMARK VINA RESULT:      -5.4      1.277      1.761
REMARK  7 active torsions:
REMARK  status: ('A' for Active; 'I' for Inactive)
REMARK    1  A    between atoms: C_1  and  C_2 
REMARK    2  A    between atoms: C_1  and  C_11 
REMARK    3  A    between atoms: C_1  and  N_6 
REMARK       I    between atoms: C_2  and  N_19 
REMARK    4  A    between atoms: C_4  and  C_17 
REMARK    5  A    between atoms: C_4  and  C_9 
REMARK    6  A    between atoms: C_7  and  C_9 
REMARK    7  A    between atoms: C_9  and  N_19 
ROOT
HETATM    1  C           1     -34.960  -2.770 -12.244  0.00  0.00     0.249 C 
HETATM    2  H           1     -34.882  -2.481 -14.292  0.00  0.00     0.163 HD
HETATM    3  N           1     -35.000  -2.029 -13.394  0.00  0.00    -0.344 N 
HETATM    4  O           1     -35.102  -2.230 -11.172  0.00  0.00    -0.271 OA
ENDROOT
BRANCH   1   5
HETATM    5  C           1     -34.737  -4.261 -12.314  0.00  0.00     0.278 C 
BRANCH   5   6
HETATM    6  C           1     -33.691  -4.668 -11.285  0.00  0.00     0.017 C 
HETATM    7  C           1     -32.300  -4.388 -11.840  0.00  0.00     0.012 C 
HETATM    8  C           1     -33.826  -6.153 -10.982  0.00  0.00     0.012 C 
ENDBRANCH   5   6
BRANCH   5   9
HETATM    9  N           1     -34.256  -4.629 -13.687  0.00  0.00    -0.066 N 
HETATM   10  H           1     -33.760  -5.548 -13.648  0.00  0.00     0.275 HD
HETATM   11  H           1     -35.074  -4.703 -14.334  0.00  0.00     0.275 HD
HETATM   12  H           1     -33.601  -3.894 -14.036  0.00  0.00     0.275 HD
ENDBRANCH   5   9
ENDBRANCH   1   5
BRANCH   3  13
HETATM   13  C           1     -35.215  -0.597 -13.327  0.00  0.00     0.189 C 
BRANCH  13  14
HETATM   14  C           1     -34.870   0.032 -14.670  0.00  0.00     0.014 C 
HETATM   15  C           1     -35.730  -0.593 -15.760  0.00  0.00     0.012 C 
BRANCH  14  16
HETATM   16  C           1     -35.136   1.531 -14.611  0.00  0.00     0.002 C 
HETATM   17  C           1     -35.980   1.945 -15.809  0.00  0.00     0.005 C 
ENDBRANCH  14  16
ENDBRANCH  13  14
BRANCH  13  18
HETATM   18  C           1     -36.662  -0.320 -12.998  0.00  0.00     0.197 C 
HETATM   19  O           1     -37.569  -0.890 -13.643  0.00  0.00    -0.646 OA
HETATM   20  O           1     -36.954   0.479 -12.082  0.00  0.00    -0.646 OA
ENDBRANCH  13  18
ENDBRANCH   3  13
TORSDOF 7
ENDMDL
MODEL 6
REMARK VINA RESULT:      -5.3     12.871     15.706
REMARK  7 active torsions:
REMARK  status: ('A' for Active; 'I' for Inactive)
REMARK    1  A    between atoms: C_1  and  C_2 
REMARK    2  A    between atoms: C_1  and  C_11 
REMARK    3  A    between atoms: C_1  and  N_6 
REMARK       I    between atoms: C_2  and  N_19 
REMARK    4  A    between atoms: C_4  and  C_17 
REMARK    5  A    between atoms: C_4  and  C_9 
REMARK    6  A    between atoms: C_7  and  C_9 
REMARK    7  A    between atoms: C_9  and  N_19 
ROOT
HETATM    1  C           1     -22.339  -4.595  -8.688  0.00  0.00     0.249 C 
HETATM    2  H           1     -20.942  -6.115  -8.546  0.00  0.00     0.163 HD
HETATM    3  N           1     -21.489  -5.440  -8.028  0.00  0.00    -0.344 N 
HETATM    4  O           1     -22.991  -3.788  -8.068  0.00  0.00    -0.271 OA
ENDROOT
BRANCH   1   5
HETATM    5  C           1     -22.462  -4.670 -10.190  0.00  0.00     0.278 C 
BRANCH   5   6
HETATM    6  C           1     -21.839  -3.429 -10.815  0.00  0.00     0.017 C 
HETATM    7  C           1     -22.631  -3.034 -12.055  0.00  0.00     0.012 C 
HETATM    8  C           1     -20.398  -3.724 -11.207  0.00  0.00     0.012 C 
ENDBRANCH   5   6
BRANCH   5   9
HETATM    9  N           1     -23.912  -4.744 -10.569  0.00  0.00    -0.066 N 
HETATM   10  H           1     -24.241  -3.800 -10.873  0.00  0.00     0.275 HD
HETATM   11  H           1     -24.031  -5.423 -11.355  0.00  0.00     0.275 HD
HETATM   12  H           1     -24.471  -5.060  -9.746  0.00  0.00     0.275 HD
ENDBRANCH   5   9
ENDBRANCH   1   5
BRANCH   3  13
HETATM   13  C           1     -21.370  -5.366  -6.584  0.00  0.00     0.189 C 
BRANCH  13  14
HETATM   14  C           1     -21.468  -6.767  -5.995  0.00  0.00     0.014 C 
HETATM   15  C           1     -20.080  -7.250  -5.599  0.00  0.00     0.012 C 
BRANCH  14  16
HETATM   16  C           1     -22.366  -6.738  -4.765  0.00  0.00     0.002 C 
HETATM   17  C           1     -21.522  -6.947  -3.515  0.00  0.00     0.005 C 
ENDBRANCH  14  16
ENDBRANCH  13  14
BRANCH  13  18
HETATM   18  C           1     -20.038  -4.758  -6.219  0.00  0.00     0.197 C 
HETATM   19  O           1     -19.845  -4.329  -5.060  0.00  0.00    -0.646 OA
HETATM   20  O           1     -19.129  -4.683  -7.073  0.00  0.00    -0.646 OA
ENDBRANCH  13  18
ENDBRANCH   3  13
TORSDOF 7
ENDMDL
MODEL 7
REMARK VINA RESULT:      -5.2     14.513     17.397
REMARK  7 active torsions:
REMARK  status: ('A' for Active; 'I' for Inactive)
REMARK    1  A    between atoms: C_1  and  C_2 
REMARK    2  A    between atoms: C_1  and  C_11 
REMARK    3  A    between atoms: C_1  and  N_6 
REMARK       I    between atoms: C_2  and  N_19 
REMARK    4  A    between atoms: C_4  and  C_17 
REMARK    5  A    between atoms: C_4  and  C_9 
REMARK    6  A    between atoms: C_7  and  C_9 
REMARK    7  A    between atoms: C_9  and  N_19 
ROOT
HETATM    1  C           1     -21.665  -5.697  -5.557  0.00  0.00     0.249 C 
HETATM    2  H           1     -19.899  -6.389  -4.729  0.00  0.00     0.163 HD
HETATM    3  N           1     -20.907  -6.485  -4.734  0.00  0.00    -0.344 N 
HETATM    4  O           1     -22.868  -5.811  -5.563  0.00  0.00    -0.271 OA
ENDROOT
BRANCH   1   5
HETATM    5  C           1     -20.999  -4.685  -6.458  0.00  0.00     0.278 C 
BRANCH   5   6
HETATM    6  C           1     -21.355  -4.983  -7.908  0.00  0.00     0.017 C 
HETATM    7  C           1     -20.098  -4.905  -8.765  0.00  0.00     0.012 C 
HETATM    8  C           1     -22.370  -3.962  -8.403  0.00  0.00     0.012 C 
ENDBRANCH   5   6
BRANCH   5   9
HETATM    9  N           1     -19.511  -4.767  -6.284  0.00  0.00    -0.066 N 
HETATM   10  H           1     -19.237  -5.754  -6.079  0.00  0.00     0.275 HD
HETATM   11  H           1     -19.041  -4.452  -7.163  0.00  0.00     0.275 HD
HETATM   12  H           1     -19.218  -4.152  -5.491  0.00  0.00     0.275 HD
ENDBRANCH   5   9
ENDBRANCH   1   5
BRANCH   3  13
HETATM   13  C           1     -21.547  -7.456  -3.869  0.00  0.00     0.189 C 
BRANCH  13  14
HETATM   14  C           1     -20.739  -8.747  -3.868  0.00  0.00     0.014 C 
HETATM   15  C           1     -21.597  -9.883  -4.406  0.00  0.00     0.012 C 
BRANCH  14  16
HETATM   16  C           1     -19.510  -8.575  -4.751  0.00  0.00     0.002 C 
HETATM   17  C           1     -18.342  -9.346  -4.152  0.00  0.00     0.005 C 
ENDBRANCH  14  16
ENDBRANCH  13  14
BRANCH  13  18
HETATM   18  C           1     -21.621  -6.908  -2.465  0.00  0.00     0.197 C 
HETATM   19  O           1     -22.381  -5.947  -2.208  0.00  0.00    -0.646 OA
HETATM   20  O           1     -20.923  -7.411  -1.559  0.00  0.00    -0.646 OA
ENDBRANCH  13  18
ENDBRANCH   3  13
TORSDOF 7
ENDMDL
MODEL 8
REMARK VINA RESULT:      -5.2     16.580     18.477
REMARK  7 active torsions:
REMARK  status: ('A' for Active; 'I' for Inactive)
REMARK    1  A    between atoms: C_1  and  C_2 
REMARK    2  A    between atoms: C_1  and  C_11 
REMARK    3  A    between atoms: C_1  and  N_6 
REMARK       I    between atoms: C_2  and  N_19 
REMARK    4  A    between atoms: C_4  and  C_17 
REMARK    5  A    between atoms: C_4  and  C_9 
REMARK    6  A    between atoms: C_7  and  C_9 
REMARK    7  A    between atoms: C_9  and  N_19 
ROOT
HETATM    1  C           1     -21.441  -8.460  -2.214  0.00  0.00     0.249 C 
HETATM    2  H           1     -20.514  -6.901  -3.210  0.00  0.00     0.163 HD
HETATM    3  N           1     -20.921  -7.822  -3.307  0.00  0.00    -0.344 N 
HETATM    4  O           1     -21.928  -9.560  -2.331  0.00  0.00    -0.271 OA
ENDROOT
BRANCH   1   5
HETATM    5  C           1     -21.409  -7.789  -0.862  0.00  0.00     0.278 C 
BRANCH   5   6
HETATM    6  C           1     -21.976  -8.735   0.188  0.00  0.00     0.017 C 
HETATM    7  C           1     -23.338  -8.228   0.643  0.00  0.00     0.012 C 
HETATM    8  C           1     -21.033  -8.793   1.382  0.00  0.00     0.012 C 
ENDBRANCH   5   6
BRANCH   5   9
HETATM    9  N           1     -22.238  -6.539  -0.906  0.00  0.00    -0.066 N 
HETATM   10  H           1     -22.542  -6.288   0.061  0.00  0.00     0.275 HD
HETATM   11  H           1     -21.668  -5.758  -1.304  0.00  0.00     0.275 HD
HETATM   12  H           1     -23.079  -6.699  -1.505  0.00  0.00     0.275 HD
ENDBRANCH   5   9
ENDBRANCH   1   5
BRANCH   3  13
HETATM   13  C           1     -20.951  -8.467  -4.605  0.00  0.00     0.189 C 
BRANCH  13  14
HETATM   14  C           1     -21.277  -7.436  -5.677  0.00  0.00     0.014 C 
HETATM   15  C           1     -22.449  -6.580  -5.220  0.00  0.00     0.012 C 
BRANCH  14  16
HETATM   16  C           1     -20.061  -6.549  -5.912  0.00  0.00     0.002 C 
HETATM   17  C           1     -20.449  -5.090  -5.705  0.00  0.00     0.005 C 
ENDBRANCH  14  16
ENDBRANCH  13  14
BRANCH  13  18
HETATM   18  C           1     -19.605  -9.084  -4.892  0.00  0.00     0.197 C 
HETATM   19  O           1     -18.660  -8.923  -4.089  0.00  0.00    -0.646 OA
HETATM   20  O           1     -19.433  -9.756  -5.932  0.00  0.00    -0.646 OA
ENDBRANCH  13  18
ENDBRANCH   3  13
TORSDOF 7
ENDMDL
MODEL 9
REMARK VINA RESULT:      -5.1     16.451     18.125
REMARK  7 active torsions:
REMARK  status: ('A' for Active; 'I' for Inactive)
REMARK    1  A    between atoms: C_1  and  C_2 
REMARK    2  A    between atoms: C_1  and  C_11 
REMARK    3  A    between atoms: C_1  and  N_6 
REMARK       I    between atoms: C_2  and  N_19 
REMARK    4  A    between atoms: C_4  and  C_17 
REMARK    5  A    between atoms: C_4  and  C_9 
REMARK    6  A    between atoms: C_7  and  C_9 
REMARK    7  A    between atoms: C_9  and  N_19 
ROOT
HETATM    1  C           1     -20.879  -7.922  -5.280  0.00  0.00     0.249 C 
HETATM    2  H           1     -22.458  -7.782  -3.949  0.00  0.00     0.163 HD
HETATM    3  N           1     -21.617  -8.291  -4.187  0.00  0.00    -0.344 N 
HETATM    4  O           1     -19.874  -8.531  -5.564  0.00  0.00    -0.271 OA
ENDROOT
BRANCH   1   5
HETATM    5  C           1     -21.321  -6.756  -6.129  0.00  0.00     0.278 C 
BRANCH   5   6
HETATM    6  C           1     -20.122  -5.869  -6.438  0.00  0.00     0.017 C 
HETATM    7  C           1     -20.145  -4.651  -5.524  0.00  0.00     0.012 C 
HETATM    8  C           1     -20.184  -5.415  -7.889  0.00  0.00     0.012 C 
ENDBRANCH   5   6
BRANCH   5   9
HETATM    9  N           1     -22.352  -5.959  -5.386  0.00  0.00    -0.066 N 
HETATM   10  H           1     -22.567  -6.429  -4.477  0.00  0.00     0.275 HD
HETATM   11  H           1     -21.982  -4.999  -5.201  0.00  0.00     0.275 HD
HETATM   12  H           1     -23.223  -5.894  -5.959  0.00  0.00     0.275 HD
ENDBRANCH   5   9
ENDBRANCH   1   5
BRANCH   3  13
HETATM   13  C           1     -21.193  -9.413  -3.372  0.00  0.00     0.189 C 
BRANCH  13  14
HETATM   14  C           1     -21.485  -9.114  -1.907  0.00  0.00     0.014 C 
HETATM   15  C           1     -20.604  -9.988  -1.025  0.00  0.00     0.012 C 
BRANCH  14  16
HETATM   16  C           1     -21.195  -7.647  -1.621  0.00  0.00     0.002 C 
HETATM   17  C           1     -22.350  -7.044  -0.832  0.00  0.00     0.005 C 
ENDBRANCH  14  16
ENDBRANCH  13  14
BRANCH  13  18
HETATM   18  C           1     -21.942 -10.653  -3.792  0.00  0.00     0.197 C 
HETATM   19  O           1     -23.071 -10.894  -3.310  0.00  0.00    -0.646 OA
HETATM   20  O           1     -21.436 -11.439  -4.622  0.00  0.00    -0.646 OA
ENDBRANCH  13  18
ENDBRANCH   3  13
TORSDOF 7
ENDMDL
