MODEL 1
REMARK VINA RESULT:     -10.3      0.000      0.000
REMARK  11 active torsions:
REMARK  status: ('A' for Active; 'I' for Inactive)
REMARK    1  A    between atoms: O_2  and  C_3 
REMARK    2  A    between atoms: O_2  and  P_37 
REMARK    3  A    between atoms: C_11  and  C_17 
REMARK    4  A    between atoms: C_17  and  C_18 
REMARK    5  A    between atoms: C_17  and  N_35 
REMARK    6  A    between atoms: C_18  and  C_19 
REMARK    7  A    between atoms: C_22  and  C_23 
REMARK    8  A    between atoms: C_23  and  C_29 
REMARK    9  A    between atoms: N_24  and  C_29 
REMARK   10  A    between atoms: O_25  and  P_37 
REMARK   11  A    between atoms: C_29  and  C_30 
REMARK       I    between atoms: C_30  and  N_35 
ROOT
HETATM    1  O           1     -21.715  -7.275  -4.831  0.00  0.00    -0.271 OA
HETATM    2  C           1     -21.328  -6.274  -4.277  0.00  0.00     0.249 C 
HETATM    3  N           1     -20.931  -5.193  -5.018  0.00  0.00    -0.344 N 
HETATM    4  H           1     -20.607  -4.354  -4.555  0.00  0.00     0.163 HD
ENDROOT
BRANCH   3   5
HETATM    5  C           1     -20.973  -5.252  -6.466  0.00  0.00     0.189 C 
BRANCH   5   6
HETATM    6  C           1     -19.600  -5.578  -6.998  0.00  0.00     0.197 C 
HETATM    7  O           1     -19.306  -6.759  -7.287  0.00  0.00    -0.646 OA
HETATM    8  O           1     -18.756  -4.669  -7.151  0.00  0.00    -0.646 OA
ENDBRANCH   5   6
BRANCH   5   9
HETATM    9  C           1     -21.422  -3.904  -7.016  0.00  0.00     0.074 C 
BRANCH   9  10
HETATM   10  C           1     -22.018  -4.092  -8.377  0.00  0.00    -0.056 A 
HETATM   11  C           1     -23.404  -4.137  -8.530  0.00  0.00     0.010 A 
HETATM   12  C           1     -23.959  -4.312  -9.798  0.00  0.00     0.038 A 
HETATM   13  C           1     -23.129  -4.442 -10.911  0.00  0.00     0.081 A 
HETATM   14  C           1     -21.744  -4.397 -10.757  0.00  0.00     0.038 A 
HETATM   15  C           1     -21.189  -4.221  -9.489  0.00  0.00     0.010 A 
BRANCH  13  16
HETATM   16  O           1     -23.668  -4.611 -12.142  0.00  0.00    -0.247 OA
BRANCH  16  17
HETATM   17  P           1     -24.009  -3.292 -13.010  0.00  0.00     0.411 P 
HETATM   18  O           1     -23.086  -2.199 -12.629  0.00  0.00    -0.624 OA
HETATM   19  O           1     -25.404  -2.875 -12.747  0.00  0.00    -0.624 OA
BRANCH  17  20
HETATM   20  O           1     -23.831  -3.623 -14.581  0.00  0.00    -0.300 OA
HETATM   21  H           1     -23.208  -4.329 -14.613  0.00  0.00     0.223 HD
ENDBRANCH  17  20
ENDBRANCH  16  17
ENDBRANCH  13  16
ENDBRANCH   9  10
ENDBRANCH   5   9
ENDBRANCH   3   5
BRANCH   2  22
HETATM   22  C           1     -21.284  -6.213  -2.770  0.00  0.00     0.278 C 
BRANCH  22  23
HETATM   23  C           1     -20.703  -7.511  -2.226  0.00  0.00     0.083 C 
BRANCH  23  24
HETATM   24  C           1     -21.655  -8.108  -1.236  0.00  0.00    -0.028 A 
HETATM   25  C           1     -22.030  -7.552  -0.035  0.00  0.00     0.096 A 
HETATM   26  N           1     -22.910  -8.411   0.568  0.00  0.00    -0.365 N 
HETATM   27  C           1     -23.112  -9.519  -0.225  0.00  0.00     0.042 A 
HETATM   28  H           1     -23.366  -8.249   1.499  0.00  0.00     0.165 HD
HETATM   29  C           1     -23.918 -10.644  -0.019  0.00  0.00     0.030 A 
HETATM   30  C           1     -22.331  -9.352  -1.369  0.00  0.00    -0.002 A 
HETATM   31  C           1     -23.923 -11.628  -1.013  0.00  0.00     0.002 A 
HETATM   32  C           1     -23.153 -11.488  -2.166  0.00  0.00     0.001 A 
HETATM   33  C           1     -22.352 -10.355  -2.357  0.00  0.00     0.014 A 
ENDBRANCH  23  24
ENDBRANCH  22  23
BRANCH  22  34
HETATM   34  N           1     -22.673  -6.024  -2.237  0.00  0.00    -0.066 N 
HETATM   35  H           1     -22.645  -6.000  -1.192  0.00  0.00     0.275 HD
HETATM   36  H           1     -23.065  -5.125  -2.596  0.00  0.00     0.275 HD
HETATM   37  H           1     -23.278  -6.817  -2.550  0.00  0.00     0.275 HD
ENDBRANCH  22  34
ENDBRANCH   2  22
TORSDOF 11
ENDMDL
MODEL 2
REMARK VINA RESULT:      -9.8      1.378      2.213
REMARK  11 active torsions:
REMARK  status: ('A' for Active; 'I' for Inactive)
REMARK    1  A    between atoms: O_2  and  C_3 
REMARK    2  A    between atoms: O_2  and  P_37 
REMARK    3  A    between atoms: C_11  and  C_17 
REMARK    4  A    between atoms: C_17  and  C_18 
REMARK    5  A    between atoms: C_17  and  N_35 
REMARK    6  A    between atoms: C_18  and  C_19 
REMARK    7  A    between atoms: C_22  and  C_23 
REMARK    8  A    between atoms: C_23  and  C_29 
REMARK    9  A    between atoms: N_24  and  C_29 
REMARK   10  A    between atoms: O_25  and  P_37 
REMARK   11  A    between atoms: C_29  and  C_30 
REMARK       I    between atoms: C_30  and  N_35 
ROOT
HETATM    1  O           1     -19.507  -7.525  -6.427  0.00  0.00    -0.271 OA
HETATM    2  C           1     -20.609  -7.476  -5.936  0.00  0.00     0.249 C 
HETATM    3  N           1     -21.432  -6.416  -6.206  0.00  0.00    -0.344 N 
HETATM    4  H           1     -22.356  -6.374  -5.795  0.00  0.00     0.163 HD
ENDROOT
BRANCH   3   5
HETATM    5  C           1     -20.979  -5.352  -7.080  0.00  0.00     0.189 C 
BRANCH   5   6
HETATM    6  C           1     -19.794  -4.657  -6.457  0.00  0.00     0.197 C 
HETATM    7  O           1     -19.799  -4.387  -5.236  0.00  0.00    -0.646 OA
HETATM    8  O           1     -18.807  -4.352  -7.160  0.00  0.00    -0.646 OA
ENDBRANCH   5   6
BRANCH   5   9
HETATM    9  C           1     -22.106  -4.347  -7.284  0.00  0.00     0.074 C 
BRANCH   9  10
HETATM   10  C           1     -22.506  -4.329  -8.727  0.00  0.00    -0.056 A 
HETATM   11  C           1     -23.844  -4.153  -9.077  0.00  0.00     0.010 A 
HETATM   12  C           1     -24.217  -4.135 -10.421  0.00  0.00     0.038 A 
HETATM   13  C           1     -23.250  -4.293 -11.414  0.00  0.00     0.081 A 
HETATM   14  C           1     -21.912  -4.469 -11.064  0.00  0.00     0.038 A 
HETATM   15  C           1     -21.540  -4.486  -9.720  0.00  0.00     0.010 A 
BRANCH  13  16
HETATM   16  O           1     -23.612  -4.276 -12.720  0.00  0.00    -0.247 OA
BRANCH  16  17
HETATM   17  P           1     -23.768  -2.841 -13.445  0.00  0.00     0.411 P 
HETATM   18  O           1     -23.549  -2.997 -14.901  0.00  0.00    -0.624 OA
HETATM   19  O           1     -22.770  -1.898 -12.894  0.00  0.00    -0.624 OA
BRANCH  17  20
HETATM   20  O           1     -25.255  -2.266 -13.184  0.00  0.00    -0.300 OA
HETATM   21  H           1     -25.320  -2.174 -12.249  0.00  0.00     0.223 HD
ENDBRANCH  17  20
ENDBRANCH  16  17
ENDBRANCH  13  16
ENDBRANCH   9  10
ENDBRANCH   5   9
ENDBRANCH   3   5
BRANCH   2  22
HETATM   22  C           1     -21.081  -8.583  -5.026  0.00  0.00     0.278 C 
BRANCH  22  23
HETATM   23  C           1     -20.296  -8.537  -3.721  0.00  0.00     0.083 C 
BRANCH  23  24
HETATM   24  C           1     -21.096  -7.816  -2.682  0.00  0.00    -0.028 A 
HETATM   25  C           1     -21.286  -6.455  -2.604  0.00  0.00     0.096 A 
HETATM   26  N           1     -22.075  -6.203  -1.513  0.00  0.00    -0.365 N 
HETATM   27  C           1     -22.400  -7.382  -0.879  0.00  0.00     0.042 A 
HETATM   28  H           1     -22.387  -5.250  -1.204  0.00  0.00     0.165 HD
HETATM   29  C           1     -23.175  -7.610   0.264  0.00  0.00     0.030 A 
HETATM   30  C           1     -21.794  -8.414  -1.596  0.00  0.00    -0.002 A 
HETATM   31  C           1     -23.335  -8.935   0.683  0.00  0.00     0.002 A 
HETATM   32  C           1     -22.742  -9.986  -0.014  0.00  0.00     0.001 A 
HETATM   33  C           1     -21.969  -9.739  -1.155  0.00  0.00     0.014 A 
ENDBRANCH  23  24
ENDBRANCH  22  23
BRANCH  22  34
HETATM   34  N           1     -20.860  -9.908  -5.694  0.00  0.00    -0.066 N 
HETATM   35  H           1     -20.964  -9.797  -6.729  0.00  0.00     0.275 HD
HETATM   36  H           1     -19.898 -10.252  -5.475  0.00  0.00     0.275 HD
HETATM   37  H           1     -21.564 -10.597  -5.346  0.00  0.00     0.275 HD
ENDBRANCH  22  34
ENDBRANCH   2  22
TORSDOF 11
ENDMDL
MODEL 3
REMARK VINA RESULT:      -9.6      4.512     10.073
REMARK  11 active torsions:
REMARK  status: ('A' for Active; 'I' for Inactive)
REMARK    1  A    between atoms: O_2  and  C_3 
REMARK    2  A    between atoms: O_2  and  P_37 
REMARK    3  A    between atoms: C_11  and  C_17 
REMARK    4  A    between atoms: C_17  and  C_18 
REMARK    5  A    between atoms: C_17  and  N_35 
REMARK    6  A    between atoms: C_18  and  C_19 
REMARK    7  A    between atoms: C_22  and  C_23 
REMARK    8  A    between atoms: C_23  and  C_29 
REMARK    9  A    between atoms: N_24  and  C_29 
REMARK   10  A    between atoms: O_25  and  P_37 
REMARK   11  A    between atoms: C_29  and  C_30 
REMARK       I    between atoms: C_30  and  N_35 
ROOT
HETATM    1  O           1     -19.791  -6.603  -6.896  0.00  0.00    -0.271 OA
HETATM    2  C           1     -20.047  -5.469  -6.567  0.00  0.00     0.249 C 
HETATM    3  N           1     -20.625  -5.223  -5.351  0.00  0.00    -0.344 N 
HETATM    4  H           1     -20.839  -4.274  -5.074  0.00  0.00     0.163 HD
ENDROOT
BRANCH   3   5
HETATM    5  C           1     -20.931  -6.324  -4.458  0.00  0.00     0.189 C 
BRANCH   5   6
HETATM    6  C           1     -22.223  -6.976  -4.887  0.00  0.00     0.197 C 
HETATM    7  O           1     -22.252  -8.202  -5.134  0.00  0.00    -0.646 OA
HETATM    8  O           1     -23.263  -6.292  -4.993  0.00  0.00    -0.646 OA
ENDBRANCH   5   6
BRANCH   5   9
HETATM    9  C           1     -21.076  -5.800  -3.036  0.00  0.00     0.074 C 
BRANCH   9  10
HETATM   10  C           1     -21.268  -6.950  -2.096  0.00  0.00    -0.056 A 
HETATM   11  C           1     -22.327  -6.939  -1.188  0.00  0.00     0.010 A 
HETATM   12  C           1     -22.507  -8.010  -0.314  0.00  0.00     0.038 A 
HETATM   13  C           1     -21.628  -9.092  -0.346  0.00  0.00     0.081 A 
HETATM   14  C           1     -20.569  -9.103  -1.254  0.00  0.00     0.038 A 
HETATM   15  C           1     -20.390  -8.032  -2.129  0.00  0.00     0.010 A 
BRANCH  13  16
HETATM   16  O           1     -21.802 -10.132   0.504  0.00  0.00    -0.247 OA
BRANCH  16  17
HETATM   17  P           1     -22.732 -11.361   0.019  0.00  0.00     0.411 P 
HETATM   18  O           1     -24.152 -10.942   0.036  0.00  0.00    -0.624 OA
HETATM   19  O           1     -22.545 -12.512   0.929  0.00  0.00    -0.624 OA
BRANCH  17  20
HETATM   20  O           1     -22.317 -11.788  -1.483  0.00  0.00    -0.300 OA
HETATM   21  H           1     -22.837 -11.240  -2.046  0.00  0.00     0.223 HD
ENDBRANCH  17  20
ENDBRANCH  16  17
ENDBRANCH  13  16
ENDBRANCH   9  10
ENDBRANCH   5   9
ENDBRANCH   3   5
BRANCH   2  22
HETATM   22  C           1     -19.729  -4.323  -7.496  0.00  0.00     0.278 C 
BRANCH  22  23
HETATM   23  C           1     -20.183  -4.672  -8.907  0.00  0.00     0.083 C 
BRANCH  23  24
HETATM   24  C           1     -21.618  -4.283  -9.081  0.00  0.00    -0.028 A 
HETATM   25  C           1     -22.576  -4.254  -8.094  0.00  0.00     0.096 A 
HETATM   26  N           1     -23.753  -3.848  -8.663  0.00  0.00    -0.365 N 
HETATM   27  C           1     -23.574  -3.612 -10.008  0.00  0.00     0.042 A 
HETATM   28  H           1     -24.661  -3.731  -8.149  0.00  0.00     0.165 HD
HETATM   29  C           1     -24.486  -3.187 -10.981  0.00  0.00     0.030 A 
HETATM   30  C           1     -22.236  -3.880 -10.297  0.00  0.00    -0.002 A 
HETATM   31  C           1     -24.013  -3.032 -12.288  0.00  0.00     0.002 A 
HETATM   32  C           1     -22.681  -3.293 -12.605  0.00  0.00     0.001 A 
HETATM   33  C           1     -21.782  -3.718 -11.620  0.00  0.00     0.014 A 
ENDBRANCH  23  24
ENDBRANCH  22  23
BRANCH  22  34
HETATM   34  N           1     -18.249  -4.075  -7.494  0.00  0.00    -0.066 N 
HETATM   35  H           1     -18.043  -3.199  -6.963  0.00  0.00     0.275 HD
HETATM   36  H           1     -17.762  -4.881  -7.041  0.00  0.00     0.275 HD
HETATM   37  H           1     -17.911  -3.973  -8.478  0.00  0.00     0.275 HD
ENDBRANCH  22  34
ENDBRANCH   2  22
TORSDOF 11
ENDMDL
MODEL 4
REMARK VINA RESULT:      -9.4      2.024      2.742
REMARK  11 active torsions:
REMARK  status: ('A' for Active; 'I' for Inactive)
REMARK    1  A    between atoms: O_2  and  C_3 
REMARK    2  A    between atoms: O_2  and  P_37 
REMARK    3  A    between atoms: C_11  and  C_17 
REMARK    4  A    between atoms: C_17  and  C_18 
REMARK    5  A    between atoms: C_17  and  N_35 
REMARK    6  A    between atoms: C_18  and  C_19 
REMARK    7  A    between atoms: C_22  and  C_23 
REMARK    8  A    between atoms: C_23  and  C_29 
REMARK    9  A    between atoms: N_24  and  C_29 
REMARK   10  A    between atoms: O_25  and  P_37 
REMARK   11  A    between atoms: C_29  and  C_30 
REMARK       I    between atoms: C_30  and  N_35 
ROOT
HETATM    1  O           1     -22.230  -6.064  -5.397  0.00  0.00    -0.271 OA
HETATM    2  C           1     -21.465  -6.910  -5.792  0.00  0.00     0.249 C 
HETATM    3  N           1     -20.737  -6.697  -6.932  0.00  0.00    -0.344 N 
HETATM    4  H           1     -20.096  -7.405  -7.263  0.00  0.00     0.163 HD
ENDROOT
BRANCH   3   5
HETATM    5  C           1     -20.887  -5.455  -7.665  0.00  0.00     0.189 C 
BRANCH   5   6
HETATM    6  C           1     -20.500  -4.297  -6.779  0.00  0.00     0.197 C 
HETATM    7  O           1     -19.467  -4.365  -6.078  0.00  0.00    -0.646 OA
HETATM    8  O           1     -21.210  -3.269  -6.747  0.00  0.00    -0.646 OA
ENDBRANCH   5   6
BRANCH   5   9
HETATM    9  C           1     -22.337  -5.295  -8.102  0.00  0.00     0.074 C 
BRANCH   9  10
HETATM   10  C           1     -22.396  -4.467  -9.349  0.00  0.00    -0.056 A 
HETATM   11  C           1     -21.276  -4.369 -10.174  0.00  0.00     0.010 A 
HETATM   12  C           1     -21.330  -3.599 -11.335  0.00  0.00     0.038 A 
HETATM   13  C           1     -22.505  -2.926 -11.671  0.00  0.00     0.081 A 
HETATM   14  C           1     -23.625  -3.024 -10.846  0.00  0.00     0.038 A 
HETATM   15  C           1     -23.570  -3.795  -9.685  0.00  0.00     0.010 A 
BRANCH  13  16
HETATM   16  O           1     -22.558  -2.177 -12.798  0.00  0.00    -0.247 OA
BRANCH  16  17
HETATM   17  P           1     -23.370  -2.768 -14.064  0.00  0.00     0.411 P 
HETATM   18  O           1     -24.234  -1.710 -14.633  0.00  0.00    -0.624 OA
HETATM   19  O           1     -24.207  -3.907 -13.626  0.00  0.00    -0.624 OA
BRANCH  17  20
HETATM   20  O           1     -22.323  -3.269 -15.187  0.00  0.00    -0.300 OA
HETATM   21  H           1     -21.471  -3.105 -14.818  0.00  0.00     0.223 HD
ENDBRANCH  17  20
ENDBRANCH  16  17
ENDBRANCH  13  16
ENDBRANCH   9  10
ENDBRANCH   5   9
ENDBRANCH   3   5
BRANCH   2  22
HETATM   22  C           1     -21.309  -8.203  -5.029  0.00  0.00     0.278 C 
BRANCH  22  23
HETATM   23  C           1     -20.040  -8.148  -4.189  0.00  0.00     0.083 C 
BRANCH  23  24
HETATM   24  C           1     -20.266  -8.863  -2.894  0.00  0.00    -0.028 A 
HETATM   25  C           1     -19.752 -10.091  -2.545  0.00  0.00     0.096 A 
HETATM   26  N           1     -20.196 -10.388  -1.283  0.00  0.00    -0.365 N 
HETATM   27  C           1     -20.992  -9.370  -0.807  0.00  0.00     0.042 A 
HETATM   28  H           1     -19.963 -11.264  -0.755  0.00  0.00     0.165 HD
HETATM   29  C           1     -21.657  -9.238   0.417  0.00  0.00     0.030 A 
HETATM   30  C           1     -21.053  -8.396  -1.805  0.00  0.00    -0.002 A 
HETATM   31  C           1     -22.406  -8.075   0.625  0.00  0.00     0.002 A 
HETATM   32  C           1     -22.484  -7.087  -0.353  0.00  0.00     0.001 A 
HETATM   33  C           1     -21.813  -7.234  -1.573  0.00  0.00     0.014 A 
ENDBRANCH  23  24
ENDBRANCH  22  23
BRANCH  22  34
HETATM   34  N           1     -21.218  -9.346  -5.997  0.00  0.00    -0.066 N 
HETATM   35  H           1     -20.909 -10.207  -5.491  0.00  0.00     0.275 HD
HETATM   36  H           1     -22.156  -9.512  -6.428  0.00  0.00     0.275 HD
HETATM   37  H           1     -20.527  -9.115  -6.746  0.00  0.00     0.275 HD
ENDBRANCH  22  34
ENDBRANCH   2  22
TORSDOF 11
ENDMDL
MODEL 5
REMARK VINA RESULT:      -9.4      1.270      1.944
REMARK  11 active torsions:
REMARK  status: ('A' for Active; 'I' for Inactive)
REMARK    1  A    between atoms: O_2  and  C_3 
REMARK    2  A    between atoms: O_2  and  P_37 
REMARK    3  A    between atoms: C_11  and  C_17 
REMARK    4  A    between atoms: C_17  and  C_18 
REMARK    5  A    between atoms: C_17  and  N_35 
REMARK    6  A    between atoms: C_18  and  C_19 
REMARK    7  A    between atoms: C_22  and  C_23 
REMARK    8  A    between atoms: C_23  and  C_29 
REMARK    9  A    between atoms: N_24  and  C_29 
REMARK   10  A    between atoms: O_25  and  P_37 
REMARK   11  A    between atoms: C_29  and  C_30 
REMARK       I    between atoms: C_30  and  N_35 
ROOT
HETATM    1  O           1     -21.294  -7.981  -5.327  0.00  0.00    -0.271 OA
HETATM    2  C           1     -21.342  -7.013  -4.606  0.00  0.00     0.249 C 
HETATM    3  N           1     -21.278  -5.756  -5.143  0.00  0.00    -0.344 N 
HETATM    4  H           1     -21.318  -4.945  -4.540  0.00  0.00     0.163 HD
ENDROOT
BRANCH   3   5
HETATM    5  C           1     -21.153  -5.586  -6.578  0.00  0.00     0.189 C 
BRANCH   5   6
HETATM    6  C           1     -19.696  -5.639  -6.966  0.00  0.00     0.197 C 
HETATM    7  O           1     -18.971  -4.631  -6.812  0.00  0.00    -0.646 OA
HETATM    8  O           1     -19.213  -6.690  -7.440  0.00  0.00    -0.646 OA
ENDBRANCH   5   6
BRANCH   5   9
HETATM    9  C           1     -21.737  -4.240  -6.983  0.00  0.00     0.074 C 
BRANCH   9  10
HETATM   10  C           1     -22.231  -4.313  -8.395  0.00  0.00    -0.056 A 
HETATM   11  C           1     -21.322  -4.415  -9.447  0.00  0.00     0.010 A 
HETATM   12  C           1     -21.782  -4.484 -10.762  0.00  0.00     0.038 A 
HETATM   13  C           1     -23.152  -4.451 -11.024  0.00  0.00     0.081 A 
HETATM   14  C           1     -24.061  -4.350  -9.971  0.00  0.00     0.038 A 
HETATM   15  C           1     -23.600  -4.281  -8.656  0.00  0.00     0.010 A 
BRANCH  13  16
HETATM   16  O           1     -23.599  -4.518 -12.300  0.00  0.00    -0.247 OA
BRANCH  16  17
HETATM   17  P           1     -24.057  -3.145 -13.017  0.00  0.00     0.411 P 
HETATM   18  O           1     -25.460  -2.844 -12.655  0.00  0.00    -0.624 OA
HETATM   19  O           1     -23.947  -3.294 -14.485  0.00  0.00    -0.624 OA
BRANCH  17  20
HETATM   20  O           1     -23.104  -1.938 -12.524  0.00  0.00    -0.300 OA
HETATM   21  H           1     -22.362  -2.360 -12.126  0.00  0.00     0.223 HD
ENDBRANCH  17  20
ENDBRANCH  16  17
ENDBRANCH  13  16
ENDBRANCH   9  10
ENDBRANCH   5   9
ENDBRANCH   3   5
BRANCH   2  22
HETATM   22  C           1     -21.472  -7.190  -3.113  0.00  0.00     0.278 C 
BRANCH  22  23
HETATM   23  C           1     -22.340  -8.405  -2.818  0.00  0.00     0.083 C 
BRANCH  23  24
HETATM   24  C           1     -21.593  -9.350  -1.930  0.00  0.00    -0.028 A 
HETATM   25  C           1     -20.226  -9.416  -1.783  0.00  0.00     0.096 A 
HETATM   26  N           1     -19.948 -10.411  -0.883  0.00  0.00    -0.365 N 
HETATM   27  C           1     -21.116 -10.993  -0.443  0.00  0.00     0.042 A 
HETATM   28  H           1     -18.985 -10.688  -0.573  0.00  0.00     0.165 HD
HETATM   29  C           1     -21.319 -12.036   0.468  0.00  0.00     0.030 A 
HETATM   30  C           1     -22.167 -10.343  -1.089  0.00  0.00    -0.002 A 
HETATM   31  C           1     -22.638 -12.425   0.724  0.00  0.00     0.002 A 
HETATM   32  C           1     -23.708 -11.793   0.093  0.00  0.00     0.001 A 
HETATM   33  C           1     -23.487 -10.751  -0.816  0.00  0.00     0.014 A 
ENDBRANCH  23  24
ENDBRANCH  22  23
BRANCH  22  34
HETATM   34  N           1     -22.107  -5.967  -2.519  0.00  0.00    -0.066 N 
HETATM   35  H           1     -21.877  -5.914  -1.501  0.00  0.00     0.275 HD
HETATM   36  H           1     -21.743  -5.115  -3.004  0.00  0.00     0.275 HD
HETATM   37  H           1     -23.144  -6.018  -2.639  0.00  0.00     0.275 HD
ENDBRANCH  22  34
ENDBRANCH   2  22
TORSDOF 11
ENDMDL
MODEL 6
REMARK VINA RESULT:      -9.2      4.869     10.040
REMARK  11 active torsions:
REMARK  status: ('A' for Active; 'I' for Inactive)
REMARK    1  A    between atoms: O_2  and  C_3 
REMARK    2  A    between atoms: O_2  and  P_37 
REMARK    3  A    between atoms: C_11  and  C_17 
REMARK    4  A    between atoms: C_17  and  C_18 
REMARK    5  A    between atoms: C_17  and  N_35 
REMARK    6  A    between atoms: C_18  and  C_19 
REMARK    7  A    between atoms: C_22  and  C_23 
REMARK    8  A    between atoms: C_23  and  C_29 
REMARK    9  A    between atoms: N_24  and  C_29 
REMARK   10  A    between atoms: O_25  and  P_37 
REMARK   11  A    between atoms: C_29  and  C_30 
REMARK       I    between atoms: C_30  and  N_35 
ROOT
HETATM    1  O           1     -21.154  -8.026  -6.263  0.00  0.00    -0.271 OA
HETATM    2  C           1     -20.961  -7.147  -5.457  0.00  0.00     0.249 C 
HETATM    3  N           1     -20.552  -7.459  -4.188  0.00  0.00    -0.344 N 
HETATM    4  H           1     -20.389  -6.724  -3.513  0.00  0.00     0.163 HD
ENDROOT
BRANCH   3   5
HETATM    5  C           1     -20.352  -8.846  -3.812  0.00  0.00     0.189 C 
BRANCH   5   6
HETATM    6  C           1     -21.604  -9.375  -3.157  0.00  0.00     0.197 C 
HETATM    7  O           1     -21.928  -8.979  -2.017  0.00  0.00    -0.646 OA
HETATM    8  O           1     -22.317 -10.209  -3.755  0.00  0.00    -0.646 OA
ENDBRANCH   5   6
BRANCH   5   9
HETATM    9  C           1     -19.189  -8.944  -2.835  0.00  0.00     0.074 C 
BRANCH   9  10
HETATM   10  C           1     -17.980  -9.469  -3.547  0.00  0.00    -0.056 A 
HETATM   11  C           1     -18.039  -9.739  -4.914  0.00  0.00     0.010 A 
HETATM   12  C           1     -16.914 -10.228  -5.577  0.00  0.00     0.038 A 
HETATM   13  C           1     -15.729 -10.446  -4.873  0.00  0.00     0.081 A 
HETATM   14  C           1     -15.671 -10.175  -3.506  0.00  0.00     0.038 A 
HETATM   15  C           1     -16.796  -9.686  -2.843  0.00  0.00     0.010 A 
BRANCH  13  16
HETATM   16  O           1     -14.636 -10.920  -5.517  0.00  0.00    -0.247 OA
BRANCH  16  17
HETATM   17  P           1     -14.202 -12.452  -5.247  0.00  0.00     0.411 P 
HETATM   18  O           1     -15.412 -13.296  -5.134  0.00  0.00    -0.624 OA
HETATM   19  O           1     -13.425 -12.531  -3.991  0.00  0.00    -0.624 OA
BRANCH  17  20
HETATM   20  O           1     -13.295 -12.977  -6.477  0.00  0.00    -0.300 OA
HETATM   21  H           1     -12.980 -13.822  -6.204  0.00  0.00     0.223 HD
ENDBRANCH  17  20
ENDBRANCH  16  17
ENDBRANCH  13  16
ENDBRANCH   9  10
ENDBRANCH   5   9
ENDBRANCH   3   5
BRANCH   2  22
HETATM   22  C           1     -21.168  -5.705  -5.849  0.00  0.00     0.278 C 
BRANCH  22  23
HETATM   23  C           1     -20.809  -5.520  -7.317  0.00  0.00     0.083 C 
BRANCH  23  24
HETATM   24  C           1     -21.921  -4.804  -8.018  0.00  0.00    -0.028 A 
HETATM   25  C           1     -23.141  -4.473  -7.475  0.00  0.00     0.096 A 
HETATM   26  N           1     -23.869  -3.831  -8.442  0.00  0.00    -0.365 N 
HETATM   27  C           1     -23.139  -3.740  -9.606  0.00  0.00     0.042 A 
HETATM   28  H           1     -24.843  -3.460  -8.314  0.00  0.00     0.165 HD
HETATM   29  C           1     -23.473  -3.173 -10.841  0.00  0.00     0.030 A 
HETATM   30  C           1     -21.907  -4.347  -9.365  0.00  0.00    -0.002 A 
HETATM   31  C           1     -22.515  -3.230 -11.859  0.00  0.00     0.002 A 
HETATM   32  C           1     -21.276  -3.830 -11.646  0.00  0.00     0.001 A 
HETATM   33  C           1     -20.958  -4.393 -10.404  0.00  0.00     0.014 A 
ENDBRANCH  23  24
ENDBRANCH  22  23
BRANCH  22  34
HETATM   34  N           1     -20.291  -4.827  -5.005  0.00  0.00    -0.066 N 
HETATM   35  H           1     -20.237  -3.875  -5.433  0.00  0.00     0.275 HD
HETATM   36  H           1     -20.694  -4.755  -4.043  0.00  0.00     0.275 HD
HETATM   37  H           1     -19.333  -5.240  -4.950  0.00  0.00     0.275 HD
ENDBRANCH  22  34
ENDBRANCH   2  22
TORSDOF 11
ENDMDL
MODEL 7
REMARK VINA RESULT:      -8.9      2.617      3.878
REMARK  11 active torsions:
REMARK  status: ('A' for Active; 'I' for Inactive)
REMARK    1  A    between atoms: O_2  and  C_3 
REMARK    2  A    between atoms: O_2  and  P_37 
REMARK    3  A    between atoms: C_11  and  C_17 
REMARK    4  A    between atoms: C_17  and  C_18 
REMARK    5  A    between atoms: C_17  and  N_35 
REMARK    6  A    between atoms: C_18  and  C_19 
REMARK    7  A    between atoms: C_22  and  C_23 
REMARK    8  A    between atoms: C_23  and  C_29 
REMARK    9  A    between atoms: N_24  and  C_29 
REMARK   10  A    between atoms: O_25  and  P_37 
REMARK   11  A    between atoms: C_29  and  C_30 
REMARK       I    between atoms: C_30  and  N_35 
ROOT
HETATM    1  O           1     -21.047 -10.954  -6.241  0.00  0.00    -0.271 OA
HETATM    2  C           1     -21.502 -10.568  -5.191  0.00  0.00     0.249 C 
HETATM    3  N           1     -21.173  -9.327  -4.717  0.00  0.00    -0.344 N 
HETATM    4  H           1     -21.554  -9.003  -3.838  0.00  0.00     0.163 HD
ENDROOT
BRANCH   3   5
HETATM    5  C           1     -20.279  -8.475  -5.477  0.00  0.00     0.189 C 
BRANCH   5   6
HETATM    6  C           1     -18.862  -8.974  -5.330  0.00  0.00     0.197 C 
HETATM    7  O           1     -18.394  -9.198  -4.192  0.00  0.00    -0.646 OA
HETATM    8  O           1     -18.158  -9.164  -6.345  0.00  0.00    -0.646 OA
ENDBRANCH   5   6
BRANCH   5   9
HETATM    9  C           1     -20.369  -7.048  -4.953  0.00  0.00     0.074 C 
BRANCH   9  10
HETATM   10  C           1     -20.785  -6.133  -6.064  0.00  0.00    -0.056 A 
HETATM   11  C           1     -22.018  -5.484  -6.008  0.00  0.00     0.010 A 
HETATM   12  C           1     -22.405  -4.632  -7.042  0.00  0.00     0.038 A 
HETATM   13  C           1     -21.559  -4.429  -8.132  0.00  0.00     0.081 A 
HETATM   14  C           1     -20.325  -5.077  -8.187  0.00  0.00     0.038 A 
HETATM   15  C           1     -19.938  -5.929  -7.153  0.00  0.00     0.010 A 
BRANCH  13  16
HETATM   16  O           1     -21.934  -3.601  -9.136  0.00  0.00    -0.247 OA
BRANCH  16  17
HETATM   17  P           1     -23.354  -3.876  -9.855  0.00  0.00     0.411 P 
HETATM   18  O           1     -23.475  -5.316 -10.175  0.00  0.00    -0.624 OA
HETATM   19  O           1     -23.437  -3.085 -11.103  0.00  0.00    -0.624 OA
BRANCH  17  20
HETATM   20  O           1     -24.552  -3.444  -8.862  0.00  0.00    -0.300 OA
HETATM   21  H           1     -24.657  -2.517  -8.995  0.00  0.00     0.223 HD
ENDBRANCH  17  20
ENDBRANCH  16  17
ENDBRANCH  13  16
ENDBRANCH   9  10
ENDBRANCH   5   9
ENDBRANCH   3   5
BRANCH   2  22
HETATM   22  C           1     -22.433 -11.454  -4.400  0.00  0.00     0.278 C 
BRANCH  22  23
HETATM   23  C           1     -21.773 -11.838  -3.082  0.00  0.00     0.083 C 
BRANCH  23  24
HETATM   24  C           1     -22.544 -11.243  -1.945  0.00  0.00    -0.028 A 
HETATM   25  C           1     -23.620 -11.816  -1.307  0.00  0.00     0.096 A 
HETATM   26  N           1     -24.035 -10.953  -0.329  0.00  0.00    -0.365 N 
HETATM   27  C           1     -23.244  -9.825  -0.321  0.00  0.00     0.042 A 
HETATM   28  H           1     -24.840 -11.125   0.323  0.00  0.00     0.165 HD
HETATM   29  C           1     -23.296  -8.689   0.494  0.00  0.00     0.030 A 
HETATM   30  C           1     -22.296  -9.984  -1.332  0.00  0.00    -0.002 A 
HETATM   31  C           1     -22.348  -7.686   0.266  0.00  0.00     0.002 A 
HETATM   32  C           1     -21.390  -7.817  -0.736  0.00  0.00     0.001 A 
HETATM   33  C           1     -21.352  -8.961  -1.543  0.00  0.00     0.014 A 
ENDBRANCH  23  24
ENDBRANCH  22  23
BRANCH  22  34
HETATM   34  N           1     -22.731 -12.695  -5.189  0.00  0.00    -0.066 N 
HETATM   35  H           1     -23.473 -13.248  -4.701  0.00  0.00     0.275 HD
HETATM   36  H           1     -23.065 -12.429  -6.143  0.00  0.00     0.275 HD
HETATM   37  H           1     -21.865 -13.273  -5.271  0.00  0.00     0.275 HD
ENDBRANCH  22  34
ENDBRANCH   2  22
TORSDOF 11
ENDMDL
MODEL 8
REMARK VINA RESULT:      -8.9      0.779      1.667
REMARK  11 active torsions:
REMARK  status: ('A' for Active; 'I' for Inactive)
REMARK    1  A    between atoms: O_2  and  C_3 
REMARK    2  A    between atoms: O_2  and  P_37 
REMARK    3  A    between atoms: C_11  and  C_17 
REMARK    4  A    between atoms: C_17  and  C_18 
REMARK    5  A    between atoms: C_17  and  N_35 
REMARK    6  A    between atoms: C_18  and  C_19 
REMARK    7  A    between atoms: C_22  and  C_23 
REMARK    8  A    between atoms: C_23  and  C_29 
REMARK    9  A    between atoms: N_24  and  C_29 
REMARK   10  A    between atoms: O_25  and  P_37 
REMARK   11  A    between atoms: C_29  and  C_30 
REMARK       I    between atoms: C_30  and  N_35 
ROOT
HETATM    1  O           1     -22.603  -6.612  -4.663  0.00  0.00    -0.271 OA
HETATM    2  C           1     -21.667  -6.011  -4.190  0.00  0.00     0.249 C 
HETATM    3  N           1     -20.786  -5.361  -5.012  0.00  0.00    -0.344 N 
HETATM    4  H           1     -20.002  -4.858  -4.617  0.00  0.00     0.163 HD
ENDROOT
BRANCH   3   5
HETATM    5  C           1     -20.976  -5.394  -6.449  0.00  0.00     0.189 C 
BRANCH   5   6
HETATM    6  C           1     -19.660  -5.690  -7.125  0.00  0.00     0.197 C 
HETATM    7  O           1     -18.850  -4.764  -7.347  0.00  0.00    -0.646 OA
HETATM    8  O           1     -19.380  -6.860  -7.463  0.00  0.00    -0.646 OA
ENDBRANCH   5   6
BRANCH   5   9
HETATM    9  C           1     -21.497  -4.044  -6.924  0.00  0.00     0.074 C 
BRANCH   9  10
HETATM   10  C           1     -22.061  -4.182  -8.304  0.00  0.00    -0.056 A 
HETATM   11  C           1     -21.208  -4.194  -9.408  0.00  0.00     0.010 A 
HETATM   12  C           1     -21.733  -4.323 -10.693  0.00  0.00     0.038 A 
HETATM   13  C           1     -23.111  -4.441 -10.875  0.00  0.00     0.081 A 
HETATM   14  C           1     -23.964  -4.430  -9.772  0.00  0.00     0.038 A 
HETATM   15  C           1     -23.438  -4.301  -8.486  0.00  0.00     0.010 A 
BRANCH  13  16
HETATM   16  O           1     -23.621  -4.567 -12.124  0.00  0.00    -0.247 OA
BRANCH  16  17
HETATM   17  P           1     -24.063  -3.222 -12.902  0.00  0.00     0.411 P 
HETATM   18  O           1     -25.443  -2.857 -12.512  0.00  0.00    -0.624 OA
HETATM   19  O           1     -24.007  -3.456 -14.362  0.00  0.00    -0.624 OA
BRANCH  17  20
HETATM   20  O           1     -23.058  -2.020 -12.509  0.00  0.00    -0.300 OA
HETATM   21  H           1     -23.509  -1.533 -11.840  0.00  0.00     0.223 HD
ENDBRANCH  17  20
ENDBRANCH  16  17
ENDBRANCH  13  16
ENDBRANCH   9  10
ENDBRANCH   5   9
ENDBRANCH   3   5
BRANCH   2  22
HETATM   22  C           1     -21.469  -5.977  -2.695  0.00  0.00     0.278 C 
BRANCH  22  23
HETATM   23  C           1     -20.513  -7.088  -2.283  0.00  0.00     0.083 C 
BRANCH  23  24
HETATM   24  C           1     -21.296  -8.264  -1.788  0.00  0.00    -0.028 A 
HETATM   25  C           1     -21.790  -8.432  -0.515  0.00  0.00     0.096 A 
HETATM   26  N           1     -22.443  -9.636  -0.474  0.00  0.00    -0.365 N 
HETATM   27  C           1     -22.381 -10.253  -1.704  0.00  0.00     0.042 A 
HETATM   28  H           1     -22.922 -10.031   0.372  0.00  0.00     0.165 HD
HETATM   29  C           1     -22.900 -11.482  -2.126  0.00  0.00     0.030 A 
HETATM   30  C           1     -21.662  -9.408  -2.550  0.00  0.00    -0.002 A 
HETATM   31  C           1     -22.676 -11.857  -3.455  0.00  0.00     0.002 A 
HETATM   32  C           1     -21.962 -11.033  -4.323  0.00  0.00     0.001 A 
HETATM   33  C           1     -21.449  -9.806  -3.884  0.00  0.00     0.014 A 
ENDBRANCH  23  24
ENDBRANCH  22  23
BRANCH  22  34
HETATM   34  N           1     -22.790  -6.176  -2.011  0.00  0.00    -0.066 N 
HETATM   35  H           1     -23.469  -6.602  -2.683  0.00  0.00     0.275 HD
HETATM   36  H           1     -22.665  -6.811  -1.191  0.00  0.00     0.275 HD
HETATM   37  H           1     -23.156  -5.254  -1.684  0.00  0.00     0.275 HD
ENDBRANCH  22  34
ENDBRANCH   2  22
TORSDOF 11
ENDMDL
MODEL 9
REMARK VINA RESULT:      -8.7      4.827     10.250
REMARK  11 active torsions:
REMARK  status: ('A' for Active; 'I' for Inactive)
REMARK    1  A    between atoms: O_2  and  C_3 
REMARK    2  A    between atoms: O_2  and  P_37 
REMARK    3  A    between atoms: C_11  and  C_17 
REMARK    4  A    between atoms: C_17  and  C_18 
REMARK    5  A    between atoms: C_17  and  N_35 
REMARK    6  A    between atoms: C_18  and  C_19 
REMARK    7  A    between atoms: C_22  and  C_23 
REMARK    8  A    between atoms: C_23  and  C_29 
REMARK    9  A    between atoms: N_24  and  C_29 
REMARK   10  A    between atoms: O_25  and  P_37 
REMARK   11  A    between atoms: C_29  and  C_30 
REMARK       I    between atoms: C_30  and  N_35 
ROOT
HETATM    1  O           1     -20.425  -4.909  -5.269  0.00  0.00    -0.271 OA
HETATM    2  C           1     -20.084  -5.433  -6.302  0.00  0.00     0.249 C 
HETATM    3  N           1     -19.875  -6.786  -6.348  0.00  0.00    -0.344 N 
HETATM    4  H           1     -19.590  -7.226  -7.213  0.00  0.00     0.163 HD
ENDROOT
BRANCH   3   5
HETATM    5  C           1     -20.062  -7.588  -5.154  0.00  0.00     0.189 C 
BRANCH   5   6
HETATM    6  C           1     -19.056  -8.712  -5.140  0.00  0.00     0.197 C 
HETATM    7  O           1     -18.383  -8.935  -4.109  0.00  0.00    -0.646 OA
HETATM    8  O           1     -18.895  -9.421  -6.156  0.00  0.00    -0.646 OA
ENDBRANCH   5   6
BRANCH   5   9
HETATM    9  C           1     -21.470  -8.169  -5.148  0.00  0.00     0.074 C 
BRANCH   9  10
HETATM   10  C           1     -21.721  -8.858  -3.842  0.00  0.00    -0.056 A 
HETATM   11  C           1     -21.511  -8.177  -2.643  0.00  0.00     0.010 A 
HETATM   12  C           1     -21.746  -8.819  -1.427  0.00  0.00     0.038 A 
HETATM   13  C           1     -22.191 -10.141  -1.411  0.00  0.00     0.081 A 
HETATM   14  C           1     -22.401 -10.821  -2.610  0.00  0.00     0.038 A 
HETATM   15  C           1     -22.167 -10.179  -3.826  0.00  0.00     0.010 A 
BRANCH  13  16
HETATM   16  O           1     -22.418 -10.764  -0.230  0.00  0.00    -0.247 OA
BRANCH  16  17
HETATM   17  P           1     -21.165 -11.456   0.517  0.00  0.00     0.411 P 
HETATM   18  O           1     -21.629 -12.651   1.256  0.00  0.00    -0.624 OA
HETATM   19  O           1     -20.561 -10.493   1.465  0.00  0.00    -0.624 OA
BRANCH  17  20
HETATM   20  O           1     -20.063 -11.897  -0.579  0.00  0.00    -0.300 OA
HETATM   21  H           1     -19.337 -11.312  -0.445  0.00  0.00     0.223 HD
ENDBRANCH  17  20
ENDBRANCH  16  17
ENDBRANCH  13  16
ENDBRANCH   9  10
ENDBRANCH   5   9
ENDBRANCH   3   5
BRANCH   2  22
HETATM   22  C           1     -19.889  -4.599  -7.544  0.00  0.00     0.278 C 
BRANCH  22  23
HETATM   23  C           1     -20.157  -5.451  -8.777  0.00  0.00     0.083 C 
BRANCH  23  24
HETATM   24  C           1     -20.699  -4.588  -9.873  0.00  0.00    -0.028 A 
HETATM   25  C           1     -19.969  -4.002 -10.881  0.00  0.00     0.096 A 
HETATM   26  N           1     -20.837  -3.297 -11.673  0.00  0.00    -0.365 N 
HETATM   27  C           1     -22.122  -3.417 -11.193  0.00  0.00     0.042 A 
HETATM   28  H           1     -20.562  -2.747 -12.523  0.00  0.00     0.165 HD
HETATM   29  C           1     -23.320  -2.875 -11.673  0.00  0.00     0.030 A 
HETATM   30  C           1     -22.062  -4.225 -10.058  0.00  0.00    -0.002 A 
HETATM   31  C           1     -24.492  -3.171 -10.968  0.00  0.00     0.002 A 
HETATM   32  C           1     -24.462  -3.976  -9.831  0.00  0.00     0.001 A 
HETATM   33  C           1     -23.254  -4.510  -9.365  0.00  0.00     0.014 A 
ENDBRANCH  23  24
ENDBRANCH  22  23
BRANCH  22  34
HETATM   34  N           1     -18.479  -4.088  -7.586  0.00  0.00    -0.066 N 
HETATM   35  H           1     -17.825  -4.847  -7.286  0.00  0.00     0.275 HD
HETATM   36  H           1     -18.246  -3.792  -8.561  0.00  0.00     0.275 HD
HETATM   37  H           1     -18.384  -3.271  -6.942  0.00  0.00     0.275 HD
ENDBRANCH  22  34
ENDBRANCH   2  22
TORSDOF 11
ENDMDL
