MODEL 1
REMARK VINA RESULT:      -5.4      0.000      0.000
REMARK  8 active torsions:
REMARK  status: ('A' for Active; 'I' for Inactive)
REMARK    1  A    between atoms: N_3  and  C_4 
REMARK       I    between atoms: N_3  and  C_20 
REMARK    2  A    between atoms: C_4  and  C_5 
REMARK    3  A    between atoms: C_4  and  C_11 
REMARK    4  A    between atoms: C_5  and  C_6 
REMARK    5  A    between atoms: C_6  and  Se_15 
REMARK    6  A    between atoms: C_8  and  C_12 
REMARK    7  A    between atoms: N_9  and  C_12 
REMARK    8  A    between atoms: C_12  and  C_20 
ROOT
HETATM    1  H           1     -22.388  -6.230  -7.926  0.00  0.00     0.163 HD
HETATM    2  N           1     -21.987  -5.378  -7.554  0.00  0.00    -0.345 N 
HETATM    3  O           1     -21.801  -3.157  -7.690  0.00  0.00    -0.271 OA
HETATM    4  C           1     -22.280  -4.173  -8.134  0.00  0.00     0.249 C 
ENDROOT
BRANCH   2   5
HETATM    5  C           1     -21.100  -5.435  -6.408  0.00  0.00     0.185 C 
BRANCH   5   6
HETATM    6  C           1     -21.595  -6.500  -5.438  0.00  0.00     0.036 C 
BRANCH   6   7
HETATM    7  C           1     -21.364  -6.031  -4.008  0.00  0.00     0.003 C 
BRANCH   7   8
HETATM    8 Se           1     -21.325  -7.573  -2.815  0.00  0.00     0.000 Se
HETATM    9  C           1     -22.236  -6.667  -1.349  0.00  0.00     0.000 C 
ENDBRANCH   7   8
ENDBRANCH   6   7
ENDBRANCH   5   6
BRANCH   5  10
HETATM   10  C           1     -19.707  -5.780  -6.868  0.00  0.00     0.196 C 
HETATM   11  O           1     -19.333  -6.972  -6.893  0.00  0.00    -0.646 OA
HETATM   12  O           1     -18.923  -4.873  -7.225  0.00  0.00    -0.646 OA
ENDBRANCH   5  10
ENDBRANCH   2   5
BRANCH   4  13
HETATM   13  C           1     -23.202  -4.115  -9.328  0.00  0.00     0.278 C 
BRANCH  13  14
HETATM   14  C           1     -22.490  -3.427 -10.486  0.00  0.00     0.017 C 
HETATM   15  C           1     -21.460  -4.376 -11.083  0.00  0.00     0.012 C 
HETATM   16  C           1     -23.508  -3.046 -11.552  0.00  0.00     0.012 C 
ENDBRANCH  13  14
BRANCH  13  17
HETATM   17  N           1     -24.435  -3.340  -8.968  0.00  0.00    -0.066 N 
HETATM   18  H           1     -25.035  -3.227  -9.816  0.00  0.00     0.275 HD
HETATM   19  H           1     -24.968  -3.855  -8.231  0.00  0.00     0.275 HD
HETATM   20  H           1     -24.162  -2.398  -8.607  0.00  0.00     0.275 HD
ENDBRANCH  13  17
ENDBRANCH   4  13
TORSDOF 8
ENDMDL
MODEL 2
REMARK VINA RESULT:      -5.4      2.921      6.505
REMARK  8 active torsions:
REMARK  status: ('A' for Active; 'I' for Inactive)
REMARK    1  A    between atoms: N_3  and  C_4 
REMARK       I    between atoms: N_3  and  C_20 
REMARK    2  A    between atoms: C_4  and  C_5 
REMARK    3  A    between atoms: C_4  and  C_11 
REMARK    4  A    between atoms: C_5  and  C_6 
REMARK    5  A    between atoms: C_6  and  Se_15 
REMARK    6  A    between atoms: C_8  and  C_12 
REMARK    7  A    between atoms: N_9  and  C_12 
REMARK    8  A    between atoms: C_12  and  C_20 
ROOT
HETATM    1  H           1     -20.640  -4.705  -4.506  0.00  0.00     0.163 HD
HETATM    2  N           1     -21.078  -5.492  -4.967  0.00  0.00    -0.345 N 
HETATM    3  O           1     -22.029  -7.504  -4.780  0.00  0.00    -0.271 OA
HETATM    4  C           1     -21.506  -6.565  -4.230  0.00  0.00     0.249 C 
ENDROOT
BRANCH   2   5
HETATM    5  C           1     -21.253  -5.485  -6.406  0.00  0.00     0.185 C 
BRANCH   5   6
HETATM    6  C           1     -21.784  -4.126  -6.845  0.00  0.00     0.036 C 
BRANCH   6   7
HETATM    7  C           1     -23.051  -4.318  -7.667  0.00  0.00     0.003 C 
BRANCH   7   8
HETATM    8 Se           1     -22.685  -3.890  -9.534  0.00  0.00     0.000 Se
HETATM    9  C           1     -24.528  -3.422  -9.959  0.00  0.00     0.000 C 
ENDBRANCH   7   8
ENDBRANCH   6   7
ENDBRANCH   5   6
BRANCH   5  10
HETATM   10  C           1     -19.927  -5.748  -7.074  0.00  0.00     0.196 C 
HETATM   11  O           1     -19.414  -6.887  -7.019  0.00  0.00    -0.646 OA
HETATM   12  O           1     -19.340  -4.828  -7.684  0.00  0.00    -0.646 OA
ENDBRANCH   5  10
ENDBRANCH   2   5
BRANCH   4  13
HETATM   13  C           1     -21.323  -6.572  -2.732  0.00  0.00     0.278 C 
BRANCH  13  14
HETATM   14  C           1     -21.386  -8.006  -2.220  0.00  0.00     0.017 C 
HETATM   15  C           1     -19.973  -8.557  -2.081  0.00  0.00     0.012 C 
HETATM   16  C           1     -22.076  -8.030  -0.863  0.00  0.00     0.012 C 
ENDBRANCH  13  14
BRANCH  13  17
HETATM   17  N           1     -22.413  -5.765  -2.092  0.00  0.00    -0.066 N 
HETATM   18  H           1     -22.754  -6.257  -1.236  0.00  0.00     0.275 HD
HETATM   19  H           1     -22.042  -4.825  -1.828  0.00  0.00     0.275 HD
HETATM   20  H           1     -23.205  -5.651  -2.766  0.00  0.00     0.275 HD
ENDBRANCH  13  17
ENDBRANCH   4  13
TORSDOF 8
ENDMDL
MODEL 3
REMARK VINA RESULT:      -5.3     10.620     12.832
REMARK  8 active torsions:
REMARK  status: ('A' for Active; 'I' for Inactive)
REMARK    1  A    between atoms: N_3  and  C_4 
REMARK       I    between atoms: N_3  and  C_20 
REMARK    2  A    between atoms: C_4  and  C_5 
REMARK    3  A    between atoms: C_4  and  C_11 
REMARK    4  A    between atoms: C_5  and  C_6 
REMARK    5  A    between atoms: C_6  and  Se_15 
REMARK    6  A    between atoms: C_8  and  C_12 
REMARK    7  A    between atoms: N_9  and  C_12 
REMARK    8  A    between atoms: C_12  and  C_20 
ROOT
HETATM    1  H           1     -25.681  -7.264 -18.278  0.00  0.00     0.163 HD
HETATM    2  N           1     -26.442  -6.612 -18.141  0.00  0.00    -0.345 N 
HETATM    3  O           1     -27.992  -5.293 -19.062  0.00  0.00    -0.271 OA
HETATM    4  C           1     -27.083  -6.071 -19.224  0.00  0.00     0.249 C 
ENDROOT
BRANCH   2   5
HETATM    5  C           1     -26.856  -6.250 -16.800  0.00  0.00     0.185 C 
BRANCH   5   6
HETATM    6  C           1     -28.011  -7.144 -16.367  0.00  0.00     0.036 C 
BRANCH   6   7
HETATM    7  C           1     -29.085  -6.297 -15.697  0.00  0.00     0.003 C 
BRANCH   7   8
HETATM    8 Se           1     -30.579  -6.050 -16.926  0.00  0.00     0.000 Se
HETATM    9  C           1     -30.186  -7.639 -17.982  0.00  0.00     0.000 C 
ENDBRANCH   7   8
ENDBRANCH   6   7
ENDBRANCH   5   6
BRANCH   5  10
HETATM   10  C           1     -25.697  -6.430 -15.852  0.00  0.00     0.196 C 
HETATM   11  O           1     -25.436  -7.562 -15.390  0.00  0.00    -0.646 OA
HETATM   12  O           1     -24.997  -5.447 -15.526  0.00  0.00    -0.646 OA
ENDBRANCH   5  10
ENDBRANCH   2   5
BRANCH   4  13
HETATM   13  C           1     -26.651  -6.448 -20.621  0.00  0.00     0.278 C 
BRANCH  13  14
HETATM   14  C           1     -26.272  -7.923 -20.655  0.00  0.00     0.017 C 
HETATM   15  C           1     -27.417  -8.728 -21.255  0.00  0.00     0.012 C 
HETATM   16  C           1     -25.022  -8.105 -21.507  0.00  0.00     0.012 C 
ENDBRANCH  13  14
BRANCH  13  17
HETATM   17  N           1     -25.467  -5.618 -21.018  0.00  0.00    -0.066 N 
HETATM   18  H           1     -25.782  -4.830 -21.629  0.00  0.00     0.275 HD
HETATM   19  H           1     -25.009  -5.231 -20.161  0.00  0.00     0.275 HD
HETATM   20  H           1     -24.784  -6.212 -21.541  0.00  0.00     0.275 HD
ENDBRANCH  13  17
ENDBRANCH   4  13
TORSDOF 8
ENDMDL
MODEL 4
REMARK VINA RESULT:      -5.1      3.896      7.562
REMARK  8 active torsions:
REMARK  status: ('A' for Active; 'I' for Inactive)
REMARK    1  A    between atoms: N_3  and  C_4 
REMARK       I    between atoms: N_3  and  C_20 
REMARK    2  A    between atoms: C_4  and  C_5 
REMARK    3  A    between atoms: C_4  and  C_11 
REMARK    4  A    between atoms: C_5  and  C_6 
REMARK    5  A    between atoms: C_6  and  Se_15 
REMARK    6  A    between atoms: C_8  and  C_12 
REMARK    7  A    between atoms: N_9  and  C_12 
REMARK    8  A    between atoms: C_12  and  C_20 
ROOT
HETATM    1  H           1     -20.518  -6.805  -3.240  0.00  0.00     0.163 HD
HETATM    2  N           1     -20.843  -7.759  -3.331  0.00  0.00    -0.345 N 
HETATM    3  O           1     -21.743  -9.553  -2.353  0.00  0.00    -0.271 OA
HETATM    4  C           1     -21.356  -8.414  -2.244  0.00  0.00     0.249 C 
ENDROOT
BRANCH   2   5
HETATM    5  C           1     -20.764  -8.431  -4.613  0.00  0.00     0.185 C 
BRANCH   5   6
HETATM    6  C           1     -21.338  -7.526  -5.696  0.00  0.00     0.036 C 
BRANCH   6   7
HETATM    7  C           1     -21.518  -6.121  -5.140  0.00  0.00     0.003 C 
BRANCH   7   8
HETATM    8 Se           1     -20.172  -4.939  -5.910  0.00  0.00     0.000 Se
HETATM    9  C           1     -21.413  -4.041  -7.115  0.00  0.00     0.000 C 
ENDBRANCH   7   8
ENDBRANCH   6   7
ENDBRANCH   5   6
BRANCH   5  10
HETATM   10  C           1     -19.324  -8.744  -4.929  0.00  0.00     0.196 C 
HETATM   11  O           1     -18.542  -9.085  -4.014  0.00  0.00    -0.646 OA
HETATM   12  O           1     -18.909  -8.664  -6.105  0.00  0.00    -0.646 OA
ENDBRANCH   5  10
ENDBRANCH   2   5
BRANCH   4  13
HETATM   13  C           1     -21.436  -7.714  -0.909  0.00  0.00     0.278 C 
BRANCH  13  14
HETATM   14  C           1     -21.994  -8.673   0.134  0.00  0.00     0.017 C 
HETATM   15  C           1     -21.052  -8.725   1.331  0.00  0.00     0.012 C 
HETATM   16  C           1     -23.364  -8.189   0.587  0.00  0.00     0.012 C 
ENDBRANCH  13  14
BRANCH  13  17
HETATM   17  N           1     -22.339  -6.522  -1.025  0.00  0.00    -0.066 N 
HETATM   18  H           1     -22.312  -6.158  -2.005  0.00  0.00     0.275 HD
HETATM   19  H           1     -23.317  -6.801  -0.785  0.00  0.00     0.275 HD
HETATM   20  H           1     -22.017  -5.775  -0.368  0.00  0.00     0.275 HD
ENDBRANCH  13  17
ENDBRANCH   4  13
TORSDOF 8
ENDMDL
MODEL 5
REMARK VINA RESULT:      -4.9      3.080      4.236
REMARK  8 active torsions:
REMARK  status: ('A' for Active; 'I' for Inactive)
REMARK    1  A    between atoms: N_3  and  C_4 
REMARK       I    between atoms: N_3  and  C_20 
REMARK    2  A    between atoms: C_4  and  C_5 
REMARK    3  A    between atoms: C_4  and  C_11 
REMARK    4  A    between atoms: C_5  and  C_6 
REMARK    5  A    between atoms: C_6  and  Se_15 
REMARK    6  A    between atoms: C_8  and  C_12 
REMARK    7  A    between atoms: N_9  and  C_12 
REMARK    8  A    between atoms: C_12  and  C_20 
ROOT
HETATM    1  H           1     -19.971  -6.358  -5.048  0.00  0.00     0.163 HD
HETATM    2  N           1     -20.982  -6.390  -5.032  0.00  0.00    -0.345 N 
HETATM    3  O           1     -22.914  -5.576  -5.804  0.00  0.00    -0.271 OA
HETATM    4  C           1     -21.706  -5.539  -5.824  0.00  0.00     0.249 C 
ENDROOT
BRANCH   2   5
HETATM    5  C           1     -21.665  -7.335  -4.170  0.00  0.00     0.185 C 
BRANCH   5   6
HETATM    6  C           1     -20.989  -8.696  -4.276  0.00  0.00     0.036 C 
BRANCH   6   7
HETATM    7  C           1     -19.673  -8.552  -5.028  0.00  0.00     0.003 C 
BRANCH   7   8
HETATM    8 Se           1     -18.281  -9.558  -4.103  0.00  0.00     0.000 Se
HETATM    9  C           1     -17.292  -9.996  -5.725  0.00  0.00     0.000 C 
ENDBRANCH   7   8
ENDBRANCH   6   7
ENDBRANCH   5   6
BRANCH   5  10
HETATM   10  C           1     -21.603  -6.850  -2.744  0.00  0.00     0.196 C 
HETATM   11  O           1     -20.794  -7.365  -1.943  0.00  0.00    -0.646 OA
HETATM   12  O           1     -22.361  -5.933  -2.362  0.00  0.00    -0.646 OA
ENDBRANCH   5  10
ENDBRANCH   2   5
BRANCH   4  13
HETATM   13  C           1     -20.995  -4.554  -6.720  0.00  0.00     0.278 C 
BRANCH  13  14
HETATM   14  C           1     -21.375  -4.822  -8.171  0.00  0.00     0.017 C 
HETATM   15  C           1     -22.383  -3.778  -8.633  0.00  0.00     0.012 C 
HETATM   16  C           1     -20.129  -4.745  -9.043  0.00  0.00     0.012 C 
ENDBRANCH  13  14
BRANCH  13  17
HETATM   17  N           1     -19.513  -4.709  -6.554  0.00  0.00    -0.066 N 
HETATM   18  H           1     -19.254  -5.716  -6.660  0.00  0.00     0.275 HD
HETATM   19  H           1     -19.020  -4.145  -7.283  0.00  0.00     0.275 HD
HETATM   20  H           1     -19.231  -4.376  -5.604  0.00  0.00     0.275 HD
ENDBRANCH  13  17
ENDBRANCH   4  13
TORSDOF 8
ENDMDL
MODEL 6
REMARK VINA RESULT:      -4.8      3.252      5.090
REMARK  8 active torsions:
REMARK  status: ('A' for Active; 'I' for Inactive)
REMARK    1  A    between atoms: N_3  and  C_4 
REMARK       I    between atoms: N_3  and  C_20 
REMARK    2  A    between atoms: C_4  and  C_5 
REMARK    3  A    between atoms: C_4  and  C_11 
REMARK    4  A    between atoms: C_5  and  C_6 
REMARK    5  A    between atoms: C_6  and  Se_15 
REMARK    6  A    between atoms: C_8  and  C_12 
REMARK    7  A    between atoms: N_9  and  C_12 
REMARK    8  A    between atoms: C_12  and  C_20 
ROOT
HETATM    1  H           1     -21.880  -7.152  -3.591  0.00  0.00     0.163 HD
HETATM    2  N           1     -21.096  -7.736  -3.852  0.00  0.00    -0.345 N 
HETATM    3  O           1     -19.650  -8.365  -5.434  0.00  0.00    -0.271 OA
HETATM    4  C           1     -20.586  -7.668  -5.121  0.00  0.00     0.249 C 
ENDROOT
BRANCH   2   5
HETATM    5  C           1     -20.514  -8.645  -2.885  0.00  0.00     0.185 C 
BRANCH   5   6
HETATM    6  C           1     -20.560  -8.009  -1.501  0.00  0.00     0.036 C 
BRANCH   6   7
HETATM    7  C           1     -21.911  -7.336  -1.297  0.00  0.00     0.003 C 
BRANCH   7   8
HETATM    8 Se           1     -22.769  -8.070   0.293  0.00  0.00     0.000 Se
HETATM    9  C           1     -21.170  -8.981   0.936  0.00  0.00     0.000 C 
ENDBRANCH   7   8
ENDBRANCH   6   7
ENDBRANCH   5   6
BRANCH   5  10
HETATM   10  C           1     -21.295  -9.934  -2.874  0.00  0.00     0.196 C 
HETATM   11  O           1     -20.975 -10.853  -2.089  0.00  0.00    -0.646 OA
HETATM   12  O           1     -22.263 -10.086  -3.649  0.00  0.00    -0.646 OA
ENDBRANCH   5  10
ENDBRANCH   2   5
BRANCH   4  13
HETATM   13  C           1     -21.193  -6.722  -6.129  0.00  0.00     0.278 C 
BRANCH  13  14
HETATM   14  C           1     -20.113  -5.790  -6.665  0.00  0.00     0.017 C 
HETATM   15  C           1     -20.528  -5.268  -8.035  0.00  0.00     0.012 C 
HETATM   16  C           1     -19.933  -4.619  -5.708  0.00  0.00     0.012 C 
ENDBRANCH  13  14
BRANCH  13  17
HETATM   17  N           1     -22.268  -5.912  -5.468  0.00  0.00    -0.066 N 
HETATM   18  H           1     -22.515  -6.344  -4.549  0.00  0.00     0.275 HD
HETATM   19  H           1     -21.925  -4.937  -5.313  0.00  0.00     0.275 HD
HETATM   20  H           1     -23.116  -5.891  -6.081  0.00  0.00     0.275 HD
ENDBRANCH  13  17
ENDBRANCH   4  13
TORSDOF 8
ENDMDL
MODEL 7
REMARK VINA RESULT:      -4.8      5.827      9.647
REMARK  8 active torsions:
REMARK  status: ('A' for Active; 'I' for Inactive)
REMARK    1  A    between atoms: N_3  and  C_4 
REMARK       I    between atoms: N_3  and  C_20 
REMARK    2  A    between atoms: C_4  and  C_5 
REMARK    3  A    between atoms: C_4  and  C_11 
REMARK    4  A    between atoms: C_5  and  C_6 
REMARK    5  A    between atoms: C_6  and  Se_15 
REMARK    6  A    between atoms: C_8  and  C_12 
REMARK    7  A    between atoms: N_9  and  C_12 
REMARK    8  A    between atoms: C_12  and  C_20 
ROOT
HETATM    1  H           1     -22.039  -9.774  -1.891  0.00  0.00     0.163 HD
HETATM    2  N           1     -21.576  -9.469  -1.045  0.00  0.00    -0.345 N 
HETATM    3  O           1     -20.776 -10.000   0.972  0.00  0.00    -0.271 OA
HETATM    4  C           1     -21.329 -10.365  -0.038  0.00  0.00     0.249 C 
ENDROOT
BRANCH   2   5
HETATM    5  C           1     -21.173  -8.084  -0.897  0.00  0.00     0.185 C 
BRANCH   5   6
HETATM    6  C           1     -20.411  -7.643  -2.141  0.00  0.00     0.036 C 
BRANCH   6   7
HETATM    7  C           1     -20.574  -8.690  -3.234  0.00  0.00     0.003 C 
BRANCH   7   8
HETATM    8 Se           1     -20.385  -7.842  -4.980  0.00  0.00     0.000 Se
HETATM    9  C           1     -22.072  -6.872  -4.874  0.00  0.00     0.000 C 
ENDBRANCH   7   8
ENDBRANCH   6   7
ENDBRANCH   5   6
BRANCH   5  10
HETATM   10  C           1     -22.397  -7.221  -0.724  0.00  0.00     0.196 C 
HETATM   11  O           1     -23.269  -7.532   0.116  0.00  0.00    -0.646 OA
HETATM   12  O           1     -22.542  -6.193  -1.421  0.00  0.00    -0.646 OA
ENDBRANCH   5  10
ENDBRANCH   2   5
BRANCH   4  13
HETATM   13  C           1     -21.749 -11.806  -0.192  0.00  0.00     0.278 C 
BRANCH  13  14
HETATM   14  C           1     -23.180 -11.973   0.305  0.00  0.00     0.017 C 
HETATM   15  C           1     -24.113 -12.153  -0.886  0.00  0.00     0.012 C 
HETATM   16  C           1     -23.264 -13.199   1.205  0.00  0.00     0.012 C 
ENDBRANCH  13  14
BRANCH  13  17
HETATM   17  N           1     -20.836 -12.681   0.614  0.00  0.00    -0.066 N 
HETATM   18  H           1     -20.615 -13.547   0.073  0.00  0.00     0.275 HD
HETATM   19  H           1     -19.950 -12.164   0.819  0.00  0.00     0.275 HD
HETATM   20  H           1     -21.303 -12.941   1.512  0.00  0.00     0.275 HD
ENDBRANCH  13  17
ENDBRANCH   4  13
TORSDOF 8
ENDMDL
MODEL 8
REMARK VINA RESULT:      -4.8     19.143     20.702
REMARK  8 active torsions:
REMARK  status: ('A' for Active; 'I' for Inactive)
REMARK    1  A    between atoms: N_3  and  C_4 
REMARK       I    between atoms: N_3  and  C_20 
REMARK    2  A    between atoms: C_4  and  C_5 
REMARK    3  A    between atoms: C_4  and  C_11 
REMARK    4  A    between atoms: C_5  and  C_6 
REMARK    5  A    between atoms: C_6  and  Se_15 
REMARK    6  A    between atoms: C_8  and  C_12 
REMARK    7  A    between atoms: N_9  and  C_12 
REMARK    8  A    between atoms: C_12  and  C_20 
ROOT
HETATM    1  H           1     -12.638   7.345 -18.922  0.00  0.00     0.163 HD
HETATM    2  N           1     -12.260   7.407 -19.858  0.00  0.00    -0.345 N 
HETATM    3  O           1     -11.788   6.372 -21.780  0.00  0.00    -0.271 OA
HETATM    4  C           1     -12.240   6.299 -20.663  0.00  0.00     0.249 C 
ENDROOT
BRANCH   2   5
HETATM    5  C           1     -11.738   8.668 -20.348  0.00  0.00     0.185 C 
BRANCH   5   6
HETATM    6  C           1     -12.701   9.791 -19.982  0.00  0.00     0.036 C 
BRANCH   6   7
HETATM    7  C           1     -13.191   9.593 -18.554  0.00  0.00     0.003 C 
BRANCH   7   8
HETATM    8 Se           1     -14.545  10.933 -18.140  0.00  0.00     0.000 Se
HETATM    9  C           1     -14.102  12.085 -19.649  0.00  0.00     0.000 C 
ENDBRANCH   7   8
ENDBRANCH   6   7
ENDBRANCH   5   6
BRANCH   5  10
HETATM   10  C           1     -10.393   8.932 -19.721  0.00  0.00     0.196 C 
HETATM   11  O           1     -10.077   8.364 -18.654  0.00  0.00    -0.646 OA
HETATM   12  O           1      -9.592   9.721 -20.269  0.00  0.00    -0.646 OA
ENDBRANCH   5  10
ENDBRANCH   2   5
BRANCH   4  13
HETATM   13  C           1     -12.782   4.986 -20.152  0.00  0.00     0.278 C 
BRANCH  13  14
HETATM   14  C           1     -12.214   3.844 -20.985  0.00  0.00     0.017 C 
HETATM   15  C           1     -11.109   3.145 -20.202  0.00  0.00     0.012 C 
HETATM   16  C           1     -13.321   2.847 -21.300  0.00  0.00     0.012 C 
ENDBRANCH  13  14
BRANCH  13  17
HETATM   17  N           1     -14.277   4.988 -20.261  0.00  0.00    -0.066 N 
HETATM   18  H           1     -14.556   4.728 -21.234  0.00  0.00     0.275 HD
HETATM   19  H           1     -14.677   4.294 -19.588  0.00  0.00     0.275 HD
HETATM   20  H           1     -14.643   5.942 -20.037  0.00  0.00     0.275 HD
ENDBRANCH  13  17
ENDBRANCH   4  13
TORSDOF 8
ENDMDL
MODEL 9
REMARK VINA RESULT:      -4.7      5.404      8.242
REMARK  8 active torsions:
REMARK  status: ('A' for Active; 'I' for Inactive)
REMARK    1  A    between atoms: N_3  and  C_4 
REMARK       I    between atoms: N_3  and  C_20 
REMARK    2  A    between atoms: C_4  and  C_5 
REMARK    3  A    between atoms: C_4  and  C_11 
REMARK    4  A    between atoms: C_5  and  C_6 
REMARK    5  A    between atoms: C_6  and  Se_15 
REMARK    6  A    between atoms: C_8  and  C_12 
REMARK    7  A    between atoms: N_9  and  C_12 
REMARK    8  A    between atoms: C_12  and  C_20 
ROOT
HETATM    1  H           1     -22.648  -8.605  -2.493  0.00  0.00     0.163 HD
HETATM    2  N           1     -21.637  -8.578  -2.500  0.00  0.00    -0.345 N 
HETATM    3  O           1     -19.717  -9.336  -1.646  0.00  0.00    -0.271 OA
HETATM    4  C           1     -20.925  -9.368  -1.638  0.00  0.00     0.249 C 
ENDROOT
BRANCH   2   5
HETATM    5  C           1     -20.941  -7.702  -3.422  0.00  0.00     0.185 C 
BRANCH   5   6
HETATM    6  C           1     -20.901  -8.348  -4.802  0.00  0.00     0.036 C 
BRANCH   6   7
HETATM    7  C           1     -19.466  -8.727  -5.142  0.00  0.00     0.003 C 
BRANCH   7   8
HETATM    8 Se           1     -19.276 -10.667  -5.089  0.00  0.00     0.000 Se
HETATM    9  C           1     -21.177 -11.024  -5.329  0.00  0.00     0.000 C 
ENDBRANCH   7   8
ENDBRANCH   6   7
ENDBRANCH   5   6
BRANCH   5  10
HETATM   10  C           1     -21.666  -6.382  -3.505  0.00  0.00     0.196 C 
HETATM   11  O           1     -22.356  -5.986  -2.541  0.00  0.00    -0.646 OA
HETATM   12  O           1     -21.577  -5.683  -4.538  0.00  0.00    -0.646 OA
ENDBRANCH   5  10
ENDBRANCH   2   5
BRANCH   4  13
HETATM   13  C           1     -21.649 -10.280  -0.677  0.00  0.00     0.278 C 
BRANCH  13  14
HETATM   14  C           1     -23.096  -9.823  -0.538  0.00  0.00     0.017 C 
HETATM   15  C           1     -23.958 -10.997  -0.093  0.00  0.00     0.012 C 
HETATM   16  C           1     -23.180  -8.711   0.498  0.00  0.00     0.012 C 
ENDBRANCH  13  14
BRANCH  13  17
HETATM   17  N           1     -20.978 -10.226   0.663  0.00  0.00    -0.066 N 
HETATM   18  H           1     -20.126 -10.832   0.650  0.00  0.00     0.275 HD
HETATM   19  H           1     -20.701  -9.241   0.875  0.00  0.00     0.275 HD
HETATM   20  H           1     -21.638 -10.570   1.398  0.00  0.00     0.275 HD
ENDBRANCH  13  17
ENDBRANCH   4  13
TORSDOF 8
ENDMDL
