MODEL 1
REMARK VINA RESULT:      -7.5      0.000      0.000
REMARK  10 active torsions:
REMARK  status: ('A' for Active; 'I' for Inactive)
REMARK    1  A    between atoms: C_3  and  C_29 
REMARK    2  A    between atoms: C_3  and  C_5 
REMARK    3  A    between atoms: C_5  and  C_6 
REMARK    4  A    between atoms: C_5  and  N_15 
REMARK    5  A    between atoms: C_11  and  C_12 
REMARK    6  A    between atoms: C_11  and  O_23 
REMARK    7  A    between atoms: C_12  and  C_14 
REMARK    8  A    between atoms: C_12  and  N_20 
REMARK       I    between atoms: C_14  and  N_15 
REMARK       I    between atoms: N_21  and  C_26 
REMARK    9  A    between atoms: N_21  and  C_22 
REMARK   10  A    between atoms: C_22  and  C_29 
REMARK       I    between atoms: N_25  and  C_26 
ROOT
HETATM    1  C           1     -34.924  -2.440 -12.135  0.00  0.00     0.185 C 
ENDROOT
BRANCH   1   2
HETATM    2  C           1     -34.010  -3.619 -12.450  0.00  0.00     0.038 C 
BRANCH   2   3
HETATM    3  C           1     -34.763  -4.922 -12.213  0.00  0.00     0.023 C 
BRANCH   3   4
HETATM    4  C           1     -34.460  -5.435 -10.812  0.00  0.00     0.138 C 
BRANCH   4   5
HETATM    5  N           1     -33.776  -6.733 -10.902  0.00  0.00    -0.227 N 
HETATM    6  H           1     -32.941  -6.844 -11.529  0.00  0.00     0.177 HD
HETATM    7  C           1     -34.194  -7.717 -10.223  0.00  0.00     0.665 C 
HETATM    8  N           1     -35.200  -7.583  -9.467  0.00  0.00    -0.235 N 
HETATM    9  N           1     -33.589  -8.865 -10.303  0.00  0.00    -0.235 N 
HETATM   10  H           1     -35.689  -6.656  -9.403  0.00  0.00     0.174 HD
HETATM   11  H           1     -35.546  -8.399  -8.905  0.00  0.00     0.174 HD
HETATM   12  H           1     -33.934  -9.677  -9.742  0.00  0.00     0.174 HD
HETATM   13  H           1     -32.758  -8.975 -10.927  0.00  0.00     0.174 HD
ENDBRANCH   4   5
ENDBRANCH   3   4
ENDBRANCH   2   3
ENDBRANCH   1   2
BRANCH   1  14
HETATM   14  C           1     -34.497  -1.808 -10.833  0.00  0.00     0.196 C 
HETATM   15  O           1     -33.293  -1.825 -10.497  0.00  0.00    -0.646 OA
HETATM   16  O           1     -35.345  -1.268 -10.093  0.00  0.00    -0.646 OA
ENDBRANCH   1  14
BRANCH   1  17
HETATM   17  N           1     -34.833  -1.461 -13.200  0.00  0.00    -0.345 N 
HETATM   18  C           1     -35.943  -0.752 -13.574  0.00  0.00     0.251 C 
HETATM   19  O           1     -36.997  -0.943 -13.018  0.00  0.00    -0.271 OA
HETATM   20  H           1     -33.949  -1.301 -13.667  0.00  0.00     0.163 HD
BRANCH  18  21
HETATM   21  C           1     -35.848   0.268 -14.683  0.00  0.00     0.302 C 
BRANCH  21  22
HETATM   22  C           1     -36.471  -0.302 -15.951  0.00  0.00     0.153 C 
HETATM   23  C           1     -35.519  -1.316 -16.572  0.00  0.00     0.042 C 
BRANCH  22  24
HETATM   24  O           1     -37.683  -0.931 -15.635  0.00  0.00    -0.393 OA
HETATM   25  H           1     -37.886  -0.705 -14.744  0.00  0.00     0.210 HD
ENDBRANCH  22  24
ENDBRANCH  21  22
BRANCH  21  26
HETATM   26  N           1     -34.407   0.594 -14.939  0.00  0.00    -0.064 N 
HETATM   27  H           1     -34.165   1.495 -14.468  0.00  0.00     0.275 HD
HETATM   28  H           1     -33.804  -0.171 -14.560  0.00  0.00     0.275 HD
HETATM   29  H           1     -34.248   0.686 -15.968  0.00  0.00     0.275 HD
ENDBRANCH  21  26
ENDBRANCH  18  21
ENDBRANCH   1  17
TORSDOF 10
ENDMDL
MODEL 2
REMARK VINA RESULT:      -7.4     11.858     14.546
REMARK  10 active torsions:
REMARK  status: ('A' for Active; 'I' for Inactive)
REMARK    1  A    between atoms: C_3  and  C_29 
REMARK    2  A    between atoms: C_3  and  C_5 
REMARK    3  A    between atoms: C_5  and  C_6 
REMARK    4  A    between atoms: C_5  and  N_15 
REMARK    5  A    between atoms: C_11  and  C_12 
REMARK    6  A    between atoms: C_11  and  O_23 
REMARK    7  A    between atoms: C_12  and  C_14 
REMARK    8  A    between atoms: C_12  and  N_20 
REMARK       I    between atoms: C_14  and  N_15 
REMARK       I    between atoms: N_21  and  C_26 
REMARK    9  A    between atoms: N_21  and  C_22 
REMARK   10  A    between atoms: C_22  and  C_29 
REMARK       I    between atoms: N_25  and  C_26 
ROOT
HETATM    1  C           1     -22.616  -3.732  -9.676  0.00  0.00     0.185 C 
ENDROOT
BRANCH   1   2
HETATM    2  C           1     -22.067  -3.943 -11.081  0.00  0.00     0.038 C 
BRANCH   2   3
HETATM    3  C           1     -22.312  -2.691 -11.914  0.00  0.00     0.023 C 
BRANCH   3   4
HETATM    4  C           1     -23.152  -3.048 -13.133  0.00  0.00     0.138 C 
BRANCH   4   5
HETATM    5  N           1     -23.946  -1.879 -13.541  0.00  0.00    -0.227 N 
HETATM    6  H           1     -24.675  -1.489 -12.894  0.00  0.00     0.177 HD
HETATM    7  C           1     -23.750  -1.344 -14.672  0.00  0.00     0.665 C 
HETATM    8  N           1     -22.871  -1.816 -15.451  0.00  0.00    -0.235 N 
HETATM    9  N           1     -24.452  -0.311 -15.032  0.00  0.00    -0.235 N 
HETATM   10  H           1     -22.304  -2.650 -15.160  0.00  0.00     0.174 HD
HETATM   11  H           1     -22.709  -1.372 -16.389  0.00  0.00     0.174 HD
HETATM   12  H           1     -24.291   0.130 -15.965  0.00  0.00     0.174 HD
HETATM   13  H           1     -25.178   0.077 -14.388  0.00  0.00     0.174 HD
ENDBRANCH   4   5
ENDBRANCH   3   4
ENDBRANCH   2   3
ENDBRANCH   1   2
BRANCH   1  14
HETATM   14  C           1     -24.119  -3.867  -9.697  0.00  0.00     0.196 C 
HETATM   15  O           1     -24.837  -2.869  -9.471  0.00  0.00    -0.646 OA
HETATM   16  O           1     -24.644  -4.973  -9.942  0.00  0.00    -0.646 OA
ENDBRANCH   1  14
BRANCH   1  17
HETATM   17  N           1     -22.054  -4.728  -8.784  0.00  0.00    -0.345 N 
HETATM   18  C           1     -21.471  -4.342  -7.608  0.00  0.00     0.251 C 
HETATM   19  O           1     -21.424  -3.173  -7.312  0.00  0.00    -0.271 OA
HETATM   20  H           1     -22.094  -5.708  -9.032  0.00  0.00     0.163 HD
BRANCH  18  21
HETATM   21  C           1     -20.887  -5.380  -6.680  0.00  0.00     0.302 C 
BRANCH  21  22
HETATM   22  C           1     -22.007  -6.038  -5.886  0.00  0.00     0.153 C 
HETATM   23  C           1     -21.582  -6.178  -4.430  0.00  0.00     0.042 C 
BRANCH  22  24
HETATM   24  O           1     -23.162  -5.248  -5.961  0.00  0.00    -0.393 OA
HETATM   25  H           1     -22.992  -4.465  -5.466  0.00  0.00     0.210 HD
ENDBRANCH  22  24
ENDBRANCH  21  22
BRANCH  21  26
HETATM   26  N           1     -19.926  -4.721  -5.736  0.00  0.00    -0.064 N 
HETATM   27  H           1     -19.673  -5.389  -4.973  0.00  0.00     0.275 HD
HETATM   28  H           1     -19.063  -4.441  -6.255  0.00  0.00     0.275 HD
HETATM   29  H           1     -20.373  -3.872  -5.320  0.00  0.00     0.275 HD
ENDBRANCH  21  26
ENDBRANCH  18  21
ENDBRANCH   1  17
TORSDOF 10
ENDMDL
MODEL 3
REMARK VINA RESULT:      -7.1      2.309      6.070
REMARK  10 active torsions:
REMARK  status: ('A' for Active; 'I' for Inactive)
REMARK    1  A    between atoms: C_3  and  C_29 
REMARK    2  A    between atoms: C_3  and  C_5 
REMARK    3  A    between atoms: C_5  and  C_6 
REMARK    4  A    between atoms: C_5  and  N_15 
REMARK    5  A    between atoms: C_11  and  C_12 
REMARK    6  A    between atoms: C_11  and  O_23 
REMARK    7  A    between atoms: C_12  and  C_14 
REMARK    8  A    between atoms: C_12  and  N_20 
REMARK       I    between atoms: C_14  and  N_15 
REMARK       I    between atoms: N_21  and  C_26 
REMARK    9  A    between atoms: N_21  and  C_22 
REMARK   10  A    between atoms: C_22  and  C_29 
REMARK       I    between atoms: N_25  and  C_26 
ROOT
HETATM    1  C           1     -34.983  -0.586 -11.708  0.00  0.00     0.185 C 
ENDROOT
BRANCH   1   2
HETATM    2  C           1     -34.998   0.472 -12.804  0.00  0.00     0.038 C 
BRANCH   2   3
HETATM    3  C           1     -36.210   0.256 -13.702  0.00  0.00     0.023 C 
BRANCH   3   4
HETATM    4  C           1     -35.789   0.376 -15.160  0.00  0.00     0.138 C 
BRANCH   4   5
HETATM    5  N           1     -35.004  -0.806 -15.544  0.00  0.00    -0.227 N 
HETATM    6  H           1     -34.213  -1.131 -14.935  0.00  0.00     0.177 HD
HETATM    7  C           1     -35.283  -1.433 -16.609  0.00  0.00     0.665 C 
HETATM    8  N           1     -36.237  -1.041 -17.342  0.00  0.00    -0.235 N 
HETATM    9  N           1     -34.589  -2.479 -16.948  0.00  0.00    -0.235 N 
HETATM   10  H           1     -36.797  -0.196 -17.069  0.00  0.00     0.174 HD
HETATM   11  H           1     -36.467  -1.560 -18.225  0.00  0.00     0.174 HD
HETATM   12  H           1     -34.819  -2.995 -17.826  0.00  0.00     0.174 HD
HETATM   13  H           1     -33.802  -2.802 -16.342  0.00  0.00     0.174 HD
ENDBRANCH   4   5
ENDBRANCH   3   4
ENDBRANCH   2   3
ENDBRANCH   1   2
BRANCH   1  14
HETATM   14  C           1     -36.271  -0.518 -10.925  0.00  0.00     0.196 C 
HETATM   15  O           1     -36.566   0.524 -10.300  0.00  0.00    -0.646 OA
HETATM   16  O           1     -37.043  -1.500 -10.903  0.00  0.00    -0.646 OA
ENDBRANCH   1  14
BRANCH   1  17
HETATM   17  N           1     -34.851  -1.900 -12.307  0.00  0.00    -0.345 N 
HETATM   18  C           1     -33.910  -2.775 -11.835  0.00  0.00     0.251 C 
HETATM   19  O           1     -33.190  -2.453 -10.921  0.00  0.00    -0.271 OA
HETATM   20  H           1     -35.454  -2.169 -13.073  0.00  0.00     0.163 HD
BRANCH  18  21
HETATM   21  C           1     -33.773  -4.143 -12.459  0.00  0.00     0.302 C 
BRANCH  21  22
HETATM   22  C           1     -34.785  -5.091 -11.830  0.00  0.00     0.153 C 
HETATM   23  C           1     -34.063  -6.065 -10.909  0.00  0.00     0.042 C 
BRANCH  22  24
HETATM   24  O           1     -35.720  -4.354 -11.091  0.00  0.00    -0.393 OA
HETATM   25  H           1     -36.551  -4.451 -11.524  0.00  0.00     0.210 HD
ENDBRANCH  22  24
ENDBRANCH  21  22
BRANCH  21  26
HETATM   26  N           1     -32.387  -4.663 -12.221  0.00  0.00    -0.064 N 
HETATM   27  H           1     -31.876  -4.014 -11.581  0.00  0.00     0.275 HD
HETATM   28  H           1     -32.441  -5.611 -11.784  0.00  0.00     0.275 HD
HETATM   29  H           1     -31.877  -4.728 -13.131  0.00  0.00     0.275 HD
ENDBRANCH  21  26
ENDBRANCH  18  21
ENDBRANCH   1  17
TORSDOF 10
ENDMDL
MODEL 4
REMARK VINA RESULT:      -6.3     12.812     14.435
REMARK  10 active torsions:
REMARK  status: ('A' for Active; 'I' for Inactive)
REMARK    1  A    between atoms: C_3  and  C_29 
REMARK    2  A    between atoms: C_3  and  C_5 
REMARK    3  A    between atoms: C_5  and  C_6 
REMARK    4  A    between atoms: C_5  and  N_15 
REMARK    5  A    between atoms: C_11  and  C_12 
REMARK    6  A    between atoms: C_11  and  O_23 
REMARK    7  A    between atoms: C_12  and  C_14 
REMARK    8  A    between atoms: C_12  and  N_20 
REMARK       I    between atoms: C_14  and  N_15 
REMARK       I    between atoms: N_21  and  C_26 
REMARK    9  A    between atoms: N_21  and  C_22 
REMARK   10  A    between atoms: C_22  and  C_29 
REMARK       I    between atoms: N_25  and  C_26 
ROOT
HETATM    1  C           1     -21.146  -4.342  -7.473  0.00  0.00     0.185 C 
ENDROOT
BRANCH   1   2
HETATM    2  C           1     -21.116  -5.068  -6.134  0.00  0.00     0.038 C 
BRANCH   2   3
HETATM    3  C           1     -21.129  -6.572  -6.372  0.00  0.00     0.023 C 
BRANCH   3   4
HETATM    4  C           1     -21.543  -7.285  -5.091  0.00  0.00     0.138 C 
BRANCH   4   5
HETATM    5  N           1     -21.951  -6.292  -4.087  0.00  0.00    -0.227 N 
HETATM    6  H           1     -22.295  -5.349  -4.392  0.00  0.00     0.177 HD
HETATM    7  C           1     -21.889  -6.576  -2.855  0.00  0.00     0.665 C 
HETATM    8  N           1     -21.474  -7.714  -2.487  0.00  0.00    -0.235 N 
HETATM    9  N           1     -22.250  -5.698  -1.967  0.00  0.00    -0.235 N 
HETATM   10  H           1     -21.182  -8.423  -3.204  0.00  0.00     0.174 HD
HETATM   11  H           1     -21.422  -7.949  -1.465  0.00  0.00     0.174 HD
HETATM   12  H           1     -22.198  -5.932  -0.950  0.00  0.00     0.174 HD
HETATM   13  H           1     -22.592  -4.759  -2.271  0.00  0.00     0.174 HD
ENDBRANCH   4   5
ENDBRANCH   3   4
ENDBRANCH   2   3
ENDBRANCH   1   2
BRANCH   1  14
HETATM   14  C           1     -19.812  -4.498  -8.160  0.00  0.00     0.196 C 
HETATM   15  O           1     -18.755  -4.318  -7.517  0.00  0.00    -0.646 OA
HETATM   16  O           1     -19.763  -4.809  -9.369  0.00  0.00    -0.646 OA
ENDBRANCH   1  14
BRANCH   1  17
HETATM   17  N           1     -22.188  -4.909  -8.306  0.00  0.00    -0.345 N 
HETATM   18  C           1     -22.981  -4.089  -9.062  0.00  0.00     0.251 C 
HETATM   19  O           1     -22.814  -2.894  -9.035  0.00  0.00    -0.271 OA
HETATM   20  H           1     -22.328  -5.911  -8.329  0.00  0.00     0.163 HD
BRANCH  18  21
HETATM   21  C           1     -24.066  -4.680  -9.930  0.00  0.00     0.302 C 
BRANCH  21  22
HETATM   22  C           1     -23.616  -4.664 -11.385  0.00  0.00     0.153 C 
HETATM   23  C           1     -24.212  -3.451 -12.086  0.00  0.00     0.042 C 
BRANCH  22  24
HETATM   24  O           1     -22.218  -4.597 -11.443  0.00  0.00    -0.393 OA
HETATM   25  H           1     -21.905  -4.616 -10.554  0.00  0.00     0.210 HD
ENDBRANCH  22  24
ENDBRANCH  21  22
BRANCH  21  26
HETATM   26  N           1     -25.318  -3.869  -9.786  0.00  0.00    -0.064 N 
HETATM   27  H           1     -26.138  -4.433 -10.107  0.00  0.00     0.275 HD
HETATM   28  H           1     -25.449  -3.604  -8.784  0.00  0.00     0.275 HD
HETATM   29  H           1     -25.242  -3.004 -10.368  0.00  0.00     0.275 HD
ENDBRANCH  21  26
ENDBRANCH  18  21
ENDBRANCH   1  17
TORSDOF 10
ENDMDL
MODEL 5
REMARK VINA RESULT:      -6.2     13.334     16.036
REMARK  10 active torsions:
REMARK  status: ('A' for Active; 'I' for Inactive)
REMARK    1  A    between atoms: C_3  and  C_29 
REMARK    2  A    between atoms: C_3  and  C_5 
REMARK    3  A    between atoms: C_5  and  C_6 
REMARK    4  A    between atoms: C_5  and  N_15 
REMARK    5  A    between atoms: C_11  and  C_12 
REMARK    6  A    between atoms: C_11  and  O_23 
REMARK    7  A    between atoms: C_12  and  C_14 
REMARK    8  A    between atoms: C_12  and  N_20 
REMARK       I    between atoms: C_14  and  N_15 
REMARK       I    between atoms: N_21  and  C_26 
REMARK    9  A    between atoms: N_21  and  C_22 
REMARK   10  A    between atoms: C_22  and  C_29 
REMARK       I    between atoms: N_25  and  C_26 
ROOT
HETATM    1  C           1     -21.386  -4.946  -7.761  0.00  0.00     0.185 C 
ENDROOT
BRANCH   1   2
HETATM    2  C           1     -22.315  -3.766  -8.019  0.00  0.00     0.038 C 
BRANCH   2   3
HETATM    3  C           1     -23.620  -4.270  -8.623  0.00  0.00     0.023 C 
BRANCH   3   4
HETATM    4  C           1     -23.894  -3.532  -9.926  0.00  0.00     0.138 C 
BRANCH   4   5
HETATM    5  N           1     -22.641  -3.389 -10.682  0.00  0.00    -0.227 N 
HETATM    6  H           1     -21.871  -2.781 -10.311  0.00  0.00     0.177 HD
HETATM    7  C           1     -22.492  -4.000 -11.782  0.00  0.00     0.665 C 
HETATM    8  N           1     -23.422  -4.734 -12.229  0.00  0.00    -0.235 N 
HETATM    9  N           1     -21.385  -3.874 -12.450  0.00  0.00    -0.235 N 
HETATM   10  H           1     -24.317  -4.835 -11.689  0.00  0.00     0.174 HD
HETATM   11  H           1     -23.298  -5.240 -13.140  0.00  0.00     0.174 HD
HETATM   12  H           1     -21.262  -4.378 -13.357  0.00  0.00     0.174 HD
HETATM   13  H           1     -20.618  -3.269 -12.080  0.00  0.00     0.174 HD
ENDBRANCH   4   5
ENDBRANCH   3   4
ENDBRANCH   2   3
ENDBRANCH   1   2
BRANCH   1  14
HETATM   14  C           1     -20.042  -4.674  -8.392  0.00  0.00     0.196 C 
HETATM   15  O           1     -19.057  -4.408  -7.670  0.00  0.00    -0.646 OA
HETATM   16  O           1     -19.914  -4.716  -9.634  0.00  0.00    -0.646 OA
ENDBRANCH   1  14
BRANCH   1  17
HETATM   17  N           1     -21.221  -5.128  -6.332  0.00  0.00    -0.345 N 
HETATM   18  C           1     -21.135  -6.389  -5.809  0.00  0.00     0.251 C 
HETATM   19  O           1     -21.196  -7.351  -6.536  0.00  0.00    -0.271 OA
HETATM   20  H           1     -21.170  -4.321  -5.723  0.00  0.00     0.163 HD
BRANCH  18  21
HETATM   21  C           1     -20.963  -6.578  -4.320  0.00  0.00     0.302 C 
BRANCH  21  22
HETATM   22  C           1     -20.694  -8.047  -4.023  0.00  0.00     0.153 C 
HETATM   23  C           1     -20.323  -8.207  -2.555  0.00  0.00     0.042 C 
BRANCH  22  24
HETATM   24  O           1     -21.843  -8.800  -4.300  0.00  0.00    -0.393 OA
HETATM   25  H           1     -22.464  -8.215  -4.700  0.00  0.00     0.210 HD
ENDBRANCH  22  24
ENDBRANCH  21  22
BRANCH  21  26
HETATM   26  N           1     -22.214  -6.147  -3.615  0.00  0.00    -0.064 N 
HETATM   27  H           1     -22.367  -6.753  -2.777  0.00  0.00     0.275 HD
HETATM   28  H           1     -22.119  -5.151  -3.313  0.00  0.00     0.275 HD
HETATM   29  H           1     -23.029  -6.238  -4.264  0.00  0.00     0.275 HD
ENDBRANCH  21  26
ENDBRANCH  18  21
ENDBRANCH   1  17
TORSDOF 10
ENDMDL
MODEL 6
REMARK VINA RESULT:      -6.0     14.265     17.333
REMARK  10 active torsions:
REMARK  status: ('A' for Active; 'I' for Inactive)
REMARK    1  A    between atoms: C_3  and  C_29 
REMARK    2  A    between atoms: C_3  and  C_5 
REMARK    3  A    between atoms: C_5  and  C_6 
REMARK    4  A    between atoms: C_5  and  N_15 
REMARK    5  A    between atoms: C_11  and  C_12 
REMARK    6  A    between atoms: C_11  and  O_23 
REMARK    7  A    between atoms: C_12  and  C_14 
REMARK    8  A    between atoms: C_12  and  N_20 
REMARK       I    between atoms: C_14  and  N_15 
REMARK       I    between atoms: N_21  and  C_26 
REMARK    9  A    between atoms: N_21  and  C_22 
REMARK   10  A    between atoms: C_22  and  C_29 
REMARK       I    between atoms: N_25  and  C_26 
ROOT
HETATM    1  C           1     -20.641  -6.789  -5.372  0.00  0.00     0.185 C 
ENDROOT
BRANCH   1   2
HETATM    2  C           1     -20.563  -6.009  -6.679  0.00  0.00     0.038 C 
BRANCH   2   3
HETATM    3  C           1     -20.221  -4.554  -6.382  0.00  0.00     0.023 C 
BRANCH   3   4
HETATM    4  C           1     -20.755  -3.669  -7.500  0.00  0.00     0.138 C 
BRANCH   4   5
HETATM    5  N           1     -22.225  -3.684  -7.479  0.00  0.00    -0.227 N 
HETATM    6  H           1     -22.738  -3.547  -6.573  0.00  0.00     0.177 HD
HETATM    7  C           1     -22.871  -3.863  -8.553  0.00  0.00     0.665 C 
HETATM    8  N           1     -22.252  -4.028  -9.645  0.00  0.00    -0.235 N 
HETATM    9  N           1     -24.171  -3.876  -8.534  0.00  0.00    -0.235 N 
HETATM   10  H           1     -21.203  -4.017  -9.660  0.00  0.00     0.174 HD
HETATM   11  H           1     -22.789  -4.176 -10.535  0.00  0.00     0.174 HD
HETATM   12  H           1     -24.705  -4.024  -9.420  0.00  0.00     0.174 HD
HETATM   13  H           1     -24.682  -3.740  -7.633  0.00  0.00     0.174 HD
ENDBRANCH   4   5
ENDBRANCH   3   4
ENDBRANCH   2   3
ENDBRANCH   1   2
BRANCH   1  14
HETATM   14  C           1     -21.867  -6.360  -4.604  0.00  0.00     0.196 C 
HETATM   15  O           1     -21.778  -6.092  -3.386  0.00  0.00    -0.646 OA
HETATM   16  O           1     -22.970  -6.270  -5.184  0.00  0.00    -0.646 OA
ENDBRANCH   1  14
BRANCH   1  17
HETATM   17  N           1     -20.724  -8.207  -5.661  0.00  0.00    -0.345 N 
HETATM   18  C           1     -19.953  -9.094  -4.959  0.00  0.00     0.251 C 
HETATM   19  O           1     -19.204  -8.696  -4.101  0.00  0.00    -0.271 OA
HETATM   20  H           1     -21.352  -8.541  -6.381  0.00  0.00     0.163 HD
BRANCH  18  21
HETATM   21  C           1     -20.040 -10.571  -5.261  0.00  0.00     0.302 C 
BRANCH  21  22
HETATM   22  C           1     -18.742 -11.033  -5.910  0.00  0.00     0.153 C 
HETATM   23  C           1     -19.054 -12.059  -6.991  0.00  0.00     0.042 C 
BRANCH  22  24
HETATM   24  O           1     -18.088  -9.934  -6.484  0.00  0.00    -0.393 OA
HETATM   25  H           1     -17.615  -9.504  -5.792  0.00  0.00     0.210 HD
ENDBRANCH  22  24
ENDBRANCH  21  22
BRANCH  21  26
HETATM   26  N           1     -21.183 -10.823  -6.196  0.00  0.00    -0.064 N 
HETATM   27  H           1     -21.042 -10.275  -7.075  0.00  0.00     0.275 HD
HETATM   28  H           1     -21.229 -11.842  -6.425  0.00  0.00     0.275 HD
HETATM   29  H           1     -22.077 -10.528  -5.742  0.00  0.00     0.275 HD
ENDBRANCH  21  26
ENDBRANCH  18  21
ENDBRANCH   1  17
TORSDOF 10
ENDMDL
MODEL 7
REMARK VINA RESULT:      -5.9     13.338     16.046
REMARK  10 active torsions:
REMARK  status: ('A' for Active; 'I' for Inactive)
REMARK    1  A    between atoms: C_3  and  C_29 
REMARK    2  A    between atoms: C_3  and  C_5 
REMARK    3  A    between atoms: C_5  and  C_6 
REMARK    4  A    between atoms: C_5  and  N_15 
REMARK    5  A    between atoms: C_11  and  C_12 
REMARK    6  A    between atoms: C_11  and  O_23 
REMARK    7  A    between atoms: C_12  and  C_14 
REMARK    8  A    between atoms: C_12  and  N_20 
REMARK       I    between atoms: C_14  and  N_15 
REMARK       I    between atoms: N_21  and  C_26 
REMARK    9  A    between atoms: N_21  and  C_22 
REMARK   10  A    between atoms: C_22  and  C_29 
REMARK       I    between atoms: N_25  and  C_26 
ROOT
HETATM    1  C           1     -21.444  -4.714  -7.588  0.00  0.00     0.185 C 
ENDROOT
BRANCH   1   2
HETATM    2  C           1     -20.885  -5.134  -8.942  0.00  0.00     0.038 C 
BRANCH   2   3
HETATM    3  C           1     -20.240  -3.932  -9.620  0.00  0.00     0.023 C 
BRANCH   3   4
HETATM    4  C           1     -20.399  -4.054 -11.129  0.00  0.00     0.138 C 
BRANCH   4   5
HETATM    5  N           1     -21.258  -2.968 -11.621  0.00  0.00    -0.227 N 
HETATM    6  H           1     -20.902  -1.980 -11.631  0.00  0.00     0.177 HD
HETATM    7  C           1     -22.428  -3.223 -12.033  0.00  0.00     0.665 C 
HETATM    8  N           1     -22.858  -4.413 -12.021  0.00  0.00    -0.235 N 
HETATM    9  N           1     -23.188  -2.262 -12.468  0.00  0.00    -0.235 N 
HETATM   10  H           1     -22.244  -5.190 -11.670  0.00  0.00     0.174 HD
HETATM   11  H           1     -23.828  -4.625 -12.363  0.00  0.00     0.174 HD
HETATM   12  H           1     -24.153  -2.473 -12.808  0.00  0.00     0.174 HD
HETATM   13  H           1     -22.833  -1.279 -12.478  0.00  0.00     0.174 HD
ENDBRANCH   4   5
ENDBRANCH   3   4
ENDBRANCH   2   3
ENDBRANCH   1   2
BRANCH   1  14
HETATM   14  C           1     -22.903  -4.356  -7.736  0.00  0.00     0.196 C 
HETATM   15  O           1     -23.323  -3.887  -8.815  0.00  0.00    -0.646 OA
HETATM   16  O           1     -23.689  -4.528  -6.780  0.00  0.00    -0.646 OA
ENDBRANCH   1  14
BRANCH   1  17
HETATM   17  N           1     -21.308  -5.810  -6.649  0.00  0.00    -0.345 N 
HETATM   18  C           1     -20.641  -5.621  -5.469  0.00  0.00     0.251 C 
HETATM   19  O           1     -20.165  -4.542  -5.210  0.00  0.00    -0.271 OA
HETATM   20  H           1     -21.707  -6.714  -6.865  0.00  0.00     0.163 HD
BRANCH  18  21
HETATM   21  C           1     -20.500  -6.762  -4.491  0.00  0.00     0.302 C 
BRANCH  21  22
HETATM   22  C           1     -19.969  -7.990  -5.218  0.00  0.00     0.153 C 
HETATM   23  C           1     -19.300  -8.923  -4.217  0.00  0.00     0.042 C 
BRANCH  22  24
HETATM   24  O           1     -21.029  -8.660  -5.844  0.00  0.00    -0.393 OA
HETATM   25  H           1     -21.649  -8.002  -6.111  0.00  0.00     0.210 HD
ENDBRANCH  22  24
ENDBRANCH  21  22
BRANCH  21  26
HETATM   26  N           1     -21.839  -7.076  -3.894  0.00  0.00    -0.064 N 
HETATM   27  H           1     -21.852  -8.070  -3.570  0.00  0.00     0.275 HD
HETATM   28  H           1     -22.015  -6.443  -3.081  0.00  0.00     0.275 HD
HETATM   29  H           1     -22.583  -6.935  -4.614  0.00  0.00     0.275 HD
ENDBRANCH  21  26
ENDBRANCH  18  21
ENDBRANCH   1  17
TORSDOF 10
ENDMDL
MODEL 8
REMARK VINA RESULT:      -5.9      3.596      5.804
REMARK  10 active torsions:
REMARK  status: ('A' for Active; 'I' for Inactive)
REMARK    1  A    between atoms: C_3  and  C_29 
REMARK    2  A    between atoms: C_3  and  C_5 
REMARK    3  A    between atoms: C_5  and  C_6 
REMARK    4  A    between atoms: C_5  and  N_15 
REMARK    5  A    between atoms: C_11  and  C_12 
REMARK    6  A    between atoms: C_11  and  O_23 
REMARK    7  A    between atoms: C_12  and  C_14 
REMARK    8  A    between atoms: C_12  and  N_20 
REMARK       I    between atoms: C_14  and  N_15 
REMARK       I    between atoms: N_21  and  C_26 
REMARK    9  A    between atoms: N_21  and  C_22 
REMARK   10  A    between atoms: C_22  and  C_29 
REMARK       I    between atoms: N_25  and  C_26 
ROOT
HETATM    1  C           1     -35.546  -0.049 -15.692  0.00  0.00     0.185 C 
ENDROOT
BRANCH   1   2
HETATM    2  C           1     -35.757  -1.176 -16.696  0.00  0.00     0.038 C 
BRANCH   2   3
HETATM    3  C           1     -35.053  -2.434 -16.202  0.00  0.00     0.023 C 
BRANCH   3   4
HETATM    4  C           1     -34.018  -2.873 -17.229  0.00  0.00     0.138 C 
BRANCH   4   5
HETATM    5  N           1     -33.272  -4.029 -16.710  0.00  0.00    -0.227 N 
HETATM    6  H           1     -33.767  -4.762 -16.145  0.00  0.00     0.177 HD
HETATM    7  C           1     -32.033  -4.139 -16.945  0.00  0.00     0.665 C 
HETATM    8  N           1     -31.436  -3.255 -17.626  0.00  0.00    -0.235 N 
HETATM    9  N           1     -31.373  -5.161 -16.486  0.00  0.00    -0.235 N 
HETATM   10  H           1     -31.969  -2.429 -17.996  0.00  0.00     0.174 HD
HETATM   11  H           1     -30.409  -3.347 -17.820  0.00  0.00     0.174 HD
HETATM   12  H           1     -30.350  -5.252 -16.679  0.00  0.00     0.174 HD
HETATM   13  H           1     -31.866  -5.891 -15.923  0.00  0.00     0.174 HD
ENDBRANCH   4   5
ENDBRANCH   3   4
ENDBRANCH   2   3
ENDBRANCH   1   2
BRANCH   1  14
HETATM   14  C           1     -36.539   1.055 -15.961  0.00  0.00     0.196 C 
HETATM   15  O           1     -36.134   2.198 -16.263  0.00  0.00    -0.646 OA
HETATM   16  O           1     -37.765   0.826 -15.883  0.00  0.00    -0.646 OA
ENDBRANCH   1  14
BRANCH   1  17
HETATM   17  N           1     -35.740  -0.557 -14.349  0.00  0.00    -0.345 N 
HETATM   18  C           1     -35.107   0.041 -13.293  0.00  0.00     0.251 C 
HETATM   19  O           1     -34.387   0.992 -13.481  0.00  0.00    -0.271 OA
HETATM   20  H           1     -36.344  -1.354 -14.191  0.00  0.00     0.163 HD
BRANCH  18  21
HETATM   21  C           1     -35.310  -0.488 -11.893  0.00  0.00     0.302 C 
BRANCH  21  22
HETATM   22  C           1     -34.925  -1.961 -11.848  0.00  0.00     0.153 C 
HETATM   23  C           1     -33.716  -2.141 -10.939  0.00  0.00     0.042 C 
BRANCH  22  24
HETATM   24  O           1     -35.999  -2.711 -11.351  0.00  0.00    -0.393 OA
HETATM   25  H           1     -35.632  -3.397 -10.819  0.00  0.00     0.210 HD
ENDBRANCH  22  24
ENDBRANCH  21  22
BRANCH  21  26
HETATM   26  N           1     -36.750  -0.336 -11.507  0.00  0.00    -0.064 N 
HETATM   27  H           1     -37.356  -0.539 -12.334  0.00  0.00     0.275 HD
HETATM   28  H           1     -36.977  -1.005 -10.736  0.00  0.00     0.275 HD
HETATM   29  H           1     -36.922   0.641 -11.180  0.00  0.00     0.275 HD
ENDBRANCH  21  26
ENDBRANCH  18  21
ENDBRANCH   1  17
TORSDOF 10
ENDMDL
MODEL 9
REMARK VINA RESULT:      -5.9     15.007     16.478
REMARK  10 active torsions:
REMARK  status: ('A' for Active; 'I' for Inactive)
REMARK    1  A    between atoms: C_3  and  C_29 
REMARK    2  A    between atoms: C_3  and  C_5 
REMARK    3  A    between atoms: C_5  and  C_6 
REMARK    4  A    between atoms: C_5  and  N_15 
REMARK    5  A    between atoms: C_11  and  C_12 
REMARK    6  A    between atoms: C_11  and  O_23 
REMARK    7  A    between atoms: C_12  and  C_14 
REMARK    8  A    between atoms: C_12  and  N_20 
REMARK       I    between atoms: C_14  and  N_15 
REMARK       I    between atoms: N_21  and  C_26 
REMARK    9  A    between atoms: N_21  and  C_22 
REMARK   10  A    between atoms: C_22  and  C_29 
REMARK       I    between atoms: N_25  and  C_26 
ROOT
HETATM    1  C           1     -20.913  -6.916  -4.744  0.00  0.00     0.185 C 
ENDROOT
BRANCH   1   2
HETATM    2  C           1     -22.058  -6.677  -3.767  0.00  0.00     0.038 C 
BRANCH   2   3
HETATM    3  C           1     -21.511  -6.063  -2.484  0.00  0.00     0.023 C 
BRANCH   3   4
HETATM    4  C           1     -22.302  -6.587  -1.293  0.00  0.00     0.138 C 
BRANCH   4   5
HETATM    5  N           1     -22.040  -8.024  -1.125  0.00  0.00    -0.227 N 
HETATM    6  H           1     -21.360  -8.511  -1.759  0.00  0.00     0.177 HD
HETATM    7  C           1     -22.635  -8.673  -0.215  0.00  0.00     0.665 C 
HETATM    8  N           1     -23.455  -8.086   0.550  0.00  0.00    -0.235 N 
HETATM    9  N           1     -22.403  -9.944  -0.065  0.00  0.00    -0.235 N 
HETATM   10  H           1     -23.642  -7.060   0.429  0.00  0.00     0.174 HD
HETATM   11  H           1     -23.947  -8.624   1.304  0.00  0.00     0.174 HD
HETATM   12  H           1     -22.894 -10.479   0.685  0.00  0.00     0.174 HD
HETATM   13  H           1     -21.726 -10.429  -0.697  0.00  0.00     0.174 HD
ENDBRANCH   4   5
ENDBRANCH   3   4
ENDBRANCH   2   3
ENDBRANCH   1   2
BRANCH   1  14
HETATM   14  C           1     -20.545  -8.380  -4.739  0.00  0.00     0.196 C 
HETATM   15  O           1     -19.681  -8.808  -5.533  0.00  0.00    -0.646 OA
HETATM   16  O           1     -21.104  -9.162  -3.941  0.00  0.00    -0.646 OA
ENDBRANCH   1  14
BRANCH   1  17
HETATM   17  N           1     -21.327  -6.526  -6.077  0.00  0.00    -0.345 N 
HETATM   18  C           1     -21.086  -5.255  -6.524  0.00  0.00     0.251 C 
HETATM   19  O           1     -20.528  -4.459  -5.808  0.00  0.00    -0.271 OA
HETATM   20  H           1     -21.794  -7.194  -6.677  0.00  0.00     0.163 HD
BRANCH  18  21
HETATM   21  C           1     -21.517  -4.850  -7.913  0.00  0.00     0.302 C 
BRANCH  21  22
HETATM   22  C           1     -20.288  -4.679  -8.796  0.00  0.00     0.153 C 
HETATM   23  C           1     -20.721  -4.247 -10.190  0.00  0.00     0.042 C 
BRANCH  22  24
HETATM   24  O           1     -19.446  -3.703  -8.245  0.00  0.00    -0.393 OA
HETATM   25  H           1     -19.797  -2.865  -8.495  0.00  0.00     0.210 HD
ENDBRANCH  22  24
ENDBRANCH  21  22
BRANCH  21  26
HETATM   26  N           1     -22.266  -3.553  -7.845  0.00  0.00    -0.064 N 
HETATM   27  H           1     -22.340  -3.246  -6.849  0.00  0.00     0.275 HD
HETATM   28  H           1     -21.757  -2.827  -8.397  0.00  0.00     0.275 HD
HETATM   29  H           1     -23.224  -3.683  -8.241  0.00  0.00     0.275 HD
ENDBRANCH  21  26
ENDBRANCH  18  21
ENDBRANCH   1  17
TORSDOF 10
ENDMDL
