MODEL 1
REMARK VINA RESULT:      -6.6      0.000      0.000
REMARK  9 active torsions:
REMARK  status: ('A' for Active; 'I' for Inactive)
REMARK    1  A    between atoms: N_1  and  C_21 
REMARK       I    between atoms: N_1  and  C_10 
REMARK    2  A    between atoms: N_4  and  C_9 
REMARK    3  A    between atoms: Se_6  and  C_7 
REMARK    4  A    between atoms: C_7  and  C_8 
REMARK    5  A    between atoms: C_8  and  C_9 
REMARK    6  A    between atoms: C_9  and  C_10 
REMARK    7  A    between atoms: C_11  and  C_21 
REMARK    8  A    between atoms: C_21  and  C_22 
REMARK    9  A    between atoms: C_22  and  C_23 
ROOT
HETATM    1  N           1     -36.444   0.027 -11.122  0.00  0.00    -0.344 N 
HETATM    2  O           1     -37.393  -0.811 -12.962  0.00  0.00    -0.271 OA
HETATM    3  C           1     -36.397  -0.390 -12.426  0.00  0.00     0.249 C 
HETATM    4  H           1     -36.661   0.992 -10.907  0.00  0.00     0.163 HD
ENDROOT
BRANCH   1   5
HETATM    5  C           1     -36.183  -0.914 -10.050  0.00  0.00     0.189 C 
BRANCH   5   6
HETATM    6  C           1     -36.631  -0.317  -8.739  0.00  0.00     0.197 C 
HETATM    7  O           1     -35.811   0.291  -8.017  0.00  0.00    -0.646 OA
HETATM    8  O           1     -37.821  -0.431  -8.375  0.00  0.00    -0.646 OA
ENDBRANCH   5   6
BRANCH   5   9
HETATM    9  C           1     -34.691  -1.214  -9.990  0.00  0.00     0.074 C 
BRANCH   9  10
HETATM   10  C           1     -34.425  -2.549 -10.612  0.00  0.00    -0.056 A 
HETATM   11  C           1     -33.152  -2.850 -11.097  0.00  0.00     0.007 A 
HETATM   12  C           1     -32.902  -4.094 -11.677  0.00  0.00     0.001 A 
HETATM   13  C           1     -33.927  -5.037 -11.773  0.00  0.00     0.000 A 
HETATM   14  C           1     -35.199  -4.735 -11.287  0.00  0.00     0.001 A 
HETATM   15  C           1     -35.448  -3.491 -10.708  0.00  0.00     0.007 A 
ENDBRANCH   9  10
ENDBRANCH   5   9
ENDBRANCH   1   5
BRANCH   3  16
HETATM   16  C           1     -35.098  -0.323 -13.192  0.00  0.00     0.274 C 
BRANCH  16  17
HETATM   17  N           1     -34.964  -1.541 -14.056  0.00  0.00    -0.067 N 
HETATM   18  H           1     -34.905  -2.392 -13.453  0.00  0.00     0.275 HD
HETATM   19  H           1     -35.796  -1.616 -14.684  0.00  0.00     0.275 HD
HETATM   20  H           1     -34.097  -1.464 -14.635  0.00  0.00     0.275 HD
ENDBRANCH  16  17
BRANCH  16  21
HETATM   21  C           1     -35.089   0.923 -14.069  0.00  0.00     0.042 C 
BRANCH  21  22
HETATM   22  C           1     -35.425   0.537 -15.503  0.00  0.00     0.003 C 
BRANCH  22  23
HETATM   23 Se           1     -37.292   0.960 -15.870  0.00  0.00     0.000 Se
HETATM   24  C           1     -37.787  -0.869 -16.330  0.00  0.00     0.000 C 
ENDBRANCH  22  23
ENDBRANCH  21  22
ENDBRANCH  16  21
ENDBRANCH   3  16
TORSDOF 9
ENDMDL
MODEL 2
REMARK VINA RESULT:      -6.5      2.898      5.447
REMARK  9 active torsions:
REMARK  status: ('A' for Active; 'I' for Inactive)
REMARK    1  A    between atoms: N_1  and  C_21 
REMARK       I    between atoms: N_1  and  C_10 
REMARK    2  A    between atoms: N_4  and  C_9 
REMARK    3  A    between atoms: Se_6  and  C_7 
REMARK    4  A    between atoms: C_7  and  C_8 
REMARK    5  A    between atoms: C_8  and  C_9 
REMARK    6  A    between atoms: C_9  and  C_10 
REMARK    7  A    between atoms: C_11  and  C_21 
REMARK    8  A    between atoms: C_21  and  C_22 
REMARK    9  A    between atoms: C_22  and  C_23 
ROOT
HETATM    1  N           1     -35.308  -1.426  -9.967  0.00  0.00    -0.344 N 
HETATM    2  O           1     -33.160  -1.661 -10.533  0.00  0.00    -0.271 OA
HETATM    3  C           1     -34.286  -2.093 -10.589  0.00  0.00     0.249 C 
HETATM    4  H           1     -35.543  -1.644  -9.008  0.00  0.00     0.163 HD
ENDROOT
BRANCH   1   5
HETATM    5  C           1     -36.052  -0.408 -10.683  0.00  0.00     0.189 C 
BRANCH   5   6
HETATM    6  C           1     -37.107   0.174  -9.776  0.00  0.00     0.197 C 
HETATM    7  O           1     -37.090  -0.083  -8.553  0.00  0.00    -0.646 OA
HETATM    8  O           1     -37.998   0.913 -10.247  0.00  0.00    -0.646 OA
ENDBRANCH   5   6
BRANCH   5   9
HETATM    9  C           1     -36.717  -1.030 -11.904  0.00  0.00     0.074 C 
BRANCH   9  10
HETATM   10  C           1     -36.323  -0.266 -13.130  0.00  0.00    -0.056 A 
HETATM   11  C           1     -35.079   0.361 -13.191  0.00  0.00     0.007 A 
HETATM   12  C           1     -34.711   1.072 -14.333  0.00  0.00     0.001 A 
HETATM   13  C           1     -35.589   1.157 -15.414  0.00  0.00     0.000 A 
HETATM   14  C           1     -36.833   0.530 -15.352  0.00  0.00     0.001 A 
HETATM   15  C           1     -37.201  -0.180 -14.210  0.00  0.00     0.007 A 
ENDBRANCH   9  10
ENDBRANCH   5   9
ENDBRANCH   1   5
BRANCH   3  16
HETATM   16  C           1     -34.569  -3.368 -11.346  0.00  0.00     0.274 C 
BRANCH  16  17
HETATM   17  N           1     -34.055  -3.241 -12.749  0.00  0.00    -0.067 N 
HETATM   18  H           1     -34.739  -3.670 -13.412  0.00  0.00     0.275 HD
HETATM   19  H           1     -33.928  -2.231 -12.983  0.00  0.00     0.275 HD
HETATM   20  H           1     -33.137  -3.735 -12.830  0.00  0.00     0.275 HD
ENDBRANCH  16  17
BRANCH  16  21
HETATM   21  C           1     -33.873  -4.534 -10.655  0.00  0.00     0.042 C 
BRANCH  21  22
HETATM   22  C           1     -34.397  -5.846 -11.223  0.00  0.00     0.003 C 
BRANCH  22  23
HETATM   23 Se           1     -35.003  -6.989  -9.765  0.00  0.00     0.000 Se
HETATM   24  C           1     -33.834  -8.479 -10.230  0.00  0.00     0.000 C 
ENDBRANCH  22  23
ENDBRANCH  21  22
ENDBRANCH  16  21
ENDBRANCH   3  16
TORSDOF 9
ENDMDL
MODEL 3
REMARK VINA RESULT:      -6.2     15.858     17.764
REMARK  9 active torsions:
REMARK  status: ('A' for Active; 'I' for Inactive)
REMARK    1  A    between atoms: N_1  and  C_21 
REMARK       I    between atoms: N_1  and  C_10 
REMARK    2  A    between atoms: N_4  and  C_9 
REMARK    3  A    between atoms: Se_6  and  C_7 
REMARK    4  A    between atoms: C_7  and  C_8 
REMARK    5  A    between atoms: C_8  and  C_9 
REMARK    6  A    between atoms: C_9  and  C_10 
REMARK    7  A    between atoms: C_11  and  C_21 
REMARK    8  A    between atoms: C_21  and  C_22 
REMARK    9  A    between atoms: C_22  and  C_23 
ROOT
HETATM    1  N           1     -20.836  -7.988  -5.677  0.00  0.00    -0.344 N 
HETATM    2  O           1     -19.576  -6.705  -7.001  0.00  0.00    -0.271 OA
HETATM    3  C           1     -20.466  -6.773  -6.188  0.00  0.00     0.249 C 
HETATM    4  H           1     -21.557  -8.530  -6.135  0.00  0.00     0.163 HD
ENDROOT
BRANCH   1   5
HETATM    5  C           1     -20.195  -8.499  -4.481  0.00  0.00     0.189 C 
BRANCH   5   6
HETATM    6  C           1     -18.975  -9.297  -4.867  0.00  0.00     0.197 C 
HETATM    7  O           1     -17.997  -9.359  -4.091  0.00  0.00    -0.646 OA
HETATM    8  O           1     -18.943  -9.898  -5.962  0.00  0.00    -0.646 OA
ENDBRANCH   5   6
BRANCH   5   9
HETATM    9  C           1     -21.170  -9.392  -3.725  0.00  0.00     0.074 C 
BRANCH   9  10
HETATM   10  C           1     -21.640  -8.687  -2.491  0.00  0.00    -0.056 A 
HETATM   11  C           1     -21.708  -7.294  -2.467  0.00  0.00     0.007 A 
HETATM   12  C           1     -22.146  -6.636  -1.318  0.00  0.00     0.001 A 
HETATM   13  C           1     -22.515  -7.372  -0.192  0.00  0.00     0.000 A 
HETATM   14  C           1     -22.447  -8.765  -0.216  0.00  0.00     0.001 A 
HETATM   15  C           1     -22.008  -9.422  -1.365  0.00  0.00     0.007 A 
ENDBRANCH   9  10
ENDBRANCH   5   9
ENDBRANCH   1   5
BRANCH   3  16
HETATM   16  C           1     -21.169  -5.518  -5.732  0.00  0.00     0.274 C 
BRANCH  16  17
HETATM   17  N           1     -20.152  -4.471  -5.385  0.00  0.00    -0.067 N 
HETATM   18  H           1     -20.638  -3.598  -5.082  0.00  0.00     0.275 HD
HETATM   19  H           1     -19.546  -4.820  -4.608  0.00  0.00     0.275 HD
HETATM   20  H           1     -19.561  -4.268  -6.223  0.00  0.00     0.275 HD
ENDBRANCH  16  17
BRANCH  16  21
HETATM   21  C           1     -22.065  -5.002  -6.851  0.00  0.00     0.042 C 
BRANCH  21  22
HETATM   22  C           1     -21.419  -3.782  -7.496  0.00  0.00     0.003 C 
BRANCH  22  23
HETATM   23 Se           1     -20.866  -4.224  -9.312  0.00  0.00     0.000 Se
HETATM   24  C           1     -22.674  -4.569  -9.954  0.00  0.00     0.000 C 
ENDBRANCH  22  23
ENDBRANCH  21  22
ENDBRANCH  16  21
ENDBRANCH   3  16
TORSDOF 9
ENDMDL
MODEL 4
REMARK VINA RESULT:      -6.2     14.776     17.087
REMARK  9 active torsions:
REMARK  status: ('A' for Active; 'I' for Inactive)
REMARK    1  A    between atoms: N_1  and  C_21 
REMARK       I    between atoms: N_1  and  C_10 
REMARK    2  A    between atoms: N_4  and  C_9 
REMARK    3  A    between atoms: Se_6  and  C_7 
REMARK    4  A    between atoms: C_7  and  C_8 
REMARK    5  A    between atoms: C_8  and  C_9 
REMARK    6  A    between atoms: C_9  and  C_10 
REMARK    7  A    between atoms: C_11  and  C_21 
REMARK    8  A    between atoms: C_21  and  C_22 
REMARK    9  A    between atoms: C_22  and  C_23 
ROOT
HETATM    1  N           1     -22.278  -5.732  -5.589  0.00  0.00    -0.344 N 
HETATM    2  O           1     -20.986  -5.792  -3.768  0.00  0.00    -0.271 OA
HETATM    3  C           1     -21.652  -6.400  -4.571  0.00  0.00     0.249 C 
HETATM    4  H           1     -23.217  -5.378  -5.459  0.00  0.00     0.163 HD
ENDROOT
BRANCH   1   5
HETATM    5  C           1     -21.596  -5.530  -6.852  0.00  0.00     0.189 C 
BRANCH   5   6
HETATM    6  C           1     -20.105  -5.579  -6.632  0.00  0.00     0.197 C 
HETATM    7  O           1     -19.504  -4.574  -6.195  0.00  0.00    -0.646 OA
HETATM    8  O           1     -19.471  -6.626  -6.886  0.00  0.00    -0.646 OA
ENDBRANCH   5   6
BRANCH   5   9
HETATM    9  C           1     -21.981  -4.172  -7.424  0.00  0.00     0.074 C 
BRANCH   9  10
HETATM   10  C           1     -21.923  -4.225  -8.919  0.00  0.00    -0.056 A 
HETATM   11  C           1     -20.711  -4.014  -9.577  0.00  0.00     0.007 A 
HETATM   12  C           1     -20.654  -4.064 -10.970  0.00  0.00     0.001 A 
HETATM   13  C           1     -21.811  -4.324 -11.705  0.00  0.00     0.000 A 
HETATM   14  C           1     -23.023  -4.535 -11.047  0.00  0.00     0.001 A 
HETATM   15  C           1     -23.078  -4.484  -9.655  0.00  0.00     0.007 A 
ENDBRANCH   9  10
ENDBRANCH   5   9
ENDBRANCH   1   5
BRANCH   3  16
HETATM   16  C           1     -21.793  -7.898  -4.454  0.00  0.00     0.274 C 
BRANCH  16  17
HETATM   17  N           1     -21.144  -8.556  -5.636  0.00  0.00    -0.067 N 
HETATM   18  H           1     -20.758  -9.484  -5.351  0.00  0.00     0.275 HD
HETATM   19  H           1     -21.853  -8.690  -6.392  0.00  0.00     0.275 HD
HETATM   20  H           1     -20.369  -7.951  -5.989  0.00  0.00     0.275 HD
ENDBRANCH  16  17
BRANCH  16  21
HETATM   21  C           1     -21.117  -8.375  -3.175  0.00  0.00     0.042 C 
BRANCH  21  22
HETATM   22  C           1     -21.862  -9.585  -2.627  0.00  0.00     0.003 C 
BRANCH  22  23
HETATM   23 Se           1     -22.192  -9.337  -0.722  0.00  0.00     0.000 Se
HETATM   24  C           1     -22.237  -7.390  -0.817  0.00  0.00     0.000 C 
ENDBRANCH  22  23
ENDBRANCH  21  22
ENDBRANCH  16  21
ENDBRANCH   3  16
TORSDOF 9
ENDMDL
MODEL 5
REMARK VINA RESULT:      -6.2      2.176      2.837
REMARK  9 active torsions:
REMARK  status: ('A' for Active; 'I' for Inactive)
REMARK    1  A    between atoms: N_1  and  C_21 
REMARK       I    between atoms: N_1  and  C_10 
REMARK    2  A    between atoms: N_4  and  C_9 
REMARK    3  A    between atoms: Se_6  and  C_7 
REMARK    4  A    between atoms: C_7  and  C_8 
REMARK    5  A    between atoms: C_8  and  C_9 
REMARK    6  A    between atoms: C_9  and  C_10 
REMARK    7  A    between atoms: C_11  and  C_21 
REMARK    8  A    between atoms: C_21  and  C_22 
REMARK    9  A    between atoms: C_22  and  C_23 
ROOT
HETATM    1  N           1     -34.736  -0.832 -13.491  0.00  0.00    -0.344 N 
HETATM    2  O           1     -35.174   1.321 -13.894  0.00  0.00    -0.271 OA
HETATM    3  C           1     -35.348   0.167 -14.201  0.00  0.00     0.249 C 
HETATM    4  H           1     -33.820  -1.161 -13.768  0.00  0.00     0.163 HD
ENDROOT
BRANCH   1   5
HETATM    5  C           1     -35.400  -1.417 -12.342  0.00  0.00     0.189 C 
BRANCH   5   6
HETATM    6  C           1     -36.439  -0.457 -11.820  0.00  0.00     0.197 C 
HETATM    7  O           1     -36.119   0.418 -10.986  0.00  0.00    -0.646 OA
HETATM    8  O           1     -37.620  -0.535 -12.221  0.00  0.00    -0.646 OA
ENDBRANCH   5   6
BRANCH   5   9
HETATM    9  C           1     -34.373  -1.699 -11.253  0.00  0.00     0.074 C 
BRANCH   9  10
HETATM   10  C           1     -34.078  -3.166 -11.213  0.00  0.00    -0.056 A 
HETATM   11  C           1     -32.859  -3.644 -11.694  0.00  0.00     0.007 A 
HETATM   12  C           1     -32.582  -5.011 -11.656  0.00  0.00     0.001 A 
HETATM   13  C           1     -33.525  -5.899 -11.139  0.00  0.00     0.000 A 
HETATM   14  C           1     -34.744  -5.420 -10.658  0.00  0.00     0.001 A 
HETATM   15  C           1     -35.020  -4.054 -10.696  0.00  0.00     0.007 A 
ENDBRANCH   9  10
ENDBRANCH   5   9
ENDBRANCH   1   5
BRANCH   3  16
HETATM   16  C           1     -36.240  -0.177 -15.369  0.00  0.00     0.274 C 
BRANCH  16  17
HETATM   17  N           1     -37.071   1.018 -15.733  0.00  0.00    -0.067 N 
HETATM   18  H           1     -36.712   1.435 -16.621  0.00  0.00     0.275 HD
HETATM   19  H           1     -38.065   0.724 -15.862  0.00  0.00     0.275 HD
HETATM   20  H           1     -37.014   1.728 -14.967  0.00  0.00     0.275 HD
ENDBRANCH  16  17
BRANCH  16  21
HETATM   21  C           1     -35.384  -0.581 -16.562  0.00  0.00     0.042 C 
BRANCH  21  22
HETATM   22  C           1     -35.603  -2.057 -16.868  0.00  0.00     0.003 C 
BRANCH  22  23
HETATM   23 Se           1     -33.878  -2.951 -17.017  0.00  0.00     0.000 Se
HETATM   24  C           1     -34.163  -4.113 -15.477  0.00  0.00     0.000 C 
ENDBRANCH  22  23
ENDBRANCH  21  22
ENDBRANCH  16  21
ENDBRANCH   3  16
TORSDOF 9
ENDMDL
MODEL 6
REMARK VINA RESULT:      -5.9     15.838     18.234
REMARK  9 active torsions:
REMARK  status: ('A' for Active; 'I' for Inactive)
REMARK    1  A    between atoms: N_1  and  C_21 
REMARK       I    between atoms: N_1  and  C_10 
REMARK    2  A    between atoms: N_4  and  C_9 
REMARK    3  A    between atoms: Se_6  and  C_7 
REMARK    4  A    between atoms: C_7  and  C_8 
REMARK    5  A    between atoms: C_8  and  C_9 
REMARK    6  A    between atoms: C_9  and  C_10 
REMARK    7  A    between atoms: C_11  and  C_21 
REMARK    8  A    between atoms: C_21  and  C_22 
REMARK    9  A    between atoms: C_22  and  C_23 
ROOT
HETATM    1  N           1     -22.507  -6.624  -4.128  0.00  0.00    -0.344 N 
HETATM    2  O           1     -21.582  -5.465  -2.458  0.00  0.00    -0.271 OA
HETATM    3  C           1     -21.871  -6.543  -2.918  0.00  0.00     0.249 C 
HETATM    4  H           1     -23.518  -6.619  -4.169  0.00  0.00     0.163 HD
ENDROOT
BRANCH   1   5
HETATM    5  C           1     -21.733  -6.716  -5.350  0.00  0.00     0.189 C 
BRANCH   5   6
HETATM    6  C           1     -20.847  -7.936  -5.293  0.00  0.00     0.197 C 
HETATM    7  O           1     -21.326  -9.067  -5.525  0.00  0.00    -0.646 OA
HETATM    8  O           1     -19.635  -7.814  -5.015  0.00  0.00    -0.646 OA
ENDBRANCH   5   6
BRANCH   5   9
HETATM    9  C           1     -20.872  -5.468  -5.500  0.00  0.00     0.074 C 
BRANCH   9  10
HETATM   10  C           1     -20.985  -4.949  -6.899  0.00  0.00    -0.056 A 
HETATM   11  C           1     -22.185  -4.392  -7.341  0.00  0.00     0.007 A 
HETATM   12  C           1     -22.290  -3.907  -8.645  0.00  0.00     0.001 A 
HETATM   13  C           1     -21.196  -3.981  -9.507  0.00  0.00     0.000 A 
HETATM   14  C           1     -19.996  -4.538  -9.064  0.00  0.00     0.001 A 
HETATM   15  C           1     -19.891  -5.023  -7.761  0.00  0.00     0.007 A 
ENDBRANCH   9  10
ENDBRANCH   5   9
ENDBRANCH   1   5
BRANCH   3  16
HETATM   16  C           1     -21.530  -7.803  -2.160  0.00  0.00     0.274 C 
BRANCH  16  17
HETATM   17  N           1     -20.046  -7.879  -1.958  0.00  0.00    -0.067 N 
HETATM   18  H           1     -19.707  -8.834  -2.215  0.00  0.00     0.275 HD
HETATM   19  H           1     -19.576  -7.168  -2.562  0.00  0.00     0.275 HD
HETATM   20  H           1     -19.820  -7.688  -0.956  0.00  0.00     0.275 HD
ENDBRANCH  16  17
BRANCH  16  21
HETATM   21  C           1     -22.225  -7.785  -0.804  0.00  0.00     0.042 C 
BRANCH  21  22
HETATM   22  C           1     -21.401  -8.582   0.199  0.00  0.00     0.003 C 
BRANCH  22  23
HETATM   23 Se           1     -21.902 -10.463   0.101  0.00  0.00     0.000 Se
HETATM   24  C           1     -20.098 -11.091  -0.294  0.00  0.00     0.000 C 
ENDBRANCH  22  23
ENDBRANCH  21  22
ENDBRANCH  16  21
ENDBRANCH   3  16
TORSDOF 9
ENDMDL
MODEL 7
REMARK VINA RESULT:      -5.8     16.826     18.656
REMARK  9 active torsions:
REMARK  status: ('A' for Active; 'I' for Inactive)
REMARK    1  A    between atoms: N_1  and  C_21 
REMARK       I    between atoms: N_1  and  C_10 
REMARK    2  A    between atoms: N_4  and  C_9 
REMARK    3  A    between atoms: Se_6  and  C_7 
REMARK    4  A    between atoms: C_7  and  C_8 
REMARK    5  A    between atoms: C_8  and  C_9 
REMARK    6  A    between atoms: C_9  and  C_10 
REMARK    7  A    between atoms: C_11  and  C_21 
REMARK    8  A    between atoms: C_21  and  C_22 
REMARK    9  A    between atoms: C_22  and  C_23 
ROOT
HETATM    1  N           1     -20.995  -7.628  -1.609  0.00  0.00    -0.344 N 
HETATM    2  O           1     -22.097  -5.940  -2.570  0.00  0.00    -0.271 OA
HETATM    3  C           1     -21.495  -6.977  -2.705  0.00  0.00     0.249 C 
HETATM    4  H           1     -20.060  -7.422  -1.282  0.00  0.00     0.163 HD
ENDROOT
BRANCH   1   5
HETATM    5  C           1     -21.805  -8.611  -0.916  0.00  0.00     0.189 C 
BRANCH   5   6
HETATM    6  C           1     -22.371  -7.999   0.341  0.00  0.00     0.197 C 
HETATM    7  O           1     -23.516  -7.499   0.332  0.00  0.00    -0.646 OA
HETATM    8  O           1     -21.693  -7.991   1.392  0.00  0.00    -0.646 OA
ENDBRANCH   5   6
BRANCH   5   9
HETATM    9  C           1     -20.943  -9.813  -0.554  0.00  0.00     0.074 C 
BRANCH   9  10
HETATM   10  C           1     -21.824 -10.971  -0.203  0.00  0.00    -0.056 A 
HETATM   11  C           1     -21.430 -11.872   0.787  0.00  0.00     0.007 A 
HETATM   12  C           1     -22.250 -12.951   1.115  0.00  0.00     0.001 A 
HETATM   13  C           1     -23.464 -13.131   0.451  0.00  0.00     0.000 A 
HETATM   14  C           1     -23.858 -12.230  -0.538  0.00  0.00     0.001 A 
HETATM   15  C           1     -23.037 -11.151  -0.866  0.00  0.00     0.007 A 
ENDBRANCH   9  10
ENDBRANCH   5   9
ENDBRANCH   1   5
BRANCH   3  16
HETATM   16  C           1     -21.294  -7.558  -4.084  0.00  0.00     0.274 C 
BRANCH  16  17
HETATM   17  N           1     -21.758  -8.984  -4.098  0.00  0.00    -0.067 N 
HETATM   18  H           1     -21.711  -9.357  -5.073  0.00  0.00     0.275 HD
HETATM   19  H           1     -21.144  -9.557  -3.476  0.00  0.00     0.275 HD
HETATM   20  H           1     -22.744  -9.034  -3.753  0.00  0.00     0.275 HD
ENDBRANCH  16  17
BRANCH  16  21
HETATM   21  C           1     -22.098  -6.754  -5.097  0.00  0.00     0.042 C 
BRANCH  21  22
HETATM   22  C           1     -21.208  -6.392  -6.279  0.00  0.00     0.003 C 
BRANCH  22  23
HETATM   23 Se           1     -20.191  -4.784  -5.858  0.00  0.00     0.000 Se
HETATM   24  C           1     -20.253  -4.072  -7.672  0.00  0.00     0.000 C 
ENDBRANCH  22  23
ENDBRANCH  21  22
ENDBRANCH  16  21
ENDBRANCH   3  16
TORSDOF 9
ENDMDL
MODEL 8
REMARK VINA RESULT:      -5.8     18.537     20.339
REMARK  9 active torsions:
REMARK  status: ('A' for Active; 'I' for Inactive)
REMARK    1  A    between atoms: N_1  and  C_21 
REMARK       I    between atoms: N_1  and  C_10 
REMARK    2  A    between atoms: N_4  and  C_9 
REMARK    3  A    between atoms: Se_6  and  C_7 
REMARK    4  A    between atoms: C_7  and  C_8 
REMARK    5  A    between atoms: C_8  and  C_9 
REMARK    6  A    between atoms: C_9  and  C_10 
REMARK    7  A    between atoms: C_11  and  C_21 
REMARK    8  A    between atoms: C_21  and  C_22 
REMARK    9  A    between atoms: C_22  and  C_23 
ROOT
HETATM    1  N           1     -20.142  -8.137  -2.445  0.00  0.00    -0.344 N 
HETATM    2  O           1     -20.192  -8.455  -4.655  0.00  0.00    -0.271 OA
HETATM    3  C           1     -19.941  -8.903  -3.562  0.00  0.00     0.249 C 
HETATM    4  H           1     -19.397  -7.549  -2.095  0.00  0.00     0.163 HD
ENDROOT
BRANCH   1   5
HETATM    5  C           1     -21.422  -8.168  -1.764  0.00  0.00     0.189 C 
BRANCH   5   6
HETATM    6  C           1     -22.045  -6.795  -1.805  0.00  0.00     0.197 C 
HETATM    7  O           1     -22.678  -6.366  -0.816  0.00  0.00    -0.646 OA
HETATM    8  O           1     -21.928  -6.085  -2.827  0.00  0.00    -0.646 OA
ENDBRANCH   5   6
BRANCH   5   9
HETATM    9  C           1     -21.215  -8.590  -0.315  0.00  0.00     0.074 C 
BRANCH   9  10
HETATM   10  C           1     -21.947  -9.871  -0.059  0.00  0.00    -0.056 A 
HETATM   11  C           1     -23.320  -9.946  -0.291  0.00  0.00     0.007 A 
HETATM   12  C           1     -24.003 -11.139  -0.054  0.00  0.00     0.001 A 
HETATM   13  C           1     -23.312 -12.256   0.417  0.00  0.00     0.000 A 
HETATM   14  C           1     -21.939 -12.180   0.649  0.00  0.00     0.001 A 
HETATM   15  C           1     -21.257 -10.987   0.411  0.00  0.00     0.007 A 
ENDBRANCH   9  10
ENDBRANCH   5   9
ENDBRANCH   1   5
BRANCH   3  16
HETATM   16  C           1     -19.408 -10.308  -3.427  0.00  0.00     0.274 C 
BRANCH  16  17
HETATM   17  N           1     -18.887 -10.776  -4.754  0.00  0.00    -0.067 N 
HETATM   18  H           1     -17.842 -10.781  -4.736  0.00  0.00     0.275 HD
HETATM   19  H           1     -19.237 -11.742  -4.944  0.00  0.00     0.275 HD
HETATM   20  H           1     -19.219 -10.130  -5.506  0.00  0.00     0.275 HD
ENDBRANCH  16  17
BRANCH  16  21
HETATM   21  C           1     -18.279 -10.327  -2.404  0.00  0.00     0.042 C 
BRANCH  21  22
HETATM   22  C           1     -17.006  -9.787  -3.043  0.00  0.00     0.003 C 
BRANCH  22  23
HETATM   23 Se           1     -15.602 -11.133  -2.932  0.00  0.00     0.000 Se
HETATM   24  C           1     -15.236 -11.145  -4.848  0.00  0.00     0.000 C 
ENDBRANCH  22  23
ENDBRANCH  21  22
ENDBRANCH  16  21
ENDBRANCH   3  16
TORSDOF 9
ENDMDL
MODEL 9
REMARK VINA RESULT:      -5.7     25.295     26.829
REMARK  9 active torsions:
REMARK  status: ('A' for Active; 'I' for Inactive)
REMARK    1  A    between atoms: N_1  and  C_21 
REMARK       I    between atoms: N_1  and  C_10 
REMARK    2  A    between atoms: N_4  and  C_9 
REMARK    3  A    between atoms: Se_6  and  C_7 
REMARK    4  A    between atoms: C_7  and  C_8 
REMARK    5  A    between atoms: C_8  and  C_9 
REMARK    6  A    between atoms: C_9  and  C_10 
REMARK    7  A    between atoms: C_11  and  C_21 
REMARK    8  A    between atoms: C_21  and  C_22 
REMARK    9  A    between atoms: C_22  and  C_23 
ROOT
HETATM    1  N           1     -12.276   7.861 -21.091  0.00  0.00    -0.344 N 
HETATM    2  O           1     -13.106   6.489 -19.538  0.00  0.00    -0.271 OA
HETATM    3  C           1     -12.184   6.776 -20.262  0.00  0.00     0.249 C 
HETATM    4  H           1     -12.646   7.753 -22.027  0.00  0.00     0.163 HD
ENDROOT
BRANCH   1   5
HETATM    5  C           1     -11.845   9.166 -20.630  0.00  0.00     0.189 C 
BRANCH   5   6
HETATM    6  C           1     -10.363   9.318 -20.866  0.00  0.00     0.197 C 
HETATM    7  O           1      -9.940   9.632 -21.999  0.00  0.00    -0.646 OA
HETATM    8  O           1      -9.558   9.130 -19.928  0.00  0.00    -0.646 OA
ENDBRANCH   5   6
BRANCH   5   9
HETATM    9  C           1     -12.139   9.300 -19.141  0.00  0.00     0.074 C 
BRANCH   9  10
HETATM   10  C           1     -13.337  10.177 -18.946  0.00  0.00    -0.056 A 
HETATM   11  C           1     -13.683  11.111 -19.922  0.00  0.00     0.007 A 
HETATM   12  C           1     -14.800  11.928 -19.742  0.00  0.00     0.001 A 
HETATM   13  C           1     -15.569  11.811 -18.584  0.00  0.00     0.000 A 
HETATM   14  C           1     -15.222  10.877 -17.608  0.00  0.00     0.001 A 
HETATM   15  C           1     -14.106  10.061 -17.789  0.00  0.00     0.007 A 
ENDBRANCH   9  10
ENDBRANCH   5   9
ENDBRANCH   1   5
BRANCH   3  16
HETATM   16  C           1     -10.928   5.938 -20.253  0.00  0.00     0.274 C 
BRANCH  16  17
HETATM   17  N           1     -10.078   6.324 -19.079  0.00  0.00    -0.067 N 
HETATM   18  H           1      -9.145   5.860 -19.155  0.00  0.00     0.275 HD
HETATM   19  H           1      -9.951   7.362 -19.067  0.00  0.00     0.275 HD
HETATM   20  H           1     -10.546   6.021 -18.195  0.00  0.00     0.275 HD
ENDBRANCH  16  17
BRANCH  16  21
HETATM   21  C           1     -11.300   4.465 -20.146  0.00  0.00     0.042 C 
BRANCH  21  22
HETATM   22  C           1     -11.609   3.917 -21.533  0.00  0.00     0.003 C 
BRANCH  22  23
HETATM   23 Se           1     -13.301   2.951 -21.488  0.00  0.00     0.000 Se
HETATM   24  C           1     -14.329   4.384 -22.321  0.00  0.00     0.000 C 
ENDBRANCH  22  23
ENDBRANCH  21  22
ENDBRANCH  16  21
ENDBRANCH   3  16
TORSDOF 9
ENDMDL
