MODEL 1
REMARK VINA RESULT:      -7.6      0.000      0.000
REMARK  12 active torsions:
REMARK  status: ('A' for Active; 'I' for Inactive)
REMARK    1  A    between atoms: Se_2  and  C_3 
REMARK    2  A    between atoms: C_3  and  C_4 
REMARK    3  A    between atoms: C_4  and  C_5 
REMARK    4  A    between atoms: C_5  and  C_6 
REMARK    5  A    between atoms: C_5  and  N_9 
REMARK       I    between atoms: N_9  and  C_10 
REMARK    6  A    between atoms: C_10  and  C_11 
REMARK    7  A    between atoms: C_11  and  C_12 
REMARK    8  A    between atoms: C_11  and  N_24 
REMARK    9  A    between atoms: C_12  and  C_13 
REMARK   10  A    between atoms: C_16  and  O_17 
REMARK   11  A    between atoms: O_17  and  P_18 
REMARK   12  A    between atoms: P_18  and  O_19 
ROOT
HETATM    1  C           1     -20.823  -4.802  -6.584  0.00  0.00     0.278 C 
ENDROOT
BRANCH   1   2
HETATM    2  C           1     -21.602  -5.721  -5.676  0.00  0.00     0.249 C 
HETATM    3  N           1     -20.940  -6.584  -4.844  0.00  0.00    -0.345 N 
HETATM    4  H           1     -19.929  -6.606  -4.838  0.00  0.00     0.163 HD
HETATM    5  O           1     -22.810  -5.696  -5.683  0.00  0.00    -0.271 OA
BRANCH   3   6
HETATM    6  C           1     -21.690  -7.467  -3.971  0.00  0.00     0.185 C 
BRANCH   6   7
HETATM    7  C           1     -21.066  -8.857  -3.996  0.00  0.00     0.036 C 
BRANCH   7   8
HETATM    8  C           1     -19.720  -8.796  -4.704  0.00  0.00     0.003 C 
BRANCH   8   9
HETATM    9 Se           1     -18.321  -9.417  -3.495  0.00  0.00     0.000 Se
HETATM   10  C           1     -19.481 -10.640  -2.517  0.00  0.00     0.000 C 
ENDBRANCH   8   9
ENDBRANCH   7   8
ENDBRANCH   6   7
BRANCH   6  11
HETATM   11  C           1     -21.656  -6.927  -2.562  0.00  0.00     0.196 C 
HETATM   12  O           1     -22.377  -5.955  -2.248  0.00  0.00    -0.646 OA
HETATM   13  O           1     -20.907  -7.452  -1.709  0.00  0.00    -0.646 OA
ENDBRANCH   6  11
ENDBRANCH   3   6
ENDBRANCH   1   2
BRANCH   1  14
HETATM   14  C           1     -20.547  -5.508  -7.904  0.00  0.00     0.081 C 
BRANCH  14  15
HETATM   15  C           1     -21.150  -4.721  -9.027  0.00  0.00    -0.056 A 
HETATM   16  C           1     -20.395  -4.437 -10.164  0.00  0.00     0.010 A 
HETATM   17  C           1     -20.957  -3.705 -11.209  0.00  0.00     0.038 A 
HETATM   18  C           1     -22.275  -3.256 -11.118  0.00  0.00     0.081 A 
HETATM   19  C           1     -23.029  -3.540  -9.979  0.00  0.00     0.038 A 
HETATM   20  C           1     -22.468  -4.272  -8.934  0.00  0.00     0.010 A 
BRANCH  18  21
HETATM   21  O           1     -22.821  -2.544 -12.132  0.00  0.00    -0.247 OA
BRANCH  21  22
HETATM   22  P           1     -23.918  -3.272 -13.067  0.00  0.00     0.411 P 
HETATM   23  O           1     -25.274  -2.846 -12.658  0.00  0.00    -0.624 OA
HETATM   24  O           1     -23.686  -2.900 -14.481  0.00  0.00    -0.624 OA
BRANCH  22  25
HETATM   25  O           1     -23.785  -4.874 -12.904  0.00  0.00    -0.300 OA
HETATM   26  H           1     -23.523  -5.007 -12.008  0.00  0.00     0.223 HD
ENDBRANCH  22  25
ENDBRANCH  21  22
ENDBRANCH  18  21
ENDBRANCH  14  15
ENDBRANCH   1  14
BRANCH   1  27
HETATM   27  N           1     -19.522  -4.439  -5.930  0.00  0.00    -0.066 N 
HETATM   28  H           1     -19.047  -3.695  -6.490  0.00  0.00     0.275 HD
HETATM   29  H           1     -19.704  -4.085  -4.965  0.00  0.00     0.275 HD
HETATM   30  H           1     -18.909  -5.283  -5.883  0.00  0.00     0.275 HD
ENDBRANCH   1  27
TORSDOF 12
ENDMDL
MODEL 2
REMARK VINA RESULT:      -7.6      0.730      1.462
REMARK  12 active torsions:
REMARK  status: ('A' for Active; 'I' for Inactive)
REMARK    1  A    between atoms: Se_2  and  C_3 
REMARK    2  A    between atoms: C_3  and  C_4 
REMARK    3  A    between atoms: C_4  and  C_5 
REMARK    4  A    between atoms: C_5  and  C_6 
REMARK    5  A    between atoms: C_5  and  N_9 
REMARK       I    between atoms: N_9  and  C_10 
REMARK    6  A    between atoms: C_10  and  C_11 
REMARK    7  A    between atoms: C_11  and  C_12 
REMARK    8  A    between atoms: C_11  and  N_24 
REMARK    9  A    between atoms: C_12  and  C_13 
REMARK   10  A    between atoms: C_16  and  O_17 
REMARK   11  A    between atoms: O_17  and  P_18 
REMARK   12  A    between atoms: P_18  and  O_19 
ROOT
HETATM    1  C           1     -20.899  -4.801  -6.533  0.00  0.00     0.278 C 
ENDROOT
BRANCH   1   2
HETATM    2  C           1     -21.651  -5.731  -5.613  0.00  0.00     0.249 C 
HETATM    3  N           1     -20.964  -6.558  -4.764  0.00  0.00    -0.345 N 
HETATM    4  H           1     -19.952  -6.545  -4.755  0.00  0.00     0.163 HD
HETATM    5  O           1     -22.859  -5.747  -5.626  0.00  0.00    -0.271 OA
BRANCH   3   6
HETATM    6  C           1     -21.687  -7.451  -3.880  0.00  0.00     0.185 C 
BRANCH   6   7
HETATM    7  C           1     -21.040  -8.830  -3.909  0.00  0.00     0.036 C 
BRANCH   7   8
HETATM    8  C           1     -19.700  -8.746  -4.629  0.00  0.00     0.003 C 
BRANCH   8   9
HETATM    9 Se           1     -19.194 -10.518  -5.268  0.00  0.00     0.000 Se
HETATM   10  C           1     -17.388  -9.996  -5.782  0.00  0.00     0.000 C 
ENDBRANCH   8   9
ENDBRANCH   7   8
ENDBRANCH   6   7
BRANCH   6  11
HETATM   11  C           1     -21.645  -6.907  -2.474  0.00  0.00     0.196 C 
HETATM   12  O           1     -20.954  -7.480  -1.603  0.00  0.00    -0.646 OA
HETATM   13  O           1     -22.299  -5.883  -2.179  0.00  0.00    -0.646 OA
ENDBRANCH   6  11
ENDBRANCH   3   6
ENDBRANCH   1   2
BRANCH   1  14
HETATM   14  C           1     -20.628  -5.505  -7.855  0.00  0.00     0.081 C 
BRANCH  14  15
HETATM   15  C           1     -21.222  -4.710  -8.977  0.00  0.00    -0.056 A 
HETATM   16  C           1     -22.541  -4.267  -8.894  0.00  0.00     0.010 A 
HETATM   17  C           1     -23.094  -3.526  -9.939  0.00  0.00     0.038 A 
HETATM   18  C           1     -22.328  -3.229 -11.066  0.00  0.00     0.081 A 
HETATM   19  C           1     -21.008  -3.673 -11.148  0.00  0.00     0.038 A 
HETATM   20  C           1     -20.455  -4.413 -10.104  0.00  0.00     0.010 A 
BRANCH  18  21
HETATM   21  O           1     -22.865  -2.510 -12.080  0.00  0.00    -0.247 OA
BRANCH  21  22
HETATM   22  P           1     -23.926  -3.244 -13.052  0.00  0.00     0.411 P 
HETATM   23  O           1     -25.300  -2.848 -12.672  0.00  0.00    -0.624 OA
HETATM   24  O           1     -23.666  -2.847 -14.454  0.00  0.00    -0.624 OA
BRANCH  22  25
HETATM   25  O           1     -23.769  -4.845 -12.908  0.00  0.00    -0.300 OA
HETATM   26  H           1     -23.016  -5.064 -13.431  0.00  0.00     0.223 HD
ENDBRANCH  22  25
ENDBRANCH  21  22
ENDBRANCH  18  21
ENDBRANCH  14  15
ENDBRANCH   1  14
BRANCH   1  27
HETATM   27  N           1     -19.598  -4.413  -5.896  0.00  0.00    -0.066 N 
HETATM   28  H           1     -19.772  -3.692  -5.159  0.00  0.00     0.275 HD
HETATM   29  H           1     -19.157  -5.254  -5.463  0.00  0.00     0.275 HD
HETATM   30  H           1     -18.959  -4.019  -6.624  0.00  0.00     0.275 HD
ENDBRANCH   1  27
TORSDOF 12
ENDMDL
MODEL 3
REMARK VINA RESULT:      -7.5      1.181      1.581
REMARK  12 active torsions:
REMARK  status: ('A' for Active; 'I' for Inactive)
REMARK    1  A    between atoms: Se_2  and  C_3 
REMARK    2  A    between atoms: C_3  and  C_4 
REMARK    3  A    between atoms: C_4  and  C_5 
REMARK    4  A    between atoms: C_5  and  C_6 
REMARK    5  A    between atoms: C_5  and  N_9 
REMARK       I    between atoms: N_9  and  C_10 
REMARK    6  A    between atoms: C_10  and  C_11 
REMARK    7  A    between atoms: C_11  and  C_12 
REMARK    8  A    between atoms: C_11  and  N_24 
REMARK    9  A    between atoms: C_12  and  C_13 
REMARK   10  A    between atoms: C_16  and  O_17 
REMARK   11  A    between atoms: O_17  and  P_18 
REMARK   12  A    between atoms: P_18  and  O_19 
ROOT
HETATM    1  C           1     -21.007  -4.923  -6.355  0.00  0.00     0.278 C 
ENDROOT
BRANCH   1   2
HETATM    2  C           1     -21.669  -5.901  -5.415  0.00  0.00     0.249 C 
HETATM    3  N           1     -20.906  -6.658  -4.567  0.00  0.00    -0.345 N 
HETATM    4  H           1     -19.899  -6.561  -4.569  0.00  0.00     0.163 HD
HETATM    5  O           1     -22.871  -6.017  -5.414  0.00  0.00    -0.271 OA
BRANCH   3   6
HETATM    6  C           1     -21.542  -7.598  -3.664  0.00  0.00     0.185 C 
BRANCH   6   7
HETATM    7  C           1     -20.711  -8.872  -3.587  0.00  0.00     0.036 C 
BRANCH   7   8
HETATM    8  C           1     -21.616 -10.081  -3.777  0.00  0.00     0.003 C 
BRANCH   8   9
HETATM    9 Se           1     -21.917 -10.946  -2.056  0.00  0.00     0.000 Se
HETATM   10  C           1     -22.639 -12.586  -2.820  0.00  0.00     0.000 C 
ENDBRANCH   8   9
ENDBRANCH   7   8
ENDBRANCH   6   7
BRANCH   6  11
HETATM   11  C           1     -21.646  -6.983  -2.291  0.00  0.00     0.196 C 
HETATM   12  O           1     -22.324  -5.946  -2.120  0.00  0.00    -0.646 OA
HETATM   13  O           1     -21.055  -7.510  -1.323  0.00  0.00    -0.646 OA
ENDBRANCH   6  11
ENDBRANCH   3   6
ENDBRANCH   1   2
BRANCH   1  14
HETATM   14  C           1     -20.712  -5.611  -7.680  0.00  0.00     0.081 C 
BRANCH  14  15
HETATM   15  C           1     -21.276  -4.797  -8.803  0.00  0.00    -0.056 A 
HETATM   16  C           1     -22.596  -4.352  -8.745  0.00  0.00     0.010 A 
HETATM   17  C           1     -23.122  -3.593  -9.792  0.00  0.00     0.038 A 
HETATM   18  C           1     -22.328  -3.280 -10.895  0.00  0.00     0.081 A 
HETATM   19  C           1     -21.007  -3.726 -10.951  0.00  0.00     0.038 A 
HETATM   20  C           1     -20.481  -4.484  -9.906  0.00  0.00     0.010 A 
BRANCH  18  21
HETATM   21  O           1     -22.838  -2.544 -11.911  0.00  0.00    -0.247 OA
BRANCH  21  22
HETATM   22  P           1     -23.885  -3.257 -12.913  0.00  0.00     0.411 P 
HETATM   23  O           1     -25.263  -2.864 -12.548  0.00  0.00    -0.624 OA
HETATM   24  O           1     -23.601  -2.835 -14.303  0.00  0.00    -0.624 OA
BRANCH  22  25
HETATM   25  O           1     -23.734  -4.861 -12.797  0.00  0.00    -0.300 OA
HETATM   26  H           1     -24.617  -5.187 -12.767  0.00  0.00     0.223 HD
ENDBRANCH  22  25
ENDBRANCH  21  22
ENDBRANCH  18  21
ENDBRANCH  14  15
ENDBRANCH   1  14
BRANCH   1  27
HETATM   27  N           1     -19.724  -4.437  -5.747  0.00  0.00    -0.066 N 
HETATM   28  H           1     -19.528  -3.465  -6.078  0.00  0.00     0.275 HD
HETATM   29  H           1     -19.808  -4.439  -4.706  0.00  0.00     0.275 HD
HETATM   30  H           1     -18.942  -5.067  -6.036  0.00  0.00     0.275 HD
ENDBRANCH   1  27
TORSDOF 12
ENDMDL
MODEL 4
REMARK VINA RESULT:      -7.1      1.987      2.355
REMARK  12 active torsions:
REMARK  status: ('A' for Active; 'I' for Inactive)
REMARK    1  A    between atoms: Se_2  and  C_3 
REMARK    2  A    between atoms: C_3  and  C_4 
REMARK    3  A    between atoms: C_4  and  C_5 
REMARK    4  A    between atoms: C_5  and  C_6 
REMARK    5  A    between atoms: C_5  and  N_9 
REMARK       I    between atoms: N_9  and  C_10 
REMARK    6  A    between atoms: C_10  and  C_11 
REMARK    7  A    between atoms: C_11  and  C_12 
REMARK    8  A    between atoms: C_11  and  N_24 
REMARK    9  A    between atoms: C_12  and  C_13 
REMARK   10  A    between atoms: C_16  and  O_17 
REMARK   11  A    between atoms: O_17  and  P_18 
REMARK   12  A    between atoms: P_18  and  O_19 
ROOT
HETATM    1  C           1     -20.772  -5.411  -7.037  0.00  0.00     0.278 C 
ENDROOT
BRANCH   1   2
HETATM    2  C           1     -20.203  -6.577  -6.267  0.00  0.00     0.249 C 
HETATM    3  N           1     -20.835  -7.026  -5.138  0.00  0.00    -0.345 N 
HETATM    4  H           1     -21.684  -6.576  -4.821  0.00  0.00     0.163 HD
HETATM    5  O           1     -19.189  -7.114  -6.645  0.00  0.00    -0.271 OA
BRANCH   3   6
HETATM    6  C           1     -20.289  -8.147  -4.398  0.00  0.00     0.185 C 
BRANCH   6   7
HETATM    7  C           1     -20.483  -7.914  -2.905  0.00  0.00     0.036 C 
BRANCH   7   8
HETATM    8  C           1     -21.721  -7.057  -2.682  0.00  0.00     0.003 C 
BRANCH   8   9
HETATM    9 Se           1     -22.251  -7.155  -0.808  0.00  0.00     0.000 Se
HETATM   10  C           1     -22.389  -9.098  -0.779  0.00  0.00     0.000 C 
ENDBRANCH   8   9
ENDBRANCH   7   8
ENDBRANCH   6   7
BRANCH   6  11
HETATM   11  C           1     -21.001  -9.412  -4.805  0.00  0.00     0.196 C 
HETATM   12  O           1     -21.301 -10.266  -3.942  0.00  0.00    -0.646 OA
HETATM   13  O           1     -21.294  -9.608  -6.005  0.00  0.00    -0.646 OA
ENDBRANCH   6  11
ENDBRANCH   3   6
ENDBRANCH   1   2
BRANCH   1  14
HETATM   14  C           1     -19.962  -5.198  -8.309  0.00  0.00     0.081 C 
BRANCH  14  15
HETATM   15  C           1     -20.797  -4.473  -9.318  0.00  0.00    -0.056 A 
HETATM   16  C           1     -20.217  -4.009 -10.498  0.00  0.00     0.010 A 
HETATM   17  C           1     -20.996  -3.334 -11.438  0.00  0.00     0.038 A 
HETATM   18  C           1     -22.354  -3.123 -11.199  0.00  0.00     0.081 A 
HETATM   19  C           1     -22.933  -3.588 -10.018  0.00  0.00     0.038 A 
HETATM   20  C           1     -22.155  -4.263  -9.077  0.00  0.00     0.010 A 
BRANCH  18  21
HETATM   21  O           1     -23.110  -2.467 -12.111  0.00  0.00    -0.247 OA
BRANCH  21  22
HETATM   22  P           1     -23.992  -3.346 -13.139  0.00  0.00     0.411 P 
HETATM   23  O           1     -25.424  -3.015 -12.968  0.00  0.00    -0.624 OA
HETATM   24  O           1     -23.576  -3.045 -14.528  0.00  0.00    -0.624 OA
BRANCH  22  25
HETATM   25  O           1     -23.763  -4.916 -12.838  0.00  0.00    -0.300 OA
HETATM   26  H           1     -23.138  -5.200 -13.484  0.00  0.00     0.223 HD
ENDBRANCH  22  25
ENDBRANCH  21  22
ENDBRANCH  18  21
ENDBRANCH  14  15
ENDBRANCH   1  14
BRANCH   1  27
HETATM   27  N           1     -20.708  -4.174  -6.190  0.00  0.00    -0.066 N 
HETATM   28  H           1     -20.196  -4.386  -5.304  0.00  0.00     0.275 HD
HETATM   29  H           1     -20.207  -3.421  -6.711  0.00  0.00     0.275 HD
HETATM   30  H           1     -21.678  -3.858  -5.965  0.00  0.00     0.275 HD
ENDBRANCH   1  27
TORSDOF 12
ENDMDL
MODEL 5
REMARK VINA RESULT:      -7.0      4.413      9.628
REMARK  12 active torsions:
REMARK  status: ('A' for Active; 'I' for Inactive)
REMARK    1  A    between atoms: Se_2  and  C_3 
REMARK    2  A    between atoms: C_3  and  C_4 
REMARK    3  A    between atoms: C_4  and  C_5 
REMARK    4  A    between atoms: C_5  and  C_6 
REMARK    5  A    between atoms: C_5  and  N_9 
REMARK       I    between atoms: N_9  and  C_10 
REMARK    6  A    between atoms: C_10  and  C_11 
REMARK    7  A    between atoms: C_11  and  C_12 
REMARK    8  A    between atoms: C_11  and  N_24 
REMARK    9  A    between atoms: C_12  and  C_13 
REMARK   10  A    between atoms: C_16  and  O_17 
REMARK   11  A    between atoms: O_17  and  P_18 
REMARK   12  A    between atoms: P_18  and  O_19 
ROOT
HETATM    1  C           1     -21.188  -5.523  -6.543  0.00  0.00     0.278 C 
ENDROOT
BRANCH   1   2
HETATM    2  C           1     -21.678  -4.476  -7.512  0.00  0.00     0.249 C 
HETATM    3  N           1     -22.257  -4.854  -8.694  0.00  0.00    -0.345 N 
HETATM    4  H           1     -22.357  -5.836  -8.917  0.00  0.00     0.163 HD
HETATM    5  O           1     -21.557  -3.303  -7.247  0.00  0.00    -0.271 OA
BRANCH   3   6
HETATM    6  C           1     -22.727  -3.848  -9.626  0.00  0.00     0.185 C 
BRANCH   6   7
HETATM    7  C           1     -22.185  -4.149 -11.017  0.00  0.00     0.036 C 
BRANCH   7   8
HETATM    8  C           1     -22.331  -2.915 -11.897  0.00  0.00     0.003 C 
BRANCH   8   9
HETATM    9 Se           1     -23.854  -3.146 -13.093  0.00  0.00     0.000 Se
HETATM   10  C           1     -22.892  -2.586 -14.692  0.00  0.00     0.000 C 
ENDBRANCH   8   9
ENDBRANCH   7   8
ENDBRANCH   6   7
BRANCH   6  11
HETATM   11  C           1     -24.235  -3.863  -9.662  0.00  0.00     0.196 C 
HETATM   12  O           1     -24.844  -4.935  -9.869  0.00  0.00    -0.646 OA
HETATM   13  O           1     -24.876  -2.805  -9.484  0.00  0.00    -0.646 OA
ENDBRANCH   6  11
ENDBRANCH   3   6
ENDBRANCH   1   2
BRANCH   1  14
HETATM   14  C           1     -22.326  -5.931  -5.618  0.00  0.00     0.081 C 
BRANCH  14  15
HETATM   15  C           1     -21.789  -6.785  -4.511  0.00  0.00    -0.056 A 
HETATM   16  C           1     -21.747  -6.292  -3.208  0.00  0.00     0.010 A 
HETATM   17  C           1     -21.246  -7.088  -2.177  0.00  0.00     0.038 A 
HETATM   18  C           1     -20.789  -8.377  -2.450  0.00  0.00     0.081 A 
HETATM   19  C           1     -20.831  -8.870  -3.755  0.00  0.00     0.038 A 
HETATM   20  C           1     -21.331  -8.074  -4.785  0.00  0.00     0.010 A 
BRANCH  18  21
HETATM   21  O           1     -20.303  -9.150  -1.450  0.00  0.00    -0.247 OA
BRANCH  21  22
HETATM   22  P           1     -21.334  -9.666  -0.319  0.00  0.00     0.411 P 
HETATM   23  O           1     -20.865 -10.961   0.222  0.00  0.00    -0.624 OA
HETATM   24  O           1     -21.407  -8.670   0.772  0.00  0.00    -0.624 OA
BRANCH  22  25
HETATM   25  O           1     -22.798  -9.856  -0.974  0.00  0.00    -0.300 OA
HETATM   26  H           1     -22.636 -10.164  -1.849  0.00  0.00     0.223 HD
ENDBRANCH  22  25
ENDBRANCH  21  22
ENDBRANCH  18  21
ENDBRANCH  14  15
ENDBRANCH   1  14
BRANCH   1  27
HETATM   27  N           1     -20.059  -4.962  -5.730  0.00  0.00    -0.066 N 
HETATM   28  H           1     -19.152  -5.164  -6.208  0.00  0.00     0.275 HD
HETATM   29  H           1     -20.179  -3.929  -5.632  0.00  0.00     0.275 HD
HETATM   30  H           1     -20.059  -5.405  -4.783  0.00  0.00     0.275 HD
ENDBRANCH   1  27
TORSDOF 12
ENDMDL
MODEL 6
REMARK VINA RESULT:      -7.0      2.367      3.166
REMARK  12 active torsions:
REMARK  status: ('A' for Active; 'I' for Inactive)
REMARK    1  A    between atoms: Se_2  and  C_3 
REMARK    2  A    between atoms: C_3  and  C_4 
REMARK    3  A    between atoms: C_4  and  C_5 
REMARK    4  A    between atoms: C_5  and  C_6 
REMARK    5  A    between atoms: C_5  and  N_9 
REMARK       I    between atoms: N_9  and  C_10 
REMARK    6  A    between atoms: C_10  and  C_11 
REMARK    7  A    between atoms: C_11  and  C_12 
REMARK    8  A    between atoms: C_11  and  N_24 
REMARK    9  A    between atoms: C_12  and  C_13 
REMARK   10  A    between atoms: C_16  and  O_17 
REMARK   11  A    between atoms: O_17  and  P_18 
REMARK   12  A    between atoms: P_18  and  O_19 
ROOT
HETATM    1  C           1     -21.360  -6.324  -5.397  0.00  0.00     0.278 C 
ENDROOT
BRANCH   1   2
HETATM    2  C           1     -20.669  -7.664  -5.331  0.00  0.00     0.249 C 
HETATM    3  N           1     -21.148  -8.641  -4.500  0.00  0.00    -0.345 N 
HETATM    4  H           1     -21.966  -8.465  -3.930  0.00  0.00     0.163 HD
HETATM    5  O           1     -19.693  -7.874  -6.010  0.00  0.00    -0.271 OA
BRANCH   3   6
HETATM    6  C           1     -20.485  -9.929  -4.437  0.00  0.00     0.185 C 
BRANCH   6   7
HETATM    7  C           1     -20.385 -10.380  -2.985  0.00  0.00     0.036 C 
BRANCH   7   8
HETATM    8  C           1     -20.494  -9.169  -2.069  0.00  0.00     0.003 C 
BRANCH   8   9
HETATM    9 Se           1     -22.100  -9.324  -0.974  0.00  0.00     0.000 Se
HETATM   10  C           1     -22.313  -7.403  -0.723  0.00  0.00     0.000 C 
ENDBRANCH   8   9
ENDBRANCH   7   8
ENDBRANCH   6   7
BRANCH   6  11
HETATM   11  C           1     -21.279 -10.942  -5.223  0.00  0.00     0.196 C 
HETATM   12  O           1     -22.003 -11.769  -4.625  0.00  0.00    -0.646 OA
HETATM   13  O           1     -21.216 -10.955  -6.472  0.00  0.00    -0.646 OA
ENDBRANCH   6  11
ENDBRANCH   3   6
ENDBRANCH   1   2
BRANCH   1  14
HETATM   14  C           1     -20.387  -5.276  -5.920  0.00  0.00     0.081 C 
BRANCH  14  15
HETATM   15  C           1     -20.865  -4.768  -7.245  0.00  0.00    -0.056 A 
HETATM   16  C           1     -20.081  -4.948  -8.384  0.00  0.00     0.010 A 
HETATM   17  C           1     -20.526  -4.475  -9.618  0.00  0.00     0.038 A 
HETATM   18  C           1     -21.754  -3.821  -9.714  0.00  0.00     0.081 A 
HETATM   19  C           1     -22.537  -3.641  -8.573  0.00  0.00     0.038 A 
HETATM   20  C           1     -22.093  -4.114  -7.339  0.00  0.00     0.010 A 
BRANCH  18  21
HETATM   21  O           1     -22.186  -3.361 -10.912  0.00  0.00    -0.247 OA
BRANCH  21  22
HETATM   22  P           1     -23.574  -3.944 -11.494  0.00  0.00     0.411 P 
HETATM   23  O           1     -23.779  -5.322 -10.995  0.00  0.00    -0.624 OA
HETATM   24  O           1     -24.695  -3.085 -11.049  0.00  0.00    -0.624 OA
BRANCH  22  25
HETATM   25  O           1     -23.517  -3.960 -13.108  0.00  0.00    -0.300 OA
HETATM   26  H           1     -24.037  -4.703 -13.364  0.00  0.00     0.223 HD
ENDBRANCH  22  25
ENDBRANCH  21  22
ENDBRANCH  18  21
ENDBRANCH  14  15
ENDBRANCH   1  14
BRANCH   1  27
HETATM   27  N           1     -21.825  -5.934  -4.025  0.00  0.00    -0.066 N 
HETATM   28  H           1     -21.839  -6.779  -3.409  0.00  0.00     0.275 HD
HETATM   29  H           1     -21.174  -5.223  -3.625  0.00  0.00     0.275 HD
HETATM   30  H           1     -22.788  -5.533  -4.086  0.00  0.00     0.275 HD
ENDBRANCH   1  27
TORSDOF 12
ENDMDL
MODEL 7
REMARK VINA RESULT:      -6.8      1.658      2.041
REMARK  12 active torsions:
REMARK  status: ('A' for Active; 'I' for Inactive)
REMARK    1  A    between atoms: Se_2  and  C_3 
REMARK    2  A    between atoms: C_3  and  C_4 
REMARK    3  A    between atoms: C_4  and  C_5 
REMARK    4  A    between atoms: C_5  and  C_6 
REMARK    5  A    between atoms: C_5  and  N_9 
REMARK       I    between atoms: N_9  and  C_10 
REMARK    6  A    between atoms: C_10  and  C_11 
REMARK    7  A    between atoms: C_11  and  C_12 
REMARK    8  A    between atoms: C_11  and  N_24 
REMARK    9  A    between atoms: C_12  and  C_13 
REMARK   10  A    between atoms: C_16  and  O_17 
REMARK   11  A    between atoms: O_17  and  P_18 
REMARK   12  A    between atoms: P_18  and  O_19 
ROOT
HETATM    1  C           1     -21.116  -5.257  -6.029  0.00  0.00     0.278 C 
ENDROOT
BRANCH   1   2
HETATM    2  C           1     -21.452  -6.401  -5.104  0.00  0.00     0.249 C 
HETATM    3  N           1     -20.785  -7.591  -5.217  0.00  0.00    -0.345 N 
HETATM    4  H           1     -20.066  -7.704  -5.920  0.00  0.00     0.163 HD
HETATM    5  O           1     -22.310  -6.267  -4.265  0.00  0.00    -0.271 OA
BRANCH   3   6
HETATM    6  C           1     -21.108  -8.690  -4.327  0.00  0.00     0.185 C 
BRANCH   6   7
HETATM    7  C           1     -21.148  -9.991  -5.120  0.00  0.00     0.036 C 
BRANCH   7   8
HETATM    8  C           1     -21.863 -11.059  -4.304  0.00  0.00     0.003 C 
BRANCH   8   9
HETATM    9 Se           1     -21.514 -12.813  -5.081  0.00  0.00     0.000 Se
HETATM   10  C           1     -19.575 -12.621  -5.053  0.00  0.00     0.000 C 
ENDBRANCH   8   9
ENDBRANCH   7   8
ENDBRANCH   6   7
BRANCH   6  11
HETATM   11  C           1     -20.054  -8.791  -3.252  0.00  0.00     0.196 C 
HETATM   12  O           1     -18.870  -9.050  -3.559  0.00  0.00    -0.646 OA
HETATM   13  O           1     -20.365  -8.615  -2.054  0.00  0.00    -0.646 OA
ENDBRANCH   6  11
ENDBRANCH   3   6
ENDBRANCH   1   2
BRANCH   1  14
HETATM   14  C           1     -20.694  -5.807  -7.384  0.00  0.00     0.081 C 
BRANCH  14  15
HETATM   15  C           1     -21.254  -4.943  -8.471  0.00  0.00    -0.056 A 
HETATM   16  C           1     -20.477  -4.636  -9.587  0.00  0.00     0.010 A 
HETATM   17  C           1     -21.000  -3.831 -10.600  0.00  0.00     0.038 A 
HETATM   18  C           1     -22.300  -3.334 -10.496  0.00  0.00     0.081 A 
HETATM   19  C           1     -23.076  -3.642  -9.379  0.00  0.00     0.038 A 
HETATM   20  C           1     -22.554  -4.447  -8.366  0.00  0.00     0.010 A 
BRANCH  18  21
HETATM   21  O           1     -22.807  -2.552 -11.479  0.00  0.00    -0.247 OA
BRANCH  21  22
HETATM   22  P           1     -23.412  -3.277 -12.789  0.00  0.00     0.411 P 
HETATM   23  O           1     -23.751  -4.680 -12.465  0.00  0.00    -0.624 OA
HETATM   24  O           1     -24.631  -2.561 -13.229  0.00  0.00    -0.624 OA
BRANCH  22  25
HETATM   25  O           1     -22.315  -3.249 -13.974  0.00  0.00    -0.300 OA
HETATM   26  H           1     -22.251  -2.343 -14.226  0.00  0.00     0.223 HD
ENDBRANCH  22  25
ENDBRANCH  21  22
ENDBRANCH  18  21
ENDBRANCH  14  15
ENDBRANCH   1  14
BRANCH   1  27
HETATM   27  N           1     -19.993  -4.454  -5.443  0.00  0.00    -0.066 N 
HETATM   28  H           1     -20.321  -3.981  -4.570  0.00  0.00     0.275 HD
HETATM   29  H           1     -19.193  -5.086  -5.216  0.00  0.00     0.275 HD
HETATM   30  H           1     -19.684  -3.733  -6.133  0.00  0.00     0.275 HD
ENDBRANCH   1  27
TORSDOF 12
ENDMDL
MODEL 8
REMARK VINA RESULT:      -6.7      2.078      2.976
REMARK  12 active torsions:
REMARK  status: ('A' for Active; 'I' for Inactive)
REMARK    1  A    between atoms: Se_2  and  C_3 
REMARK    2  A    between atoms: C_3  and  C_4 
REMARK    3  A    between atoms: C_4  and  C_5 
REMARK    4  A    between atoms: C_5  and  C_6 
REMARK    5  A    between atoms: C_5  and  N_9 
REMARK       I    between atoms: N_9  and  C_10 
REMARK    6  A    between atoms: C_10  and  C_11 
REMARK    7  A    between atoms: C_11  and  C_12 
REMARK    8  A    between atoms: C_11  and  N_24 
REMARK    9  A    between atoms: C_12  and  C_13 
REMARK   10  A    between atoms: C_16  and  O_17 
REMARK   11  A    between atoms: O_17  and  P_18 
REMARK   12  A    between atoms: P_18  and  O_19 
ROOT
HETATM    1  C           1     -21.561  -6.645  -5.292  0.00  0.00     0.278 C 
ENDROOT
BRANCH   1   2
HETATM    2  C           1     -21.182  -8.090  -5.080  0.00  0.00     0.249 C 
HETATM    3  N           1     -20.858  -8.535  -3.826  0.00  0.00    -0.345 N 
HETATM    4  H           1     -20.874  -7.896  -3.042  0.00  0.00     0.163 HD
HETATM    5  O           1     -21.161  -8.853  -6.016  0.00  0.00    -0.271 OA
BRANCH   3   6
HETATM    6  C           1     -20.493  -9.924  -3.623  0.00  0.00     0.185 C 
BRANCH   6   7
HETATM    7  C           1     -19.175  -9.997  -2.862  0.00  0.00     0.036 C 
BRANCH   7   8
HETATM    8  C           1     -18.070  -9.370  -3.701  0.00  0.00     0.003 C 
BRANCH   8   9
HETATM    9 Se           1     -16.341  -9.726  -2.871  0.00  0.00     0.000 Se
HETATM   10  C           1     -15.811 -11.076  -4.173  0.00  0.00     0.000 C 
ENDBRANCH   8   9
ENDBRANCH   7   8
ENDBRANCH   6   7
BRANCH   6  11
HETATM   11  C           1     -21.571 -10.614  -2.824  0.00  0.00     0.196 C 
HETATM   12  O           1     -21.351 -10.955  -1.642  0.00  0.00    -0.646 OA
HETATM   13  O           1     -22.684 -10.844  -3.344  0.00  0.00    -0.646 OA
ENDBRANCH   6  11
ENDBRANCH   3   6
ENDBRANCH   1   2
BRANCH   1  14
HETATM   14  C           1     -20.429  -5.922  -6.008  0.00  0.00     0.081 C 
BRANCH  14  15
HETATM   15  C           1     -20.974  -5.196  -7.199  0.00  0.00    -0.056 A 
HETATM   16  C           1     -22.256  -4.649  -7.155  0.00  0.00     0.010 A 
HETATM   17  C           1     -22.763  -3.972  -8.265  0.00  0.00     0.038 A 
HETATM   18  C           1     -21.989  -3.843  -9.418  0.00  0.00     0.081 A 
HETATM   19  C           1     -20.707  -4.391  -9.461  0.00  0.00     0.038 A 
HETATM   20  C           1     -20.200  -5.067  -8.352  0.00  0.00     0.010 A 
BRANCH  18  21
HETATM   21  O           1     -22.482  -3.187 -10.495  0.00  0.00    -0.247 OA
BRANCH  21  22
HETATM   22  P           1     -23.821  -3.764 -11.189  0.00  0.00     0.411 P 
HETATM   23  O           1     -23.879  -3.318 -12.598  0.00  0.00    -0.624 OA
HETATM   24  O           1     -23.803  -5.244 -11.138  0.00  0.00    -0.624 OA
BRANCH  22  25
HETATM   25  O           1     -25.117  -3.215 -10.397  0.00  0.00    -0.300 OA
HETATM   26  H           1     -25.292  -3.864  -9.737  0.00  0.00     0.223 HD
ENDBRANCH  22  25
ENDBRANCH  21  22
ENDBRANCH  18  21
ENDBRANCH  14  15
ENDBRANCH   1  14
BRANCH   1  27
HETATM   27  N           1     -21.810  -5.994  -3.964  0.00  0.00    -0.066 N 
HETATM   28  H           1     -21.872  -4.958  -4.090  0.00  0.00     0.275 HD
HETATM   29  H           1     -22.705  -6.350  -3.563  0.00  0.00     0.275 HD
HETATM   30  H           1     -21.022  -6.218  -3.314  0.00  0.00     0.275 HD
ENDBRANCH   1  27
TORSDOF 12
ENDMDL
MODEL 9
REMARK VINA RESULT:      -6.3      2.028      2.909
REMARK  12 active torsions:
REMARK  status: ('A' for Active; 'I' for Inactive)
REMARK    1  A    between atoms: Se_2  and  C_3 
REMARK    2  A    between atoms: C_3  and  C_4 
REMARK    3  A    between atoms: C_4  and  C_5 
REMARK    4  A    between atoms: C_5  and  C_6 
REMARK    5  A    between atoms: C_5  and  N_9 
REMARK       I    between atoms: N_9  and  C_10 
REMARK    6  A    between atoms: C_10  and  C_11 
REMARK    7  A    between atoms: C_11  and  C_12 
REMARK    8  A    between atoms: C_11  and  N_24 
REMARK    9  A    between atoms: C_12  and  C_13 
REMARK   10  A    between atoms: C_16  and  O_17 
REMARK   11  A    between atoms: O_17  and  P_18 
REMARK   12  A    between atoms: P_18  and  O_19 
ROOT
HETATM    1  C           1     -20.549  -6.898  -5.373  0.00  0.00     0.278 C 
ENDROOT
BRANCH   1   2
HETATM    2  C           1     -21.208  -7.671  -4.258  0.00  0.00     0.249 C 
HETATM    3  N           1     -20.936  -7.357  -2.953  0.00  0.00    -0.345 N 
HETATM    4  H           1     -20.294  -6.605  -2.737  0.00  0.00     0.163 HD
HETATM    5  O           1     -21.974  -8.569  -4.516  0.00  0.00    -0.271 OA
BRANCH   3   6
HETATM    6  C           1     -21.570  -8.100  -1.882  0.00  0.00     0.185 C 
BRANCH   6   7
HETATM    7  C           1     -20.506  -8.829  -1.070  0.00  0.00     0.036 C 
BRANCH   7   8
HETATM    8  C           1     -20.153 -10.141  -1.758  0.00  0.00     0.003 C 
BRANCH   8   9
HETATM    9 Se           1     -19.999 -11.554  -0.423  0.00  0.00     0.000 Se
HETATM   10  C           1     -20.666 -10.464   1.047  0.00  0.00     0.000 C 
ENDBRANCH   8   9
ENDBRANCH   7   8
ENDBRANCH   6   7
BRANCH   6  11
HETATM   11  C           1     -22.319  -7.147  -0.984  0.00  0.00     0.196 C 
HETATM   12  O           1     -22.479  -5.956  -1.332  0.00  0.00    -0.646 OA
HETATM   13  O           1     -22.780  -7.546   0.107  0.00  0.00    -0.646 OA
ENDBRANCH   6  11
ENDBRANCH   3   6
ENDBRANCH   1   2
BRANCH   1  14
HETATM   14  C           1     -20.870  -5.417  -5.223  0.00  0.00     0.081 C 
BRANCH  14  15
HETATM   15  C           1     -21.291  -4.860  -6.548  0.00  0.00    -0.056 A 
HETATM   16  C           1     -22.643  -4.659  -6.821  0.00  0.00     0.010 A 
HETATM   17  C           1     -23.035  -4.139  -8.055  0.00  0.00     0.038 A 
HETATM   18  C           1     -22.075  -3.822  -9.016  0.00  0.00     0.081 A 
HETATM   19  C           1     -20.723  -4.025  -8.742  0.00  0.00     0.038 A 
HETATM   20  C           1     -20.330  -4.544  -7.509  0.00  0.00     0.010 A 
BRANCH  18  21
HETATM   21  O           1     -22.456  -3.319 -10.214  0.00  0.00    -0.247 OA
BRANCH  21  22
HETATM   22  P           1     -23.785  -3.924 -10.904  0.00  0.00     0.411 P 
HETATM   23  O           1     -23.741  -3.675 -12.362  0.00  0.00    -0.624 OA
HETATM   24  O           1     -23.852  -5.381 -10.652  0.00  0.00    -0.624 OA
BRANCH  22  25
HETATM   25  O           1     -25.090  -3.209 -10.276  0.00  0.00    -0.300 OA
HETATM   26  H           1     -25.289  -2.502 -10.866  0.00  0.00     0.223 HD
ENDBRANCH  22  25
ENDBRANCH  21  22
ENDBRANCH  18  21
ENDBRANCH  14  15
ENDBRANCH   1  14
BRANCH   1  27
HETATM   27  N           1     -21.064  -7.390  -6.694  0.00  0.00    -0.066 N 
HETATM   28  H           1     -20.629  -6.834  -7.466  0.00  0.00     0.275 HD
HETATM   29  H           1     -20.819  -8.398  -6.810  0.00  0.00     0.275 HD
HETATM   30  H           1     -22.102  -7.276  -6.726  0.00  0.00     0.275 HD
ENDBRANCH   1  27
TORSDOF 12
ENDMDL
