MODEL 1
REMARK VINA RESULT:      -5.8      0.000      0.000
REMARK  6 active torsions:
REMARK  status: ('A' for Active; 'I' for Inactive)
REMARK    1  A    between atoms: N_5  and  C_7 
REMARK       I    between atoms: N_5  and  C_16 
REMARK    2  A    between atoms: O_6  and  C_14 
REMARK    3  A    between atoms: C_7  and  C_14 
REMARK    4  A    between atoms: C_7  and  C_17 
REMARK    5  A    between atoms: C_8  and  C_16 
REMARK    6  A    between atoms: C_8  and  N_9 
ROOT
HETATM    1  N           1     -23.019  -2.202 -12.796  0.00  0.00    -0.343 N 
HETATM    2  O           1     -23.726  -3.484 -14.482  0.00  0.00    -0.272 OA
HETATM    3  H           1     -22.754  -1.280 -12.473  0.00  0.00     0.163 HD
HETATM    4  C           1     -23.410  -2.384 -14.096  0.00  0.00     0.243 C 
ENDROOT
BRANCH   1   5
HETATM    5  C           1     -22.985  -3.328 -11.884  0.00  0.00     0.214 C 
BRANCH   5   6
HETATM    6  C           1     -21.699  -3.282 -11.070  0.00  0.00     0.147 C 
HETATM    7  C           1     -21.080  -4.673 -11.020  0.00  0.00     0.042 C 
BRANCH   6   8
HETATM    8  O           1     -20.799  -2.391 -11.670  0.00  0.00    -0.393 OA
HETATM    9  H           1     -21.313  -1.740 -12.118  0.00  0.00     0.210 HD
ENDBRANCH   6   8
ENDBRANCH   5   6
BRANCH   5  10
HETATM   10  C           1     -24.172  -3.258 -10.955  0.00  0.00     0.199 C 
HETATM   11  O           1     -25.325  -3.132 -11.422  0.00  0.00    -0.646 OA
HETATM   12  O           1     -24.003  -3.324  -9.718  0.00  0.00    -0.646 OA
ENDBRANCH   5  10
ENDBRANCH   1   5
BRANCH   4  13
HETATM   13  C           1     -23.446  -1.212 -15.045  0.00  0.00     0.332 C 
BRANCH  13  14
HETATM   14  N           1     -24.623  -0.340 -14.720  0.00  0.00    -0.071 N 
HETATM   15  H           1     -25.087  -0.692 -13.852  0.00  0.00     0.274 HD
HETATM   16  H           1     -24.297   0.641 -14.566  0.00  0.00     0.274 HD
HETATM   17  H           1     -25.303  -0.362 -15.512  0.00  0.00     0.274 HD
ENDBRANCH  13  14
ENDBRANCH   4  13
TORSDOF 6
ENDMDL
MODEL 2
REMARK VINA RESULT:      -5.5      3.381      5.349
REMARK  6 active torsions:
REMARK  status: ('A' for Active; 'I' for Inactive)
REMARK    1  A    between atoms: N_5  and  C_7 
REMARK       I    between atoms: N_5  and  C_16 
REMARK    2  A    between atoms: O_6  and  C_14 
REMARK    3  A    between atoms: C_7  and  C_14 
REMARK    4  A    between atoms: C_7  and  C_17 
REMARK    5  A    between atoms: C_8  and  C_16 
REMARK    6  A    between atoms: C_8  and  N_9 
ROOT
HETATM    1  N           1     -22.189  -4.795  -9.089  0.00  0.00    -0.343 N 
HETATM    2  O           1     -21.739  -3.410  -7.396  0.00  0.00    -0.272 OA
HETATM    3  H           1     -22.210  -5.745  -9.437  0.00  0.00     0.163 HD
HETATM    4  C           1     -21.764  -4.544  -7.811  0.00  0.00     0.243 C 
ENDROOT
BRANCH   1   5
HETATM    5  C           1     -22.609  -3.700  -9.942  0.00  0.00     0.214 C 
BRANCH   5   6
HETATM    6  C           1     -21.806  -3.731 -11.236  0.00  0.00     0.147 C 
HETATM    7  C           1     -20.401  -4.242 -10.949  0.00  0.00     0.042 C 
BRANCH   6   8
HETATM    8  O           1     -22.435  -4.581 -12.156  0.00  0.00    -0.393 OA
HETATM    9  H           1     -23.293  -4.225 -12.318  0.00  0.00     0.210 HD
ENDBRANCH   6   8
ENDBRANCH   5   6
BRANCH   5  10
HETATM   10  C           1     -24.078  -3.844 -10.256  0.00  0.00     0.199 C 
HETATM   11  O           1     -24.698  -4.866  -9.892  0.00  0.00    -0.646 OA
HETATM   12  O           1     -24.675  -2.941 -10.882  0.00  0.00    -0.646 OA
ENDBRANCH   5  10
ENDBRANCH   1   5
BRANCH   4  13
HETATM   13  C           1     -21.327  -5.683  -6.923  0.00  0.00     0.332 C 
BRANCH  13  14
HETATM   14  N           1     -19.995  -6.196  -7.386  0.00  0.00    -0.071 N 
HETATM   15  H           1     -19.693  -6.984  -6.771  0.00  0.00     0.274 HD
HETATM   16  H           1     -20.077  -6.535  -8.371  0.00  0.00     0.274 HD
HETATM   17  H           1     -19.290  -5.427  -7.339  0.00  0.00     0.274 HD
ENDBRANCH  13  14
ENDBRANCH   4  13
TORSDOF 6
ENDMDL
MODEL 3
REMARK VINA RESULT:      -5.5     10.773     12.408
REMARK  6 active torsions:
REMARK  status: ('A' for Active; 'I' for Inactive)
REMARK    1  A    between atoms: N_5  and  C_7 
REMARK       I    between atoms: N_5  and  C_16 
REMARK    2  A    between atoms: O_6  and  C_14 
REMARK    3  A    between atoms: C_7  and  C_14 
REMARK    4  A    between atoms: C_7  and  C_17 
REMARK    5  A    between atoms: C_8  and  C_16 
REMARK    6  A    between atoms: C_8  and  N_9 
ROOT
HETATM    1  N           1     -34.763  -2.185 -12.090  0.00  0.00    -0.343 N 
HETATM    2  O           1     -33.252  -1.713 -10.515  0.00  0.00    -0.272 OA
HETATM    3  H           1     -35.224  -2.890 -12.652  0.00  0.00     0.163 HD
HETATM    4  C           1     -33.803  -2.554 -11.185  0.00  0.00     0.243 C 
ENDROOT
BRANCH   1   5
HETATM    5  C           1     -35.117  -0.788 -12.243  0.00  0.00     0.214 C 
BRANCH   5   6
HETATM    6  C           1     -35.493  -0.517 -13.694  0.00  0.00     0.147 C 
HETATM    7  C           1     -34.801   0.753 -14.169  0.00  0.00     0.042 C 
BRANCH   6   8
HETATM    8  O           1     -35.087  -1.597 -14.491  0.00  0.00    -0.393 OA
HETATM    9  H           1     -34.566  -1.241 -15.192  0.00  0.00     0.210 HD
ENDBRANCH   6   8
ENDBRANCH   5   6
BRANCH   5  10
HETATM   10  C           1     -36.290  -0.466 -11.350  0.00  0.00     0.199 C 
HETATM   11  O           1     -36.207   0.464 -10.520  0.00  0.00    -0.646 OA
HETATM   12  O           1     -37.344  -1.132 -11.440  0.00  0.00    -0.646 OA
ENDBRANCH   5  10
ENDBRANCH   1   5
BRANCH   4  13
HETATM   13  C           1     -33.435  -4.008 -11.025  0.00  0.00     0.332 C 
BRANCH  13  14
HETATM   14  N           1     -32.634  -4.455 -12.213  0.00  0.00    -0.071 N 
HETATM   15  H           1     -32.351  -3.621 -12.775  0.00  0.00     0.274 HD
HETATM   16  H           1     -31.780  -4.961 -11.886  0.00  0.00     0.274 HD
HETATM   17  H           1     -33.213  -5.093 -12.803  0.00  0.00     0.274 HD
ENDBRANCH  13  14
ENDBRANCH   4  13
TORSDOF 6
ENDMDL
MODEL 4
REMARK VINA RESULT:      -5.4     10.967     12.197
REMARK  6 active torsions:
REMARK  status: ('A' for Active; 'I' for Inactive)
REMARK    1  A    between atoms: N_5  and  C_7 
REMARK       I    between atoms: N_5  and  C_16 
REMARK    2  A    between atoms: O_6  and  C_14 
REMARK    3  A    between atoms: C_7  and  C_14 
REMARK    4  A    between atoms: C_7  and  C_17 
REMARK    5  A    between atoms: C_8  and  C_16 
REMARK    6  A    between atoms: C_8  and  N_9 
ROOT
HETATM    1  N           1     -34.767  -0.595 -12.244  0.00  0.00    -0.343 N 
HETATM    2  O           1     -36.099  -0.941 -14.002  0.00  0.00    -0.272 OA
HETATM    3  H           1     -34.039  -0.036 -11.816  0.00  0.00     0.163 HD
HETATM    4  C           1     -35.231  -0.274 -13.492  0.00  0.00     0.243 C 
ENDROOT
BRANCH   1   5
HETATM    5  C           1     -35.317  -1.735 -11.537  0.00  0.00     0.214 C 
BRANCH   5   6
HETATM    6  C           1     -34.198  -2.463 -10.802  0.00  0.00     0.147 C 
HETATM    7  C           1     -33.486  -3.403 -11.765  0.00  0.00     0.042 C 
BRANCH   6   8
HETATM    8  O           1     -33.284  -1.527 -10.299  0.00  0.00    -0.393 OA
HETATM    9  H           1     -32.423  -1.891 -10.421  0.00  0.00     0.210 HD
ENDBRANCH   6   8
ENDBRANCH   5   6
BRANCH   5  10
HETATM   10  C           1     -36.347  -1.259 -10.542  0.00  0.00     0.199 C 
HETATM   11  O           1     -37.564  -1.408 -10.784  0.00  0.00    -0.646 OA
HETATM   12  O           1     -35.983  -0.715  -9.477  0.00  0.00    -0.646 OA
ENDBRANCH   5  10
ENDBRANCH   1   5
BRANCH   4  13
HETATM   13  C           1     -34.658   0.913 -14.228  0.00  0.00     0.332 C 
BRANCH  13  14
HETATM   14  N           1     -35.718   1.517 -15.102  0.00  0.00    -0.071 N 
HETATM   15  H           1     -36.509   0.844 -15.205  0.00  0.00     0.274 HD
HETATM   16  H           1     -36.067   2.400 -14.664  0.00  0.00     0.274 HD
HETATM   17  H           1     -35.315   1.729 -16.041  0.00  0.00     0.274 HD
ENDBRANCH  13  14
ENDBRANCH   4  13
TORSDOF 6
ENDMDL
MODEL 5
REMARK VINA RESULT:      -5.4     11.153     12.228
REMARK  6 active torsions:
REMARK  status: ('A' for Active; 'I' for Inactive)
REMARK    1  A    between atoms: N_5  and  C_7 
REMARK       I    between atoms: N_5  and  C_16 
REMARK    2  A    between atoms: O_6  and  C_14 
REMARK    3  A    between atoms: C_7  and  C_14 
REMARK    4  A    between atoms: C_7  and  C_17 
REMARK    5  A    between atoms: C_8  and  C_16 
REMARK    6  A    between atoms: C_8  and  N_9 
ROOT
HETATM    1  N           1     -34.859  -1.170 -13.397  0.00  0.00    -0.343 N 
HETATM    2  O           1     -37.055  -0.789 -13.532  0.00  0.00    -0.272 OA
HETATM    3  H           1     -33.927  -0.935 -13.714  0.00  0.00     0.163 HD
HETATM    4  C           1     -35.942  -0.508 -13.910  0.00  0.00     0.243 C 
ENDROOT
BRANCH   1   5
HETATM    5  C           1     -35.047  -2.207 -12.401  0.00  0.00     0.214 C 
BRANCH   5   6
HETATM    6  C           1     -34.215  -3.427 -12.777  0.00  0.00     0.147 C 
HETATM    7  C           1     -34.791  -4.662 -12.097  0.00  0.00     0.042 C 
BRANCH   6   8
HETATM    8  O           1     -34.245  -3.602 -14.168  0.00  0.00    -0.393 OA
HETATM    9  H           1     -34.957  -3.078 -14.495  0.00  0.00     0.210 HD
ENDBRANCH   6   8
ENDBRANCH   5   6
BRANCH   5  10
HETATM   10  C           1     -34.606  -1.693 -11.052  0.00  0.00     0.199 C 
HETATM   11  O           1     -35.443  -1.193 -10.270  0.00  0.00    -0.646 OA
HETATM   12  O           1     -33.404  -1.766 -10.718  0.00  0.00    -0.646 OA
ENDBRANCH   5  10
ENDBRANCH   1   5
BRANCH   4  13
HETATM   13  C           1     -35.747   0.571 -14.946  0.00  0.00     0.332 C 
BRANCH  13  14
HETATM   14  N           1     -37.058   0.864 -15.616  0.00  0.00    -0.071 N 
HETATM   15  H           1     -37.279   1.881 -15.515  0.00  0.00     0.274 HD
HETATM   16  H           1     -36.991   0.621 -16.630  0.00  0.00     0.274 HD
HETATM   17  H           1     -37.812   0.297 -15.169  0.00  0.00     0.274 HD
ENDBRANCH  13  14
ENDBRANCH   4  13
TORSDOF 6
ENDMDL
MODEL 6
REMARK VINA RESULT:      -5.2      7.646      8.870
REMARK  6 active torsions:
REMARK  status: ('A' for Active; 'I' for Inactive)
REMARK    1  A    between atoms: N_5  and  C_7 
REMARK       I    between atoms: N_5  and  C_16 
REMARK    2  A    between atoms: O_6  and  C_14 
REMARK    3  A    between atoms: C_7  and  C_14 
REMARK    4  A    between atoms: C_7  and  C_17 
REMARK    5  A    between atoms: C_8  and  C_16 
REMARK    6  A    between atoms: C_8  and  N_9 
ROOT
HETATM    1  N           1     -27.791  -6.824 -17.883  0.00  0.00    -0.343 N 
HETATM    2  O           1     -28.418  -5.238 -19.324  0.00  0.00    -0.272 OA
HETATM    3  H           1     -27.129  -7.552 -17.643  0.00  0.00     0.163 HD
HETATM    4  C           1     -27.629  -6.106 -19.038  0.00  0.00     0.243 C 
ENDROOT
BRANCH   1   5
HETATM    5  C           1     -28.910  -6.542 -17.005  0.00  0.00     0.214 C 
BRANCH   5   6
HETATM    6  C           1     -29.967  -7.627 -17.167  0.00  0.00     0.147 C 
HETATM    7  C           1     -31.286  -6.990 -17.585  0.00  0.00     0.042 C 
BRANCH   6   8
HETATM    8  O           1     -29.555  -8.536 -18.151  0.00  0.00    -0.393 OA
HETATM    9  H           1     -29.155  -9.263 -17.702  0.00  0.00     0.210 HD
ENDBRANCH   6   8
ENDBRANCH   5   6
BRANCH   5  10
HETATM   10  C           1     -28.430  -6.516 -15.574  0.00  0.00     0.199 C 
HETATM   11  O           1     -28.606  -5.496 -14.874  0.00  0.00    -0.646 OA
HETATM   12  O           1     -27.856  -7.515 -15.089  0.00  0.00    -0.646 OA
ENDBRANCH   5  10
ENDBRANCH   1   5
BRANCH   4  13
HETATM   13  C           1     -26.464  -6.399 -19.952  0.00  0.00     0.332 C 
BRANCH  13  14
HETATM   14  N           1     -25.346  -7.009 -19.158  0.00  0.00    -0.071 N 
HETATM   15  H           1     -25.741  -7.514 -18.333  0.00  0.00     0.274 HD
HETATM   16  H           1     -24.821  -7.683 -19.760  0.00  0.00     0.274 HD
HETATM   17  H           1     -24.701  -6.256 -18.831  0.00  0.00     0.274 HD
ENDBRANCH  13  14
ENDBRANCH   4  13
TORSDOF 6
ENDMDL
MODEL 7
REMARK VINA RESULT:      -5.1     11.996     13.164
REMARK  6 active torsions:
REMARK  status: ('A' for Active; 'I' for Inactive)
REMARK    1  A    between atoms: N_5  and  C_7 
REMARK       I    between atoms: N_5  and  C_16 
REMARK    2  A    between atoms: O_6  and  C_14 
REMARK    3  A    between atoms: C_7  and  C_14 
REMARK    4  A    between atoms: C_7  and  C_17 
REMARK    5  A    between atoms: C_8  and  C_16 
REMARK    6  A    between atoms: C_8  and  N_9 
ROOT
HETATM    1  N           1     -36.278  -0.047 -13.250  0.00  0.00    -0.343 N 
HETATM    2  O           1     -34.446   0.678 -14.301  0.00  0.00    -0.272 OA
HETATM    3  H           1     -37.253  -0.314 -13.311  0.00  0.00     0.163 HD
HETATM    4  C           1     -35.610   0.359 -14.374  0.00  0.00     0.243 C 
ENDROOT
BRANCH   1   5
HETATM    5  C           1     -35.592  -0.094 -11.974  0.00  0.00     0.214 C 
BRANCH   5   6
HETATM    6  C           1     -36.584   0.193 -10.855  0.00  0.00     0.147 C 
HETATM    7  C           1     -37.991  -0.158 -11.321  0.00  0.00     0.042 C 
BRANCH   6   8
HETATM    8  O           1     -36.257  -0.579  -9.732  0.00  0.00    -0.393 OA
HETATM    9  H           1     -37.049  -1.011  -9.455  0.00  0.00     0.210 HD
ENDBRANCH   6   8
ENDBRANCH   5   6
BRANCH   5  10
HETATM   10  C           1     -34.992  -1.465 -11.777  0.00  0.00     0.199 C 
HETATM   11  O           1     -33.906  -1.591 -11.172  0.00  0.00    -0.646 OA
HETATM   12  O           1     -35.581  -2.474 -12.221  0.00  0.00    -0.646 OA
ENDBRANCH   5  10
ENDBRANCH   1   5
BRANCH   4  13
HETATM   13  C           1     -36.324   0.408 -15.702  0.00  0.00     0.332 C 
BRANCH  13  14
HETATM   14  N           1     -36.498   1.837 -16.125  0.00  0.00    -0.071 N 
HETATM   15  H           1     -35.729   2.101 -16.781  0.00  0.00     0.274 HD
HETATM   16  H           1     -37.419   1.947 -16.606  0.00  0.00     0.274 HD
HETATM   17  H           1     -36.466   2.455 -15.284  0.00  0.00     0.274 HD
ENDBRANCH  13  14
ENDBRANCH   4  13
TORSDOF 6
ENDMDL
MODEL 8
REMARK VINA RESULT:      -5.1      6.613      7.823
REMARK  6 active torsions:
REMARK  status: ('A' for Active; 'I' for Inactive)
REMARK    1  A    between atoms: N_5  and  C_7 
REMARK       I    between atoms: N_5  and  C_16 
REMARK    2  A    between atoms: O_6  and  C_14 
REMARK    3  A    between atoms: C_7  and  C_14 
REMARK    4  A    between atoms: C_7  and  C_17 
REMARK    5  A    between atoms: C_8  and  C_16 
REMARK    6  A    between atoms: C_8  and  N_9 
ROOT
HETATM    1  N           1     -26.677  -6.793 -17.823  0.00  0.00    -0.343 N 
HETATM    2  O           1     -28.125  -5.330 -18.689  0.00  0.00    -0.272 OA
HETATM    3  H           1     -26.035  -7.560 -17.979  0.00  0.00     0.163 HD
HETATM    4  C           1     -27.359  -6.246 -18.876  0.00  0.00     0.243 C 
ENDROOT
BRANCH   1   5
HETATM    5  C           1     -26.871  -6.272 -16.483  0.00  0.00     0.214 C 
BRANCH   5   6
HETATM    6  C           1     -27.987  -7.049 -15.796  0.00  0.00     0.147 C 
HETATM    7  C           1     -28.961  -6.072 -15.150  0.00  0.00     0.042 C 
BRANCH   6   8
HETATM    8  O           1     -28.665  -7.828 -16.742  0.00  0.00    -0.393 OA
HETATM    9  H           1     -28.297  -8.695 -16.699  0.00  0.00     0.210 HD
ENDBRANCH   6   8
ENDBRANCH   5   6
BRANCH   5  10
HETATM   10  C           1     -25.593  -6.423 -15.695  0.00  0.00     0.199 C 
HETATM   11  O           1     -24.953  -5.409 -15.343  0.00  0.00    -0.646 OA
HETATM   12  O           1     -25.173  -7.562 -15.397  0.00  0.00    -0.646 OA
ENDBRANCH   5  10
ENDBRANCH   1   5
BRANCH   4  13
HETATM   13  C           1     -27.157  -6.788 -20.270  0.00  0.00     0.332 C 
BRANCH  13  14
HETATM   14  N           1     -25.769  -7.345 -20.393  0.00  0.00    -0.071 N 
HETATM   15  H           1     -25.439  -7.667 -19.455  0.00  0.00     0.274 HD
HETATM   16  H           1     -25.777  -8.154 -21.056  0.00  0.00     0.274 HD
HETATM   17  H           1     -25.127  -6.605 -20.753  0.00  0.00     0.274 HD
ENDBRANCH  13  14
ENDBRANCH   4  13
TORSDOF 6
ENDMDL
MODEL 9
REMARK VINA RESULT:      -4.9      7.651      9.246
REMARK  6 active torsions:
REMARK  status: ('A' for Active; 'I' for Inactive)
REMARK    1  A    between atoms: N_5  and  C_7 
REMARK       I    between atoms: N_5  and  C_16 
REMARK    2  A    between atoms: O_6  and  C_14 
REMARK    3  A    between atoms: C_7  and  C_14 
REMARK    4  A    between atoms: C_7  and  C_17 
REMARK    5  A    between atoms: C_8  and  C_16 
REMARK    6  A    between atoms: C_8  and  N_9 
ROOT
HETATM    1  N           1     -27.790  -6.739 -17.008  0.00  0.00    -0.343 N 
HETATM    2  O           1     -27.664  -7.719 -15.006  0.00  0.00    -0.272 OA
HETATM    3  H           1     -27.335  -6.182 -17.721  0.00  0.00     0.163 HD
HETATM    4  C           1     -27.121  -7.055 -15.856  0.00  0.00     0.243 C 
ENDROOT
BRANCH   1   5
HETATM    5  C           1     -29.150  -7.202 -17.208  0.00  0.00     0.214 C 
BRANCH   5   6
HETATM    6  C           1     -30.117  -6.050 -16.966  0.00  0.00     0.147 C 
HETATM    7  C           1     -31.537  -6.508 -17.271  0.00  0.00     0.042 C 
BRANCH   6   8
HETATM    8  O           1     -30.034  -5.644 -15.627  0.00  0.00    -0.393 OA
HETATM    9  H           1     -29.778  -4.736 -15.631  0.00  0.00     0.210 HD
ENDBRANCH   6   8
ENDBRANCH   5   6
BRANCH   5  10
HETATM   10  C           1     -29.307  -7.704 -18.622  0.00  0.00     0.199 C 
HETATM   11  O           1     -28.646  -7.184 -19.547  0.00  0.00    -0.646 OA
HETATM   12  O           1     -30.099  -8.639 -18.869  0.00  0.00    -0.646 OA
ENDBRANCH   5  10
ENDBRANCH   1   5
BRANCH   4  13
HETATM   13  C           1     -25.706  -6.573 -15.649  0.00  0.00     0.332 C 
BRANCH  13  14
HETATM   14  N           1     -24.773  -7.379 -16.504  0.00  0.00    -0.071 N 
HETATM   15  H           1     -25.214  -7.549 -17.436  0.00  0.00     0.274 HD
HETATM   16  H           1     -23.879  -6.853 -16.633  0.00  0.00     0.274 HD
HETATM   17  H           1     -24.577  -8.294 -16.040  0.00  0.00     0.274 HD
ENDBRANCH  13  14
ENDBRANCH   4  13
TORSDOF 6
ENDMDL
