MODEL 1
REMARK VINA RESULT:      -8.5      0.000      0.000
REMARK  6 active torsions:
REMARK  status: ('A' for Active; 'I' for Inactive)
REMARK    1  A    between atoms: C_2  and  N_3 
REMARK    2  A    between atoms: N_3  and  C_4 
REMARK    3  A    between atoms: N_3  and  C_17 
REMARK    4  A    between atoms: C_4  and  C_5 
REMARK    5  A    between atoms: C_5  and  N_6 
REMARK       I    between atoms: N_6  and  C_7 
REMARK       I    between atoms: C_7  and  N_9 
REMARK    6  A    between atoms: N_9  and  C_10 
ROOT
HETATM    1  N   UNL     1     -22.258  -5.699  -5.344  1.00  0.00    -0.341 N 
HETATM    2  C   UNL     1     -21.818  -5.728  -6.648  1.00  0.00     0.320 C 
HETATM    3  O   UNL     1     -21.259  -6.717  -7.120  1.00  0.00    -0.247 OA
HETATM    4  N   UNL     1     -22.019  -4.544  -7.314  1.00  0.00    -0.308 N 
HETATM    5  H   UNL     1     -23.144  -5.218  -5.234  1.00  0.00     0.164 HD
HETATM    6  H   UNL     1     -21.929  -3.723  -6.726  1.00  0.00     0.170 HD
ENDROOT
BRANCH   1   7
HETATM    7  C   UNL     1     -22.057  -6.889  -4.514  1.00  0.00     0.144 C 
BRANCH   7   8
HETATM    8  C   UNL     1     -20.960  -6.729  -3.429  1.00  0.00     0.142 C 
BRANCH   8   9
HETATM    9  N   UNL     1     -20.782  -7.961  -2.630  1.00  0.00    -0.380 N 
BRANCH   9  10
HETATM   10  C   UNL     1     -19.612  -8.842  -2.806  1.00  0.00     0.118 C 
HETATM   11  C   UNL     1     -19.044  -9.054  -4.194  1.00  0.00     0.026 C 
ENDBRANCH   9  10
BRANCH   9  12
HETATM   12  C   UNL     1     -21.688  -8.303  -1.615  1.00  0.00     0.030 A 
HETATM   13  C   UNL     1     -22.128  -7.356  -0.666  1.00  0.00     0.029 A 
HETATM   14  C   UNL     1     -23.005  -7.674   0.374  1.00  0.00     0.003 A 
HETATM   15  C   UNL     1     -23.488  -8.971   0.502  1.00  0.00     0.007 A 
HETATM   16  C   UNL     1     -23.103  -9.939  -0.423  1.00  0.00    -0.060 A 
HETATM   17  C   UNL     1     -23.617 -11.344  -0.317  1.00  0.00     0.048 C 
HETATM   18  C   UNL     1     -22.214  -9.597  -1.461  1.00  0.00     0.036 A 
ENDBRANCH   9  12
ENDBRANCH   8   9
ENDBRANCH   7   8
ENDBRANCH   1   7
BRANCH   4  19
HETATM   19  C   UNL     1     -21.566  -4.396  -8.651  1.00  0.00     0.053 A 
HETATM   20  C   UNL     1     -20.215  -4.605  -8.959  1.00  0.00     0.031 A 
HETATM   21  C   UNL     1     -19.750  -4.444 -10.266  1.00  0.00     0.002 A 
HETATM   22  C   UNL     1     -20.630  -4.068 -11.278  1.00  0.00     0.002 A 
HETATM   23  C   UNL     1     -21.977  -3.851 -10.984  1.00  0.00     0.021 A 
HETATM   24  C   UNL     1     -22.447  -4.023  -9.678  1.00  0.00     0.037 A 
HETATM   25 BR   UNL     1     -24.265  -3.604  -9.318  1.00  0.00    -0.049 Br
ENDBRANCH   4  19
TORSDOF 6
ENDMDL
MODEL 2
REMARK VINA RESULT:      -8.3      1.401      1.717
REMARK  6 active torsions:
REMARK  status: ('A' for Active; 'I' for Inactive)
REMARK    1  A    between atoms: C_2  and  N_3 
REMARK    2  A    between atoms: N_3  and  C_4 
REMARK    3  A    between atoms: N_3  and  C_17 
REMARK    4  A    between atoms: C_4  and  C_5 
REMARK    5  A    between atoms: C_5  and  N_6 
REMARK       I    between atoms: N_6  and  C_7 
REMARK       I    between atoms: C_7  and  N_9 
REMARK    6  A    between atoms: N_9  and  C_10 
ROOT
HETATM    1  N   UNL     1     -21.925  -6.111  -4.789  1.00  0.00    -0.341 N 
HETATM    2  C   UNL     1     -21.743  -6.015  -6.150  1.00  0.00     0.320 C 
HETATM    3  O   UNL     1     -21.426  -6.990  -6.829  1.00  0.00    -0.247 OA
HETATM    4  N   UNL     1     -21.894  -4.737  -6.628  1.00  0.00    -0.308 N 
HETATM    5  H   UNL     1     -22.699  -5.548  -4.451  1.00  0.00     0.164 HD
HETATM    6  H   UNL     1     -21.581  -4.019  -5.984  1.00  0.00     0.170 HD
ENDROOT
BRANCH   1   7
HETATM    7  C   UNL     1     -21.745  -7.417  -4.151  1.00  0.00     0.144 C 
BRANCH   7   8
HETATM    8  C   UNL     1     -20.340  -7.633  -3.529  1.00  0.00     0.142 C 
BRANCH   8   9
HETATM    9  N   UNL     1     -20.348  -8.674  -2.479  1.00  0.00    -0.380 N 
BRANCH   9  10
HETATM   10  C   UNL     1     -19.245  -9.643  -2.334  1.00  0.00     0.118 C 
HETATM   11  C   UNL     1     -18.002  -9.486  -3.184  1.00  0.00     0.026 C 
ENDBRANCH   9  10
BRANCH   9  12
HETATM   12  C   UNL     1     -21.377  -8.735  -1.527  1.00  0.00     0.030 A 
HETATM   13  C   UNL     1     -21.676  -7.639  -0.690  1.00  0.00     0.029 A 
HETATM   14  C   UNL     1     -22.673  -7.680   0.287  1.00  0.00     0.003 A 
HETATM   15  C   UNL     1     -23.426  -8.835   0.463  1.00  0.00     0.007 A 
HETATM   16  C   UNL     1     -23.186  -9.938  -0.353  1.00  0.00    -0.060 A 
HETATM   17  C   UNL     1     -23.989 -11.195  -0.194  1.00  0.00     0.048 C 
HETATM   18  C   UNL     1     -22.172  -9.876  -1.330  1.00  0.00     0.036 A 
ENDBRANCH   9  12
ENDBRANCH   8   9
ENDBRANCH   7   8
ENDBRANCH   1   7
BRANCH   4  19
HETATM   19  C   UNL     1     -21.679  -4.464  -8.005  1.00  0.00     0.053 A 
HETATM   20  C   UNL     1     -22.767  -4.425  -8.888  1.00  0.00     0.031 A 
HETATM   21  C   UNL     1     -22.571  -4.178 -10.248  1.00  0.00     0.002 A 
HETATM   22  C   UNL     1     -21.284  -3.972 -10.740  1.00  0.00     0.002 A 
HETATM   23  C   UNL     1     -20.191  -4.014  -9.873  1.00  0.00     0.021 A 
HETATM   24  C   UNL     1     -20.388  -4.251  -8.508  1.00  0.00     0.037 A 
HETATM   25 BR   UNL     1     -18.854  -4.408  -7.398  1.00  0.00    -0.049 Br
ENDBRANCH   4  19
TORSDOF 6
ENDMDL
MODEL 3
REMARK VINA RESULT:      -7.9      1.642      2.151
REMARK  6 active torsions:
REMARK  status: ('A' for Active; 'I' for Inactive)
REMARK    1  A    between atoms: C_2  and  N_3 
REMARK    2  A    between atoms: N_3  and  C_4 
REMARK    3  A    between atoms: N_3  and  C_17 
REMARK    4  A    between atoms: C_4  and  C_5 
REMARK    5  A    between atoms: C_5  and  N_6 
REMARK       I    between atoms: N_6  and  C_7 
REMARK       I    between atoms: C_7  and  N_9 
REMARK    6  A    between atoms: N_9  and  C_10 
ROOT
HETATM    1  N   UNL     1     -20.983  -4.701  -5.956  1.00  0.00    -0.341 N 
HETATM    2  C   UNL     1     -21.695  -4.851  -7.125  1.00  0.00     0.320 C 
HETATM    3  O   UNL     1     -21.996  -5.961  -7.560  1.00  0.00    -0.247 OA
HETATM    4  N   UNL     1     -21.963  -3.659  -7.752  1.00  0.00    -0.308 N 
HETATM    5  H   UNL     1     -21.296  -3.912  -5.399  1.00  0.00     0.164 HD
HETATM    6  H   UNL     1     -21.232  -2.965  -7.643  1.00  0.00     0.170 HD
ENDROOT
BRANCH   1   7
HETATM    7  C   UNL     1     -20.595  -5.904  -5.217  1.00  0.00     0.144 C 
BRANCH   7   8
HETATM    8  C   UNL     1     -21.708  -6.474  -4.299  1.00  0.00     0.142 C 
BRANCH   8   9
HETATM    9  N   UNL     1     -21.290  -7.720  -3.622  1.00  0.00    -0.380 N 
BRANCH   9  10
HETATM   10  C   UNL     1     -20.513  -8.763  -4.320  1.00  0.00     0.118 C 
HETATM   11  C   UNL     1     -19.037  -8.915  -4.020  1.00  0.00     0.026 C 
ENDBRANCH   9  10
BRANCH   9  12
HETATM   12  C   UNL     1     -21.553  -7.929  -2.260  1.00  0.00     0.030 A 
HETATM   13  C   UNL     1     -22.128  -6.922  -1.455  1.00  0.00     0.029 A 
HETATM   14  C   UNL     1     -22.373  -7.089  -0.090  1.00  0.00     0.003 A 
HETATM   15  C   UNL     1     -22.053  -8.291   0.530  1.00  0.00     0.007 A 
HETATM   16  C   UNL     1     -21.504  -9.326  -0.224  1.00  0.00    -0.060 A 
HETATM   17  C   UNL     1     -21.159 -10.638   0.415  1.00  0.00     0.048 C 
HETATM   18  C   UNL     1     -21.261  -9.134  -1.599  1.00  0.00     0.036 A 
ENDBRANCH   9  12
ENDBRANCH   8   9
ENDBRANCH   7   8
ENDBRANCH   1   7
BRANCH   4  19
HETATM   19  C   UNL     1     -22.639  -3.651  -9.000  1.00  0.00     0.053 A 
HETATM   20  C   UNL     1     -24.035  -3.532  -9.039  1.00  0.00     0.031 A 
HETATM   21  C   UNL     1     -24.716  -3.543 -10.259  1.00  0.00     0.002 A 
HETATM   22  C   UNL     1     -24.009  -3.676 -11.451  1.00  0.00     0.002 A 
HETATM   23  C   UNL     1     -22.619  -3.801 -11.427  1.00  0.00     0.021 A 
HETATM   24  C   UNL     1     -21.934  -3.780 -10.207  1.00  0.00     0.037 A 
HETATM   25 BR   UNL     1     -20.056  -4.066 -10.230  1.00  0.00    -0.049 Br
ENDBRANCH   4  19
TORSDOF 6
ENDMDL
MODEL 4
REMARK VINA RESULT:      -7.8      1.170      2.895
REMARK  6 active torsions:
REMARK  status: ('A' for Active; 'I' for Inactive)
REMARK    1  A    between atoms: C_2  and  N_3 
REMARK    2  A    between atoms: N_3  and  C_4 
REMARK    3  A    between atoms: N_3  and  C_17 
REMARK    4  A    between atoms: C_4  and  C_5 
REMARK    5  A    between atoms: C_5  and  N_6 
REMARK       I    between atoms: N_6  and  C_7 
REMARK       I    between atoms: C_7  and  N_9 
REMARK    6  A    between atoms: N_9  and  C_10 
ROOT
HETATM    1  N   UNL     1     -22.010  -5.462  -5.282  1.00  0.00    -0.341 N 
HETATM    2  C   UNL     1     -21.646  -5.570  -6.605  1.00  0.00     0.320 C 
HETATM    3  O   UNL     1     -21.104  -6.582  -7.045  1.00  0.00    -0.247 OA
HETATM    4  N   UNL     1     -21.897  -4.431  -7.331  1.00  0.00    -0.308 N 
HETATM    5  H   UNL     1     -22.894  -4.981  -5.152  1.00  0.00     0.164 HD
HETATM    6  H   UNL     1     -21.782  -3.575  -6.801  1.00  0.00     0.170 HD
ENDROOT
BRANCH   1   7
HETATM    7  C   UNL     1     -21.751  -6.596  -4.392  1.00  0.00     0.144 C 
BRANCH   7   8
HETATM    8  C   UNL     1     -21.519  -6.200  -2.910  1.00  0.00     0.142 C 
BRANCH   8   9
HETATM    9  N   UNL     1     -21.597  -7.365  -2.003  1.00  0.00    -0.380 N 
BRANCH   9  10
HETATM   10  C   UNL     1     -22.422  -7.347  -0.779  1.00  0.00     0.118 C 
HETATM   11  C   UNL     1     -21.862  -7.928   0.502  1.00  0.00     0.026 C 
ENDBRANCH   9  10
BRANCH   9  12
HETATM   12  C   UNL     1     -20.945  -8.569  -2.311  1.00  0.00     0.030 A 
HETATM   13  C   UNL     1     -21.662  -9.763  -2.536  1.00  0.00     0.029 A 
HETATM   14  C   UNL     1     -21.040 -10.982  -2.813  1.00  0.00     0.003 A 
HETATM   15  C   UNL     1     -19.654 -11.052  -2.884  1.00  0.00     0.007 A 
HETATM   16  C   UNL     1     -18.899  -9.897  -2.693  1.00  0.00    -0.060 A 
HETATM   17  C   UNL     1     -17.401  -9.941  -2.774  1.00  0.00     0.048 C 
HETATM   18  C   UNL     1     -19.547  -8.679  -2.410  1.00  0.00     0.036 A 
ENDBRANCH   9  12
ENDBRANCH   8   9
ENDBRANCH   7   8
ENDBRANCH   1   7
BRANCH   4  19
HETATM   19  C   UNL     1     -21.522  -4.365  -8.698  1.00  0.00     0.053 A 
HETATM   20  C   UNL     1     -20.191  -4.593  -9.071  1.00  0.00     0.031 A 
HETATM   21  C   UNL     1     -19.803  -4.512 -10.410  1.00  0.00     0.002 A 
HETATM   22  C   UNL     1     -20.741  -4.197 -11.390  1.00  0.00     0.002 A 
HETATM   23  C   UNL     1     -22.069  -3.961 -11.032  1.00  0.00     0.021 A 
HETATM   24  C   UNL     1     -22.462  -4.053  -9.693  1.00  0.00     0.037 A 
HETATM   25 BR   UNL     1     -24.258  -3.612  -9.254  1.00  0.00    -0.049 Br
ENDBRANCH   4  19
TORSDOF 6
ENDMDL
MODEL 5
REMARK VINA RESULT:      -7.8      2.918      9.256
REMARK  6 active torsions:
REMARK  status: ('A' for Active; 'I' for Inactive)
REMARK    1  A    between atoms: C_2  and  N_3 
REMARK    2  A    between atoms: N_3  and  C_4 
REMARK    3  A    between atoms: N_3  and  C_17 
REMARK    4  A    between atoms: C_4  and  C_5 
REMARK    5  A    between atoms: C_5  and  N_6 
REMARK       I    between atoms: N_6  and  C_7 
REMARK       I    between atoms: C_7  and  N_9 
REMARK    6  A    between atoms: N_9  and  C_10 
ROOT
HETATM    1  N   UNL     1     -21.721  -7.091  -4.838  1.00  0.00    -0.341 N 
HETATM    2  C   UNL     1     -21.569  -7.067  -3.470  1.00  0.00     0.320 C 
HETATM    3  O   UNL     1     -21.091  -6.094  -2.890  1.00  0.00    -0.247 OA
HETATM    4  N   UNL     1     -21.947  -8.240  -2.863  1.00  0.00    -0.308 N 
HETATM    5  H   UNL     1     -22.580  -7.544  -5.134  1.00  0.00     0.164 HD
HETATM    6  H   UNL     1     -21.760  -9.067  -3.418  1.00  0.00     0.170 HD
ENDROOT
BRANCH   1   7
HETATM    7  C   UNL     1     -21.309  -5.914  -5.606  1.00  0.00     0.144 C 
BRANCH   7   8
HETATM    8  C   UNL     1     -22.422  -5.325  -6.513  1.00  0.00     0.142 C 
BRANCH   8   9
HETATM    9  N   UNL     1     -21.891  -4.340  -7.480  1.00  0.00    -0.380 N 
BRANCH   9  10
HETATM   10  C   UNL     1     -20.558  -3.728  -7.316  1.00  0.00     0.118 C 
HETATM   11  C   UNL     1     -19.346  -4.423  -7.899  1.00  0.00     0.026 C 
ENDBRANCH   9  10
BRANCH   9  12
HETATM   12  C   UNL     1     -22.608  -4.002  -8.638  1.00  0.00     0.030 A 
HETATM   13  C   UNL     1     -24.007  -3.823  -8.615  1.00  0.00     0.029 A 
HETATM   14  C   UNL     1     -24.752  -3.516  -9.756  1.00  0.00     0.003 A 
HETATM   15  C   UNL     1     -24.113  -3.369 -10.982  1.00  0.00     0.007 A 
HETATM   16  C   UNL     1     -22.729  -3.513 -11.055  1.00  0.00    -0.060 A 
HETATM   17  C   UNL     1     -22.012  -3.349 -12.362  1.00  0.00     0.048 C 
HETATM   18  C   UNL     1     -21.999  -3.826  -9.892  1.00  0.00     0.036 A 
ENDBRANCH   9  12
ENDBRANCH   8   9
ENDBRANCH   7   8
ENDBRANCH   1   7
BRANCH   4  19
HETATM   19  C   UNL     1     -21.794  -8.393  -1.460  1.00  0.00     0.053 A 
HETATM   20  C   UNL     1     -22.499  -7.556  -0.584  1.00  0.00     0.031 A 
HETATM   21  C   UNL     1     -22.344  -7.680   0.799  1.00  0.00     0.002 A 
HETATM   22  C   UNL     1     -21.481  -8.641   1.319  1.00  0.00     0.002 A 
HETATM   23  C   UNL     1     -20.769  -9.478   0.459  1.00  0.00     0.021 A 
HETATM   24  C   UNL     1     -20.931  -9.361  -0.926  1.00  0.00     0.037 A 
HETATM   25 BR   UNL     1     -19.852 -10.451  -2.048  1.00  0.00    -0.049 Br
ENDBRANCH   4  19
TORSDOF 6
ENDMDL
MODEL 6
REMARK VINA RESULT:      -7.4      1.978      3.338
REMARK  6 active torsions:
REMARK  status: ('A' for Active; 'I' for Inactive)
REMARK    1  A    between atoms: C_2  and  N_3 
REMARK    2  A    between atoms: N_3  and  C_4 
REMARK    3  A    between atoms: N_3  and  C_17 
REMARK    4  A    between atoms: C_4  and  C_5 
REMARK    5  A    between atoms: C_5  and  N_6 
REMARK       I    between atoms: N_6  and  C_7 
REMARK       I    between atoms: C_7  and  N_9 
REMARK    6  A    between atoms: N_9  and  C_10 
ROOT
HETATM    1  N   UNL     1     -21.933  -6.034  -4.785  1.00  0.00    -0.341 N 
HETATM    2  C   UNL     1     -21.738  -6.012  -6.148  1.00  0.00     0.320 C 
HETATM    3  O   UNL     1     -21.349  -7.004  -6.761  1.00  0.00    -0.247 OA
HETATM    4  N   UNL     1     -21.965  -4.778  -6.707  1.00  0.00    -0.308 N 
HETATM    5  H   UNL     1     -22.747  -5.503  -4.492  1.00  0.00     0.164 HD
HETATM    6  H   UNL     1     -21.708  -4.003  -6.106  1.00  0.00     0.170 HD
ENDROOT
BRANCH   1   7
HETATM    7  C   UNL     1     -21.679  -7.284  -4.065  1.00  0.00     0.144 C 
BRANCH   7   8
HETATM    8  C   UNL     1     -21.069  -7.090  -2.651  1.00  0.00     0.142 C 
BRANCH   8   9
HETATM    9  N   UNL     1     -21.116  -8.330  -1.848  1.00  0.00    -0.380 N 
BRANCH   9  10
HETATM   10  C   UNL     1     -22.290  -8.681  -1.026  1.00  0.00     0.118 C 
HETATM   11  C   UNL     1     -22.536  -7.942   0.273  1.00  0.00     0.026 C 
ENDBRANCH   9  10
BRANCH   9  12
HETATM   12  C   UNL     1     -20.070  -9.264  -1.894  1.00  0.00     0.030 A 
HETATM   13  C   UNL     1     -18.925  -9.052  -2.690  1.00  0.00     0.029 A 
HETATM   14  C   UNL     1     -17.882  -9.977  -2.781  1.00  0.00     0.003 A 
HETATM   15  C   UNL     1     -17.943 -11.165  -2.061  1.00  0.00     0.007 A 
HETATM   16  C   UNL     1     -19.042 -11.412  -1.241  1.00  0.00    -0.060 A 
HETATM   17  C   UNL     1     -19.132 -12.680  -0.445  1.00  0.00     0.048 C 
HETATM   18  C   UNL     1     -20.085 -10.467  -1.169  1.00  0.00     0.036 A 
ENDBRANCH   9  12
ENDBRANCH   8   9
ENDBRANCH   7   8
ENDBRANCH   1   7
BRANCH   4  19
HETATM   19  C   UNL     1     -21.749  -4.578  -8.095  1.00  0.00     0.053 A 
HETATM   20  C   UNL     1     -22.828  -4.639  -8.987  1.00  0.00     0.031 A 
HETATM   21  C   UNL     1     -22.629  -4.465 -10.359  1.00  0.00     0.002 A 
HETATM   22  C   UNL     1     -21.348  -4.232 -10.853  1.00  0.00     0.002 A 
HETATM   23  C   UNL     1     -20.263  -4.173  -9.977  1.00  0.00     0.021 A 
HETATM   24  C   UNL     1     -20.463  -4.337  -8.602  1.00  0.00     0.037 A 
HETATM   25 BR   UNL     1     -18.934  -4.360  -7.472  1.00  0.00    -0.049 Br
ENDBRANCH   4  19
TORSDOF 6
ENDMDL
MODEL 7
REMARK VINA RESULT:      -7.3      2.123      3.809
REMARK  6 active torsions:
REMARK  status: ('A' for Active; 'I' for Inactive)
REMARK    1  A    between atoms: C_2  and  N_3 
REMARK    2  A    between atoms: N_3  and  C_4 
REMARK    3  A    between atoms: N_3  and  C_17 
REMARK    4  A    between atoms: C_4  and  C_5 
REMARK    5  A    between atoms: C_5  and  N_6 
REMARK       I    between atoms: N_6  and  C_7 
REMARK       I    between atoms: C_7  and  N_9 
REMARK    6  A    between atoms: N_9  and  C_10 
ROOT
HETATM    1  N   UNL     1     -20.929  -4.578  -6.043  1.00  0.00    -0.341 N 
HETATM    2  C   UNL     1     -21.636  -4.764  -7.209  1.00  0.00     0.320 C 
HETATM    3  O   UNL     1     -21.881  -5.888  -7.644  1.00  0.00    -0.247 OA
HETATM    4  N   UNL     1     -21.969  -3.587  -7.834  1.00  0.00    -0.308 N 
HETATM    5  H   UNL     1     -21.281  -3.807  -5.484  1.00  0.00     0.164 HD
HETATM    6  H   UNL     1     -21.275  -2.856  -7.727  1.00  0.00     0.170 HD
ENDROOT
BRANCH   1   7
HETATM    7  C   UNL     1     -20.475  -5.759  -5.306  1.00  0.00     0.144 C 
BRANCH   7   8
HETATM    8  C   UNL     1     -21.525  -6.337  -4.321  1.00  0.00     0.142 C 
BRANCH   8   9
HETATM    9  N   UNL     1     -20.958  -7.394  -3.457  1.00  0.00    -0.380 N 
BRANCH   9  10
HETATM   10  C   UNL     1     -20.995  -7.301  -1.985  1.00  0.00     0.118 C 
HETATM   11  C   UNL     1     -22.261  -6.828  -1.303  1.00  0.00     0.026 C 
ENDBRANCH   9  10
BRANCH   9  12
HETATM   12  C   UNL     1     -20.424  -8.570  -4.006  1.00  0.00     0.030 A 
HETATM   13  C   UNL     1     -19.104  -8.983  -3.728  1.00  0.00     0.029 A 
HETATM   14  C   UNL     1     -18.534 -10.131  -4.283  1.00  0.00     0.003 A 
HETATM   15  C   UNL     1     -19.279 -10.926  -5.147  1.00  0.00     0.007 A 
HETATM   16  C   UNL     1     -20.595 -10.576  -5.437  1.00  0.00    -0.060 A 
HETATM   17  C   UNL     1     -21.426 -11.420  -6.357  1.00  0.00     0.048 C 
HETATM   18  C   UNL     1     -21.148  -9.410  -4.869  1.00  0.00     0.036 A 
ENDBRANCH   9  12
ENDBRANCH   8   9
ENDBRANCH   7   8
ENDBRANCH   1   7
BRANCH   4  19
HETATM   19  C   UNL     1     -22.649  -3.614  -9.080  1.00  0.00     0.053 A 
HETATM   20  C   UNL     1     -24.042  -3.464  -9.120  1.00  0.00     0.031 A 
HETATM   21  C   UNL     1     -24.728  -3.508 -10.336  1.00  0.00     0.002 A 
HETATM   22  C   UNL     1     -24.028  -3.706 -11.524  1.00  0.00     0.002 A 
HETATM   23  C   UNL     1     -22.641  -3.861 -11.498  1.00  0.00     0.021 A 
HETATM   24  C   UNL     1     -21.952  -3.807 -10.282  1.00  0.00     0.037 A 
HETATM   25 BR   UNL     1     -20.081  -4.137 -10.299  1.00  0.00    -0.049 Br
ENDBRANCH   4  19
TORSDOF 6
ENDMDL
MODEL 8
REMARK VINA RESULT:      -7.3      5.379      9.328
REMARK  6 active torsions:
REMARK  status: ('A' for Active; 'I' for Inactive)
REMARK    1  A    between atoms: C_2  and  N_3 
REMARK    2  A    between atoms: N_3  and  C_4 
REMARK    3  A    between atoms: N_3  and  C_17 
REMARK    4  A    between atoms: C_4  and  C_5 
REMARK    5  A    between atoms: C_5  and  N_6 
REMARK       I    between atoms: N_6  and  C_7 
REMARK       I    between atoms: C_7  and  N_9 
REMARK    6  A    between atoms: N_9  and  C_10 
ROOT
HETATM    1  N   UNL     1     -19.457 -11.784  -1.982  1.00  0.00    -0.341 N 
HETATM    2  C   UNL     1     -20.061 -12.061  -0.776  1.00  0.00     0.320 C 
HETATM    3  O   UNL     1     -19.805 -11.415   0.239  1.00  0.00    -0.247 OA
HETATM    4  N   UNL     1     -20.905 -13.144  -0.830  1.00  0.00    -0.308 N 
HETATM    5  H   UNL     1     -20.086 -11.877  -2.772  1.00  0.00     0.164 HD
HETATM    6  H   UNL     1     -20.599 -13.870  -1.467  1.00  0.00     0.170 HD
ENDROOT
BRANCH   1   7
HETATM    7  C   UNL     1     -18.497 -10.679  -2.043  1.00  0.00     0.144 C 
BRANCH   7   8
HETATM    8  C   UNL     1     -18.757  -9.675  -3.197  1.00  0.00     0.142 C 
BRANCH   8   9
HETATM    9  N   UNL     1     -20.199  -9.456  -3.433  1.00  0.00    -0.380 N 
BRANCH   9  10
HETATM   10  C   UNL     1     -20.969 -10.285  -4.381  1.00  0.00     0.118 C 
HETATM   11  C   UNL     1     -22.291 -10.879  -3.944  1.00  0.00     0.026 C 
ENDBRANCH   9  10
BRANCH   9  12
HETATM   12  C   UNL     1     -20.915  -8.493  -2.705  1.00  0.00     0.030 A 
HETATM   13  C   UNL     1     -21.164  -7.206  -3.226  1.00  0.00     0.029 A 
HETATM   14  C   UNL     1     -21.846  -6.217  -2.514  1.00  0.00     0.003 A 
HETATM   15  C   UNL     1     -22.318  -6.485  -1.234  1.00  0.00     0.007 A 
HETATM   16  C   UNL     1     -22.119  -7.748  -0.682  1.00  0.00    -0.060 A 
HETATM   17  C   UNL     1     -22.627  -8.070   0.692  1.00  0.00     0.048 C 
HETATM   18  C   UNL     1     -21.424  -8.729  -1.417  1.00  0.00     0.036 A 
ENDBRANCH   9  12
ENDBRANCH   8   9
ENDBRANCH   7   8
ENDBRANCH   1   7
BRANCH   4  19
HETATM   19  C   UNL     1     -21.558 -13.592   0.348  1.00  0.00     0.053 A 
HETATM   20  C   UNL     1     -20.971 -14.591   1.136  1.00  0.00     0.031 A 
HETATM   21  C   UNL     1     -21.611 -15.058   2.286  1.00  0.00     0.002 A 
HETATM   22  C   UNL     1     -22.847 -14.533   2.658  1.00  0.00     0.002 A 
HETATM   23  C   UNL     1     -23.445 -13.542   1.879  1.00  0.00     0.021 A 
HETATM   24  C   UNL     1     -22.800 -13.066   0.733  1.00  0.00     0.037 A 
HETATM   25 BR   UNL     1     -23.716 -11.798  -0.347  1.00  0.00    -0.049 Br
ENDBRANCH   4  19
TORSDOF 6
ENDMDL
MODEL 9
REMARK VINA RESULT:      -7.3      1.327      2.144
REMARK  6 active torsions:
REMARK  status: ('A' for Active; 'I' for Inactive)
REMARK    1  A    between atoms: C_2  and  N_3 
REMARK    2  A    between atoms: N_3  and  C_4 
REMARK    3  A    between atoms: N_3  and  C_17 
REMARK    4  A    between atoms: C_4  and  C_5 
REMARK    5  A    between atoms: C_5  and  N_6 
REMARK       I    between atoms: N_6  and  C_7 
REMARK       I    between atoms: C_7  and  N_9 
REMARK    6  A    between atoms: N_9  and  C_10 
ROOT
HETATM    1  N   UNL     1     -21.847  -5.586  -5.444  1.00  0.00    -0.341 N 
HETATM    2  C   UNL     1     -21.494  -5.595  -6.775  1.00  0.00     0.320 C 
HETATM    3  O   UNL     1     -20.726  -6.439  -7.234  1.00  0.00    -0.247 OA
HETATM    4  N   UNL     1     -22.034  -4.551  -7.485  1.00  0.00    -0.308 N 
HETATM    5  H   UNL     1     -22.820  -5.341  -5.293  1.00  0.00     0.164 HD
HETATM    6  H   UNL     1     -22.125  -3.695  -6.950  1.00  0.00     0.170 HD
ENDROOT
BRANCH   1   7
HETATM    7  C   UNL     1     -21.296  -6.623  -4.569  1.00  0.00     0.144 C 
BRANCH   7   8
HETATM    8  C   UNL     1     -21.983  -8.007  -4.712  1.00  0.00     0.142 C 
BRANCH   8   9
HETATM    9  N   UNL     1     -21.177  -9.094  -4.118  1.00  0.00    -0.380 N 
BRANCH   9  10
HETATM   10  C   UNL     1     -19.702  -9.093  -4.178  1.00  0.00     0.118 C 
HETATM   11  C   UNL     1     -18.908  -9.152  -2.890  1.00  0.00     0.026 C 
ENDBRANCH   9  10
BRANCH   9  12
HETATM   12  C   UNL     1     -21.783 -10.140  -3.405  1.00  0.00     0.030 A 
HETATM   13  C   UNL     1     -21.830 -11.454  -3.917  1.00  0.00     0.029 A 
HETATM   14  C   UNL     1     -22.453 -12.508  -3.245  1.00  0.00     0.003 A 
HETATM   15  C   UNL     1     -23.056 -12.286  -2.013  1.00  0.00     0.007 A 
HETATM   16  C   UNL     1     -23.018 -11.011  -1.452  1.00  0.00    -0.060 A 
HETATM   17  C   UNL     1     -23.651 -10.743  -0.119  1.00  0.00     0.048 C 
HETATM   18  C   UNL     1     -22.388  -9.961  -2.149  1.00  0.00     0.036 A 
ENDBRANCH   9  12
ENDBRANCH   8   9
ENDBRANCH   7   8
ENDBRANCH   1   7
BRANCH   4  19
HETATM   19  C   UNL     1     -21.716  -4.388  -8.859  1.00  0.00     0.053 A 
HETATM   20  C   UNL     1     -20.388  -4.515  -9.289  1.00  0.00     0.031 A 
HETATM   21  C   UNL     1     -20.055  -4.338 -10.634  1.00  0.00     0.002 A 
HETATM   22  C   UNL     1     -21.046  -4.028 -11.562  1.00  0.00     0.002 A 
HETATM   23  C   UNL     1     -22.372  -3.893 -11.147  1.00  0.00     0.021 A 
HETATM   24  C   UNL     1     -22.708  -4.081  -9.802  1.00  0.00     0.037 A 
HETATM   25 BR   UNL     1     -24.509  -3.774  -9.278  1.00  0.00    -0.049 Br
ENDBRANCH   4  19
TORSDOF 6
ENDMDL
