REMARK  6 active torsions:
REMARK  status: ('A' for Active; 'I' for Inactive)
REMARK    1  A    between atoms: C_2  and  N_3 
REMARK    2  A    between atoms: N_3  and  C_4 
REMARK    3  A    between atoms: N_3  and  C_17 
REMARK    4  A    between atoms: C_4  and  C_5 
REMARK    5  A    between atoms: C_5  and  N_6 
REMARK       I    between atoms: N_6  and  C_7 
REMARK       I    between atoms: C_7  and  N_9 
REMARK    6  A    between atoms: N_9  and  C_10 
ROOT
HETATM    1  N   UNL     1      -0.238   3.003   1.581  1.00  0.00    -0.341 N 
HETATM    2  C   UNL     1      -0.244   4.278   1.062  1.00  0.00     0.320 C 
HETATM    3  O   UNL     1       0.464   4.590   0.106  1.00  0.00    -0.247 OA
HETATM    4  N   UNL     1      -1.060   5.140   1.753  1.00  0.00    -0.308 N 
HETATM    5  H   UNL     1      -1.159   2.686   1.866  1.00  0.00     0.164 HD
HETATM    6  H   UNL     1      -1.100   4.956   2.749  1.00  0.00     0.170 HD
ENDROOT
BRANCH   1   7
HETATM    7  C   UNL     1       0.630   2.001   0.959  1.00  0.00     0.144 C 
BRANCH   7   8
HETATM    8  C   UNL     1       2.147   2.275   1.137  1.00  0.00     0.142 C 
BRANCH   8   9
HETATM    9  N   UNL     1       2.979   1.179   0.597  1.00  0.00    -0.380 N 
BRANCH   9  10
HETATM   10  C   UNL     1       3.607   1.261  -0.736  1.00  0.00     0.118 C 
HETATM   11  C   UNL     1       3.295   2.441  -1.632  1.00  0.00     0.026 C 
ENDBRANCH   9  10
BRANCH   9  12
HETATM   12  C   UNL     1       3.267   0.041   1.366  1.00  0.00     0.030 A 
HETATM   13  C   UNL     1       4.101  -0.988   0.880  1.00  0.00     0.029 A 
HETATM   14  C   UNL     1       4.381  -2.146   1.609  1.00  0.00     0.003 A 
HETATM   15  C   UNL     1       3.834  -2.318   2.875  1.00  0.00     0.007 A 
HETATM   16  C   UNL     1       3.022  -1.321   3.411  1.00  0.00    -0.060 A 
HETATM   17  C   UNL     1       2.426  -1.474   4.779  1.00  0.00     0.048 C 
HETATM   18  C   UNL     1       2.749  -0.163   2.656  1.00  0.00     0.036 A 
ENDBRANCH   9  12
ENDBRANCH   8   9
ENDBRANCH   7   8
ENDBRANCH   1   7
BRANCH   4  19
HETATM   19  C   UNL     1      -1.129   6.507   1.376  1.00  0.00     0.053 A 
HETATM   20  C   UNL     1      -1.345   6.853   0.035  1.00  0.00     0.031 A 
HETATM   21  C   UNL     1      -1.395   8.193  -0.355  1.00  0.00     0.002 A 
HETATM   22  C   UNL     1      -1.226   9.201   0.591  1.00  0.00     0.002 A 
HETATM   23  C   UNL     1      -1.005   8.871   1.929  1.00  0.00     0.021 A 
HETATM   24  C   UNL     1      -0.965   7.529   2.323  1.00  0.00     0.037 A 
HETATM   25 BR   UNL     1      -0.549   7.141   4.136  1.00  0.00    -0.049 Br
ENDBRANCH   4  19
TORSDOF 6
