REMARK  18 active torsions:
REMARK  status: ('A' for Active; 'I' for Inactive)
REMARK    1  A    between atoms: C_2  and  C_3 
REMARK    2  A    between atoms: C_3  and  C_4 
REMARK    3  A    between atoms: C_4  and  C_5 
REMARK    4  A    between atoms: C_5  and  C_6 
REMARK    5  A    between atoms: C_7  and  C_8 
REMARK    6  A    between atoms: C_8  and  C_9 
REMARK    7  A    between atoms: C_10  and  C_11 
REMARK    8  A    between atoms: C_11  and  C_12 
REMARK    9  A    between atoms: C_13  and  C_14 
REMARK   10  A    between atoms: C_14  and  C_15 
REMARK   11  A    between atoms: C_16  and  C_17 
REMARK   12  A    between atoms: C_17  and  C_18 
REMARK   13  A    between atoms: C_18  and  C_19 
REMARK   14  A    between atoms: C_19  and  C_20 
REMARK       I    between atoms: C_20  and  N_22 
REMARK   15  A    between atoms: N_22  and  C_23 
REMARK   16  A    between atoms: C_23  and  C_24 
REMARK   17  A    between atoms: C_27  and  O_28 
REMARK   18  A    between atoms: C_29  and  O_30 
ROOT
HETATM    1  C   UNL     1      16.108 -11.878   1.431  1.00  0.00     0.027 C 
ENDROOT
BRANCH   1   2
HETATM    2  C   UNL     1      15.564 -10.507   1.160  1.00  0.00    -0.030 C 
HETATM    3  C   UNL     1      15.317  -9.586   2.107  1.00  0.00    -0.027 C 
BRANCH   3   4
HETATM    4  C   UNL     1      14.812  -8.207   1.798  1.00  0.00     0.053 C 
BRANCH   4   5
HETATM    5  C   UNL     1      13.314  -8.157   1.794  1.00  0.00    -0.027 C 
HETATM    6  C   UNL     1      12.582  -7.854   0.709  1.00  0.00    -0.027 C 
BRANCH   6   7
HETATM    7  C   UNL     1      11.084  -7.808   0.697  1.00  0.00     0.053 C 
BRANCH   7   8
HETATM    8  C   UNL     1      10.507  -9.121   0.262  1.00  0.00    -0.027 C 
HETATM    9  C   UNL     1       9.710  -9.287  -0.806  1.00  0.00    -0.027 C 
BRANCH   9  10
HETATM   10  C   UNL     1       9.112 -10.606  -1.195  1.00  0.00     0.053 C 
BRANCH  10  11
HETATM   11  C   UNL     1       9.547 -11.012  -2.571  1.00  0.00    -0.027 C 
HETATM   12  C   UNL     1       8.697 -11.240  -3.584  1.00  0.00    -0.030 C 
BRANCH  12  13
HETATM   13  C   UNL     1       9.134 -11.663  -4.955  1.00  0.00     0.027 C 
BRANCH  13  14
HETATM   14  C   UNL     1       8.721 -10.632  -6.005  1.00  0.00     0.004 C 
BRANCH  14  15
HETATM   15  C   UNL     1       9.164 -11.075  -7.398  1.00  0.00    -0.000 C 
BRANCH  15  16
HETATM   16  C   UNL     1       8.758 -10.057  -8.461  1.00  0.00    -0.005 C 
HETATM   17  C   UNL     1       9.202 -10.504  -9.843  1.00  0.00     0.005 C 
ENDBRANCH  15  16
ENDBRANCH  14  15
ENDBRANCH  13  14
ENDBRANCH  12  13
ENDBRANCH  10  11
ENDBRANCH   9  10
ENDBRANCH   7   8
ENDBRANCH   6   7
ENDBRANCH   4   5
ENDBRANCH   3   4
ENDBRANCH   1   2
BRANCH   1  18
HETATM   18  C   UNL     1      17.471 -12.113   0.775  1.00  0.00     0.013 C 
BRANCH  18  19
HETATM   19  C   UNL     1      17.457 -12.045  -0.757  1.00  0.00     0.103 C 
BRANCH  19  20
HETATM   20  C   UNL     1      18.840 -12.310  -1.332  1.00  0.00     0.217 C 
HETATM   21  O   UNL     1      19.821 -12.549  -0.635  1.00  0.00    -0.274 OA
HETATM   22  N   UNL     1      18.887 -12.243  -2.709  1.00  0.00    -0.357 N 
HETATM   23  H   UNL     1      18.054 -12.013  -3.232  1.00  0.00     0.162 HD
BRANCH  22  24
HETATM   24  C   UNL     1      20.124 -12.437  -3.437  1.00  0.00     0.161 C 
BRANCH  24  25
HETATM   25  C   UNL     1      20.519 -11.199  -4.203  1.00  0.00    -0.038 A 
HETATM   26  C   UNL     1      20.755 -10.000  -3.519  1.00  0.00     0.012 A 
HETATM   27  C   UNL     1      21.143  -8.853  -4.209  1.00  0.00     0.040 A 
HETATM   28  C   UNL     1      21.312  -8.888  -5.595  1.00  0.00     0.099 A 
HETATM   29  C   UNL     1      21.097 -10.073  -6.305  1.00  0.00     0.101 A 
HETATM   30  C   UNL     1      20.705 -11.223  -5.595  1.00  0.00     0.048 A 
BRANCH  28  31
HETATM   31  O   UNL     1      21.695  -7.734  -6.221  1.00  0.00    -0.358 OA
HETATM   32  H   UNL     1      21.825  -7.040  -5.556  1.00  0.00     0.217 HD
ENDBRANCH  28  31
BRANCH  29  33
HETATM   33  O   UNL     1      21.230 -10.287  -7.654  1.00  0.00    -0.353 OA
HETATM   34  C   UNL     1      21.589  -9.178  -8.469  1.00  0.00     0.210 C 
ENDBRANCH  29  33
ENDBRANCH  24  25
ENDBRANCH  22  24
ENDBRANCH  19  20
ENDBRANCH  18  19
ENDBRANCH   1  18
TORSDOF 18
