MODEL 1
REMARK VINA RESULT:      -8.3      0.000      0.000
REMARK  18 active torsions:
REMARK  status: ('A' for Active; 'I' for Inactive)
REMARK    1  A    between atoms: C_2  and  C_3 
REMARK    2  A    between atoms: C_3  and  C_4 
REMARK    3  A    between atoms: C_4  and  C_5 
REMARK    4  A    between atoms: C_5  and  C_6 
REMARK    5  A    between atoms: C_7  and  C_8 
REMARK    6  A    between atoms: C_8  and  C_9 
REMARK    7  A    between atoms: C_10  and  C_11 
REMARK    8  A    between atoms: C_11  and  C_12 
REMARK    9  A    between atoms: C_13  and  C_14 
REMARK   10  A    between atoms: C_14  and  C_15 
REMARK   11  A    between atoms: C_16  and  C_17 
REMARK   12  A    between atoms: C_17  and  C_18 
REMARK   13  A    between atoms: C_18  and  C_19 
REMARK   14  A    between atoms: C_19  and  C_20 
REMARK       I    between atoms: C_20  and  N_22 
REMARK   15  A    between atoms: N_22  and  C_23 
REMARK   16  A    between atoms: C_23  and  C_24 
REMARK   17  A    between atoms: C_27  and  O_28 
REMARK   18  A    between atoms: C_29  and  O_30 
ROOT
HETATM    1  C   UNL     1     -21.348  -7.276  -5.636  1.00  0.00     0.027 C 
ENDROOT
BRANCH   1   2
HETATM    2  C   UNL     1     -21.982  -6.703  -4.404  1.00  0.00    -0.030 C 
HETATM    3  C   UNL     1     -21.402  -6.679  -3.192  1.00  0.00    -0.027 C 
BRANCH   3   4
HETATM    4  C   UNL     1     -22.047  -6.059  -1.987  1.00  0.00     0.053 C 
BRANCH   4   5
HETATM    5  C   UNL     1     -22.477  -7.098  -0.996  1.00  0.00    -0.027 C 
HETATM    6  C   UNL     1     -21.661  -7.628  -0.070  1.00  0.00    -0.027 C 
BRANCH   6   7
HETATM    7  C   UNL     1     -22.086  -8.663   0.927  1.00  0.00     0.053 C 
BRANCH   7   8
HETATM    8  C   UNL     1     -22.444  -9.950   0.249  1.00  0.00    -0.027 C 
HETATM    9  C   UNL     1     -23.694 -10.321  -0.073  1.00  0.00    -0.027 C 
BRANCH   9  10
HETATM   10  C   UNL     1     -24.028 -11.635  -0.714  1.00  0.00     0.053 C 
BRANCH  10  11
HETATM   11  C   UNL     1     -23.465 -11.719  -2.100  1.00  0.00    -0.027 C 
HETATM   12  C   UNL     1     -22.622 -10.812  -2.618  1.00  0.00    -0.030 C 
BRANCH  12  13
HETATM   13  C   UNL     1     -22.074 -10.889  -4.012  1.00  0.00     0.027 C 
BRANCH  13  14
HETATM   14  C   UNL     1     -20.548 -10.789  -4.007  1.00  0.00     0.004 C 
BRANCH  14  15
HETATM   15  C   UNL     1     -20.056 -10.133  -2.719  1.00  0.00    -0.000 C 
BRANCH  15  16
HETATM   16  C   UNL     1     -18.978  -9.089  -3.003  1.00  0.00    -0.005 C 
HETATM   17  C   UNL     1     -18.108  -9.507  -4.175  1.00  0.00     0.005 C 
ENDBRANCH  15  16
ENDBRANCH  14  15
ENDBRANCH  13  14
ENDBRANCH  12  13
ENDBRANCH  10  11
ENDBRANCH   9  10
ENDBRANCH   7   8
ENDBRANCH   6   7
ENDBRANCH   4   5
ENDBRANCH   3   4
ENDBRANCH   1   2
BRANCH   1  18
HETATM   18  C   UNL     1     -19.964  -6.686  -5.918  1.00  0.00     0.013 C 
BRANCH  18  19
HETATM   19  C   UNL     1     -19.936  -5.156  -6.018  1.00  0.00     0.103 C 
BRANCH  19  20
HETATM   20  C   UNL     1     -19.575  -4.703  -7.425  1.00  0.00     0.217 C 
HETATM   21  O   UNL     1     -18.502  -4.178  -7.705  1.00  0.00    -0.274 OA
HETATM   22  N   UNL     1     -20.573  -4.929  -8.350  1.00  0.00    -0.357 N 
HETATM   23  H   UNL     1     -21.449  -5.338  -8.058  1.00  0.00     0.162 HD
BRANCH  22  24
HETATM   24  C   UNL     1     -20.425  -4.537  -9.737  1.00  0.00     0.161 C 
BRANCH  24  25
HETATM   25  C   UNL     1     -21.747  -4.144 -10.348  1.00  0.00    -0.038 A 
HETATM   26  C   UNL     1     -22.944  -4.552  -9.746  1.00  0.00     0.012 A 
HETATM   27  C   UNL     1     -24.173  -4.178 -10.285  1.00  0.00     0.040 A 
HETATM   28  C   UNL     1     -24.228  -3.381 -11.430  1.00  0.00     0.099 A 
HETATM   29  C   UNL     1     -23.051  -2.946 -12.046  1.00  0.00     0.101 A 
HETATM   30  C   UNL     1     -21.816  -3.332 -11.492  1.00  0.00     0.048 A 
BRANCH  28  31
HETATM   31  O   UNL     1     -25.461  -3.043 -11.915  1.00  0.00    -0.358 OA
HETATM   32  H   UNL     1     -25.841  -3.807 -12.376  1.00  0.00     0.217 HD
ENDBRANCH  28  31
BRANCH  29  33
HETATM   33  O   UNL     1     -22.922  -2.153 -13.159  1.00  0.00    -0.353 OA
HETATM   34  C   UNL     1     -22.886  -2.792 -14.429  1.00  0.00     0.210 C 
ENDBRANCH  29  33
ENDBRANCH  24  25
ENDBRANCH  22  24
ENDBRANCH  19  20
ENDBRANCH  18  19
ENDBRANCH   1  18
TORSDOF 18
ENDMDL
MODEL 2
REMARK VINA RESULT:      -8.0      1.346      2.773
REMARK  18 active torsions:
REMARK  status: ('A' for Active; 'I' for Inactive)
REMARK    1  A    between atoms: C_2  and  C_3 
REMARK    2  A    between atoms: C_3  and  C_4 
REMARK    3  A    between atoms: C_4  and  C_5 
REMARK    4  A    between atoms: C_5  and  C_6 
REMARK    5  A    between atoms: C_7  and  C_8 
REMARK    6  A    between atoms: C_8  and  C_9 
REMARK    7  A    between atoms: C_10  and  C_11 
REMARK    8  A    between atoms: C_11  and  C_12 
REMARK    9  A    between atoms: C_13  and  C_14 
REMARK   10  A    between atoms: C_14  and  C_15 
REMARK   11  A    between atoms: C_16  and  C_17 
REMARK   12  A    between atoms: C_17  and  C_18 
REMARK   13  A    between atoms: C_18  and  C_19 
REMARK   14  A    between atoms: C_19  and  C_20 
REMARK       I    between atoms: C_20  and  N_22 
REMARK   15  A    between atoms: N_22  and  C_23 
REMARK   16  A    between atoms: C_23  and  C_24 
REMARK   17  A    between atoms: C_27  and  O_28 
REMARK   18  A    between atoms: C_29  and  O_30 
ROOT
HETATM    1  C   UNL     1     -21.469  -6.178  -3.414  1.00  0.00     0.027 C 
ENDROOT
BRANCH   1   2
HETATM    2  C   UNL     1     -22.013  -6.592  -2.079  1.00  0.00    -0.030 C 
HETATM    3  C   UNL     1     -21.404  -7.449  -1.242  1.00  0.00    -0.027 C 
BRANCH   3   4
HETATM    4  C   UNL     1     -21.955  -7.810   0.106  1.00  0.00     0.053 C 
BRANCH   4   5
HETATM    5  C   UNL     1     -22.291  -9.268   0.191  1.00  0.00    -0.027 C 
HETATM    6  C   UNL     1     -23.506  -9.770  -0.086  1.00  0.00    -0.027 C 
BRANCH   6   7
HETATM    7  C   UNL     1     -23.846 -11.228  -0.008  1.00  0.00     0.053 C 
BRANCH   7   8
HETATM    8  C   UNL     1     -23.116 -12.009  -1.058  1.00  0.00    -0.027 C 
HETATM    9  C   UNL     1     -23.107 -11.706  -2.366  1.00  0.00    -0.027 C 
BRANCH   9  10
HETATM   10  C   UNL     1     -22.402 -12.530  -3.401  1.00  0.00     0.053 C 
BRANCH  10  11
HETATM   11  C   UNL     1     -21.113 -11.887  -3.818  1.00  0.00    -0.027 C 
HETATM   12  C   UNL     1     -20.907 -10.562  -3.815  1.00  0.00    -0.030 C 
BRANCH  12  13
HETATM   13  C   UNL     1     -19.622  -9.921  -4.248  1.00  0.00     0.027 C 
BRANCH  13  14
HETATM   14  C   UNL     1     -18.924  -9.240  -3.071  1.00  0.00     0.004 C 
BRANCH  14  15
HETATM   15  C   UNL     1     -17.806 -10.124  -2.523  1.00  0.00    -0.000 C 
BRANCH  15  16
HETATM   16  C   UNL     1     -16.433  -9.623  -2.965  1.00  0.00    -0.005 C 
HETATM   17  C   UNL     1     -15.639 -10.729  -3.638  1.00  0.00     0.005 C 
ENDBRANCH  15  16
ENDBRANCH  14  15
ENDBRANCH  13  14
ENDBRANCH  12  13
ENDBRANCH  10  11
ENDBRANCH   9  10
ENDBRANCH   7   8
ENDBRANCH   6   7
ENDBRANCH   4   5
ENDBRANCH   3   4
ENDBRANCH   1   2
BRANCH   1  18
HETATM   18  C   UNL     1     -22.331  -6.666  -4.581  1.00  0.00     0.013 C 
BRANCH  18  19
HETATM   19  C   UNL     1     -21.542  -7.321  -5.722  1.00  0.00     0.103 C 
BRANCH  19  20
HETATM   20  C   UNL     1     -20.736  -6.289  -6.496  1.00  0.00     0.217 C 
HETATM   21  O   UNL     1     -19.629  -6.522  -6.971  1.00  0.00    -0.274 OA
HETATM   22  N   UNL     1     -21.364  -5.065  -6.602  1.00  0.00    -0.357 N 
HETATM   23  H   UNL     1     -22.263  -4.920  -6.165  1.00  0.00     0.162 HD
BRANCH  22  24
HETATM   24  C   UNL     1     -20.739  -3.947  -7.278  1.00  0.00     0.161 C 
BRANCH  24  25
HETATM   25  C   UNL     1     -21.084  -3.921  -8.746  1.00  0.00    -0.038 A 
HETATM   26  C   UNL     1     -20.095  -4.187  -9.701  1.00  0.00     0.012 A 
HETATM   27  C   UNL     1     -20.403  -4.189 -11.060  1.00  0.00     0.040 A 
HETATM   28  C   UNL     1     -21.708  -3.935 -11.487  1.00  0.00     0.099 A 
HETATM   29  C   UNL     1     -22.721  -3.680 -10.558  1.00  0.00     0.101 A 
HETATM   30  C   UNL     1     -22.395  -3.680  -9.189  1.00  0.00     0.048 A 
BRANCH  28  31
HETATM   31  O   UNL     1     -21.954  -3.951 -12.833  1.00  0.00    -0.358 OA
HETATM   32  H   UNL     1     -22.858  -4.267 -12.986  1.00  0.00     0.217 HD
ENDBRANCH  28  31
BRANCH  29  33
HETATM   33  O   UNL     1     -24.048  -3.428 -10.800  1.00  0.00    -0.353 OA
HETATM   34  C   UNL     1     -24.910  -3.279  -9.679  1.00  0.00     0.210 C 
ENDBRANCH  29  33
ENDBRANCH  24  25
ENDBRANCH  22  24
ENDBRANCH  19  20
ENDBRANCH  18  19
ENDBRANCH   1  18
TORSDOF 18
ENDMDL
MODEL 3
REMARK VINA RESULT:      -7.7      1.289      2.489
REMARK  18 active torsions:
REMARK  status: ('A' for Active; 'I' for Inactive)
REMARK    1  A    between atoms: C_2  and  C_3 
REMARK    2  A    between atoms: C_3  and  C_4 
REMARK    3  A    between atoms: C_4  and  C_5 
REMARK    4  A    between atoms: C_5  and  C_6 
REMARK    5  A    between atoms: C_7  and  C_8 
REMARK    6  A    between atoms: C_8  and  C_9 
REMARK    7  A    between atoms: C_10  and  C_11 
REMARK    8  A    between atoms: C_11  and  C_12 
REMARK    9  A    between atoms: C_13  and  C_14 
REMARK   10  A    between atoms: C_14  and  C_15 
REMARK   11  A    between atoms: C_16  and  C_17 
REMARK   12  A    between atoms: C_17  and  C_18 
REMARK   13  A    between atoms: C_18  and  C_19 
REMARK   14  A    between atoms: C_19  and  C_20 
REMARK       I    between atoms: C_20  and  N_22 
REMARK   15  A    between atoms: N_22  and  C_23 
REMARK   16  A    between atoms: C_23  and  C_24 
REMARK   17  A    between atoms: C_27  and  O_28 
REMARK   18  A    between atoms: C_29  and  O_30 
ROOT
HETATM    1  C   UNL     1     -21.527  -6.709  -6.029  1.00  0.00     0.027 C 
ENDROOT
BRANCH   1   2
HETATM    2  C   UNL     1     -22.160  -6.407  -4.703  1.00  0.00    -0.030 C 
HETATM    3  C   UNL     1     -21.539  -6.531  -3.518  1.00  0.00    -0.027 C 
BRANCH   3   4
HETATM    4  C   UNL     1     -22.188  -6.180  -2.211  1.00  0.00     0.053 C 
BRANCH   4   5
HETATM    5  C   UNL     1     -21.982  -7.254  -1.187  1.00  0.00    -0.027 C 
HETATM    6  C   UNL     1     -22.436  -7.177   0.075  1.00  0.00    -0.027 C 
BRANCH   6   7
HETATM    7  C   UNL     1     -22.238  -8.251   1.102  1.00  0.00     0.053 C 
BRANCH   7   8
HETATM    8  C   UNL     1     -21.071  -9.124   0.752  1.00  0.00    -0.027 C 
HETATM    9  C   UNL     1     -21.157 -10.270   0.059  1.00  0.00    -0.027 C 
BRANCH   9  10
HETATM   10  C   UNL     1     -19.978 -11.147  -0.241  1.00  0.00     0.053 C 
BRANCH  10  11
HETATM   11  C   UNL     1     -19.528 -10.979  -1.661  1.00  0.00    -0.027 C 
HETATM   12  C   UNL     1     -19.317  -9.787  -2.240  1.00  0.00    -0.030 C 
BRANCH  12  13
HETATM   13  C   UNL     1     -18.883  -9.622  -3.666  1.00  0.00     0.027 C 
BRANCH  13  14
HETATM   14  C   UNL     1     -19.611 -10.608  -4.579  1.00  0.00     0.004 C 
BRANCH  14  15
HETATM   15  C   UNL     1     -20.872  -9.972  -5.161  1.00  0.00    -0.000 C 
BRANCH  15  16
HETATM   16  C   UNL     1     -22.100 -10.296  -4.313  1.00  0.00    -0.005 C 
HETATM   17  C   UNL     1     -22.228 -11.792  -4.086  1.00  0.00     0.005 C 
ENDBRANCH  15  16
ENDBRANCH  14  15
ENDBRANCH  13  14
ENDBRANCH  12  13
ENDBRANCH  10  11
ENDBRANCH   9  10
ENDBRANCH   7   8
ENDBRANCH   6   7
ENDBRANCH   4   5
ENDBRANCH   3   4
ENDBRANCH   1   2
BRANCH   1  18
HETATM   18  C   UNL     1     -20.324  -5.811  -6.328  1.00  0.00     0.013 C 
BRANCH  18  19
HETATM   19  C   UNL     1     -20.689  -4.376  -6.728  1.00  0.00     0.103 C 
BRANCH  19  20
HETATM   20  C   UNL     1     -20.183  -4.049  -8.124  1.00  0.00     0.217 C 
HETATM   21  O   UNL     1     -19.254  -3.276  -8.336  1.00  0.00    -0.274 OA
HETATM   22  N   UNL     1     -20.876  -4.693  -9.127  1.00  0.00    -0.357 N 
HETATM   23  H   UNL     1     -21.653  -5.297  -8.897  1.00  0.00     0.162 HD
BRANCH  22  24
HETATM   24  C   UNL     1     -20.559  -4.484 -10.525  1.00  0.00     0.161 C 
BRANCH  24  25
HETATM   25  C   UNL     1     -21.719  -3.876 -11.274  1.00  0.00    -0.038 A 
HETATM   26  C   UNL     1     -21.560  -3.485 -12.609  1.00  0.00     0.012 A 
HETATM   27  C   UNL     1     -22.628  -2.943 -13.322  1.00  0.00     0.040 A 
HETATM   28  C   UNL     1     -23.877  -2.793 -12.715  1.00  0.00     0.099 A 
HETATM   29  C   UNL     1     -24.071  -3.187 -11.388  1.00  0.00     0.101 A 
HETATM   30  C   UNL     1     -22.984  -3.732 -10.680  1.00  0.00     0.048 A 
BRANCH  28  31
HETATM   31  O   UNL     1     -24.890  -2.257 -13.462  1.00  0.00    -0.358 OA
HETATM   32  H   UNL     1     -25.442  -1.698 -12.893  1.00  0.00     0.217 HD
ENDBRANCH  28  31
BRANCH  29  33
HETATM   33  O   UNL     1     -25.225  -3.126 -10.647  1.00  0.00    -0.353 OA
HETATM   34  C   UNL     1     -25.144  -3.455  -9.266  1.00  0.00     0.210 C 
ENDBRANCH  29  33
ENDBRANCH  24  25
ENDBRANCH  22  24
ENDBRANCH  19  20
ENDBRANCH  18  19
ENDBRANCH   1  18
TORSDOF 18
ENDMDL
MODEL 4
REMARK VINA RESULT:      -7.5      2.076      3.907
REMARK  18 active torsions:
REMARK  status: ('A' for Active; 'I' for Inactive)
REMARK    1  A    between atoms: C_2  and  C_3 
REMARK    2  A    between atoms: C_3  and  C_4 
REMARK    3  A    between atoms: C_4  and  C_5 
REMARK    4  A    between atoms: C_5  and  C_6 
REMARK    5  A    between atoms: C_7  and  C_8 
REMARK    6  A    between atoms: C_8  and  C_9 
REMARK    7  A    between atoms: C_10  and  C_11 
REMARK    8  A    between atoms: C_11  and  C_12 
REMARK    9  A    between atoms: C_13  and  C_14 
REMARK   10  A    between atoms: C_14  and  C_15 
REMARK   11  A    between atoms: C_16  and  C_17 
REMARK   12  A    between atoms: C_17  and  C_18 
REMARK   13  A    between atoms: C_18  and  C_19 
REMARK   14  A    between atoms: C_19  and  C_20 
REMARK       I    between atoms: C_20  and  N_22 
REMARK   15  A    between atoms: N_22  and  C_23 
REMARK   16  A    between atoms: C_23  and  C_24 
REMARK   17  A    between atoms: C_27  and  O_28 
REMARK   18  A    between atoms: C_29  and  O_30 
ROOT
HETATM    1  C   UNL     1     -22.068  -6.048  -2.235  1.00  0.00     0.027 C 
ENDROOT
BRANCH   1   2
HETATM    2  C   UNL     1     -22.251  -7.297  -1.425  1.00  0.00    -0.030 C 
HETATM    3  C   UNL     1     -22.165  -7.353  -0.085  1.00  0.00    -0.027 C 
BRANCH   3   4
HETATM    4  C   UNL     1     -22.396  -8.611   0.699  1.00  0.00     0.053 C 
BRANCH   4   5
HETATM    5  C   UNL     1     -21.451  -9.699   0.286  1.00  0.00    -0.027 C 
HETATM    6  C   UNL     1     -21.828 -10.971   0.071  1.00  0.00    -0.027 C 
BRANCH   6   7
HETATM    7  C   UNL     1     -20.890 -12.062  -0.348  1.00  0.00     0.053 C 
BRANCH   7   8
HETATM    8  C   UNL     1     -19.496 -11.788   0.130  1.00  0.00    -0.027 C 
HETATM    9  C   UNL     1     -18.401 -12.434  -0.304  1.00  0.00    -0.027 C 
BRANCH   9  10
HETATM   10  C   UNL     1     -17.022 -12.169   0.221  1.00  0.00     0.053 C 
BRANCH  10  11
HETATM   11  C   UNL     1     -16.116 -11.671  -0.864  1.00  0.00    -0.027 C 
HETATM   12  C   UNL     1     -16.509 -10.833  -1.836  1.00  0.00    -0.030 C 
BRANCH  12  13
HETATM   13  C   UNL     1     -15.605 -10.350  -2.931  1.00  0.00     0.027 C 
BRANCH  13  14
HETATM   14  C   UNL     1     -16.412  -9.787  -4.101  1.00  0.00     0.004 C 
BRANCH  14  15
HETATM   15  C   UNL     1     -17.851 -10.300  -4.058  1.00  0.00    -0.000 C 
BRANCH  15  16
HETATM   16  C   UNL     1     -18.816  -9.210  -3.598  1.00  0.00    -0.005 C 
HETATM   17  C   UNL     1     -20.182  -9.791  -3.277  1.00  0.00     0.005 C 
ENDBRANCH  15  16
ENDBRANCH  14  15
ENDBRANCH  13  14
ENDBRANCH  12  13
ENDBRANCH  10  11
ENDBRANCH   9  10
ENDBRANCH   7   8
ENDBRANCH   6   7
ENDBRANCH   4   5
ENDBRANCH   3   4
ENDBRANCH   1   2
BRANCH   1  18
HETATM   18  C   UNL     1     -21.094  -6.238  -3.401  1.00  0.00     0.013 C 
BRANCH  18  19
HETATM   19  C   UNL     1     -21.768  -6.395  -4.770  1.00  0.00     0.103 C 
BRANCH  19  20
HETATM   20  C   UNL     1     -20.768  -6.209  -5.900  1.00  0.00     0.217 C 
HETATM   21  O   UNL     1     -20.108  -7.131  -6.370  1.00  0.00    -0.274 OA
HETATM   22  N   UNL     1     -20.664  -4.905  -6.337  1.00  0.00    -0.357 N 
HETATM   23  H   UNL     1     -21.210  -4.180  -5.894  1.00  0.00     0.162 HD
BRANCH  22  24
HETATM   24  C   UNL     1     -19.740  -4.526  -7.386  1.00  0.00     0.161 C 
BRANCH  24  25
HETATM   25  C   UNL     1     -20.445  -4.339  -8.707  1.00  0.00    -0.038 A 
HETATM   26  C   UNL     1     -19.784  -4.650  -9.901  1.00  0.00     0.012 A 
HETATM   27  C   UNL     1     -20.428  -4.505 -11.128  1.00  0.00     0.040 A 
HETATM   28  C   UNL     1     -21.749  -4.055 -11.181  1.00  0.00     0.099 A 
HETATM   29  C   UNL     1     -22.441  -3.748 -10.006  1.00  0.00     0.101 A 
HETATM   30  C   UNL     1     -21.777  -3.900  -8.774  1.00  0.00     0.048 A 
BRANCH  28  31
HETATM   31  O   UNL     1     -22.333  -3.932 -12.412  1.00  0.00    -0.358 OA
HETATM   32  H   UNL     1     -21.782  -4.381 -13.071  1.00  0.00     0.217 HD
ENDBRANCH  28  31
BRANCH  29  33
HETATM   33  O   UNL     1     -23.736  -3.312  -9.875  1.00  0.00    -0.353 OA
HETATM   34  C   UNL     1     -24.753  -4.294  -9.720  1.00  0.00     0.210 C 
ENDBRANCH  29  33
ENDBRANCH  24  25
ENDBRANCH  22  24
ENDBRANCH  19  20
ENDBRANCH  18  19
ENDBRANCH   1  18
TORSDOF 18
ENDMDL
MODEL 5
REMARK VINA RESULT:      -7.4      4.328     10.439
REMARK  18 active torsions:
REMARK  status: ('A' for Active; 'I' for Inactive)
REMARK    1  A    between atoms: C_2  and  C_3 
REMARK    2  A    between atoms: C_3  and  C_4 
REMARK    3  A    between atoms: C_4  and  C_5 
REMARK    4  A    between atoms: C_5  and  C_6 
REMARK    5  A    between atoms: C_7  and  C_8 
REMARK    6  A    between atoms: C_8  and  C_9 
REMARK    7  A    between atoms: C_10  and  C_11 
REMARK    8  A    between atoms: C_11  and  C_12 
REMARK    9  A    between atoms: C_13  and  C_14 
REMARK   10  A    between atoms: C_14  and  C_15 
REMARK   11  A    between atoms: C_16  and  C_17 
REMARK   12  A    between atoms: C_17  and  C_18 
REMARK   13  A    between atoms: C_18  and  C_19 
REMARK   14  A    between atoms: C_19  and  C_20 
REMARK       I    between atoms: C_20  and  N_22 
REMARK   15  A    between atoms: N_22  and  C_23 
REMARK   16  A    between atoms: C_23  and  C_24 
REMARK   17  A    between atoms: C_27  and  O_28 
REMARK   18  A    between atoms: C_29  and  O_30 
ROOT
HETATM    1  C   UNL     1     -22.183  -9.160   0.429  1.00  0.00     0.027 C 
ENDROOT
BRANCH   1   2
HETATM    2  C   UNL     1     -21.677  -7.959  -0.312  1.00  0.00    -0.030 C 
HETATM    3  C   UNL     1     -22.435  -7.173  -1.096  1.00  0.00    -0.027 C 
BRANCH   3   4
HETATM    4  C   UNL     1     -21.907  -5.952  -1.790  1.00  0.00     0.053 C 
BRANCH   4   5
HETATM    5  C   UNL     1     -21.471  -6.261  -3.191  1.00  0.00    -0.027 C 
HETATM    6  C   UNL     1     -21.657  -7.452  -3.783  1.00  0.00    -0.027 C 
BRANCH   6   7
HETATM    7  C   UNL     1     -21.229  -7.765  -5.185  1.00  0.00     0.053 C 
BRANCH   7   8
HETATM    8  C   UNL     1     -20.342  -6.688  -5.732  1.00  0.00    -0.027 C 
HETATM    9  C   UNL     1     -20.768  -5.654  -6.476  1.00  0.00    -0.027 C 
BRANCH   9  10
HETATM   10  C   UNL     1     -19.852  -4.612  -7.045  1.00  0.00     0.053 C 
BRANCH  10  11
HETATM   11  C   UNL     1     -19.788  -4.707  -8.540  1.00  0.00    -0.027 C 
HETATM   12  C   UNL     1     -20.600  -4.029  -9.365  1.00  0.00    -0.030 C 
BRANCH  12  13
HETATM   13  C   UNL     1     -20.546  -4.139 -10.860  1.00  0.00     0.027 C 
BRANCH  13  14
HETATM   14  C   UNL     1     -21.501  -3.145 -11.519  1.00  0.00     0.004 C 
BRANCH  14  15
HETATM   15  C   UNL     1     -22.754  -3.856 -12.026  1.00  0.00    -0.000 C 
BRANCH  15  16
HETATM   16  C   UNL     1     -24.023  -3.141 -11.569  1.00  0.00    -0.005 C 
HETATM   17  C   UNL     1     -24.320  -3.433 -10.108  1.00  0.00     0.005 C 
ENDBRANCH  15  16
ENDBRANCH  14  15
ENDBRANCH  13  14
ENDBRANCH  12  13
ENDBRANCH  10  11
ENDBRANCH   9  10
ENDBRANCH   7   8
ENDBRANCH   6   7
ENDBRANCH   4   5
ENDBRANCH   3   4
ENDBRANCH   1   2
BRANCH   1  18
HETATM   18  C   UNL     1     -23.308  -9.883  -0.316  1.00  0.00     0.013 C 
BRANCH  18  19
HETATM   19  C   UNL     1     -23.499 -11.349   0.092  1.00  0.00     0.103 C 
BRANCH  19  20
HETATM   20  C   UNL     1     -22.173 -12.094   0.102  1.00  0.00     0.217 C 
HETATM   21  O   UNL     1     -21.664 -12.543   1.124  1.00  0.00    -0.274 OA
HETATM   22  N   UNL     1     -21.593 -12.204  -1.145  1.00  0.00    -0.357 N 
HETATM   23  H   UNL     1     -22.042 -11.789  -1.949  1.00  0.00     0.162 HD
BRANCH  22  24
HETATM   24  C   UNL     1     -20.312 -12.854  -1.332  1.00  0.00     0.161 C 
BRANCH  24  25
HETATM   25  C   UNL     1     -19.252 -11.878  -1.776  1.00  0.00    -0.038 A 
HETATM   26  C   UNL     1     -19.621 -10.608  -2.237  1.00  0.00     0.012 A 
HETATM   27  C   UNL     1     -18.652  -9.686  -2.629  1.00  0.00     0.040 A 
HETATM   28  C   UNL     1     -17.296 -10.014  -2.557  1.00  0.00     0.099 A 
HETATM   29  C   UNL     1     -16.896 -11.269  -2.089  1.00  0.00     0.101 A 
HETATM   30  C   UNL     1     -17.885 -12.190  -1.697  1.00  0.00     0.048 A 
BRANCH  28  31
HETATM   31  O   UNL     1     -16.389  -9.071  -2.954  1.00  0.00    -0.358 OA
HETATM   32  H   UNL     1     -15.754  -8.919  -2.236  1.00  0.00     0.217 HD
ENDBRANCH  28  31
BRANCH  29  33
HETATM   33  O   UNL     1     -15.618 -11.748  -1.940  1.00  0.00    -0.353 OA
HETATM   34  C   UNL     1     -14.988 -12.319  -3.080  1.00  0.00     0.210 C 
ENDBRANCH  29  33
ENDBRANCH  24  25
ENDBRANCH  22  24
ENDBRANCH  19  20
ENDBRANCH  18  19
ENDBRANCH   1  18
TORSDOF 18
ENDMDL
MODEL 6
REMARK VINA RESULT:      -7.2      3.840      9.863
REMARK  18 active torsions:
REMARK  status: ('A' for Active; 'I' for Inactive)
REMARK    1  A    between atoms: C_2  and  C_3 
REMARK    2  A    between atoms: C_3  and  C_4 
REMARK    3  A    between atoms: C_4  and  C_5 
REMARK    4  A    between atoms: C_5  and  C_6 
REMARK    5  A    between atoms: C_7  and  C_8 
REMARK    6  A    between atoms: C_8  and  C_9 
REMARK    7  A    between atoms: C_10  and  C_11 
REMARK    8  A    between atoms: C_11  and  C_12 
REMARK    9  A    between atoms: C_13  and  C_14 
REMARK   10  A    between atoms: C_14  and  C_15 
REMARK   11  A    between atoms: C_16  and  C_17 
REMARK   12  A    between atoms: C_17  and  C_18 
REMARK   13  A    between atoms: C_18  and  C_19 
REMARK   14  A    between atoms: C_19  and  C_20 
REMARK       I    between atoms: C_20  and  N_22 
REMARK   15  A    between atoms: N_22  and  C_23 
REMARK   16  A    between atoms: C_23  and  C_24 
REMARK   17  A    between atoms: C_27  and  O_28 
REMARK   18  A    between atoms: C_29  and  O_30 
ROOT
HETATM    1  C   UNL     1     -23.916 -11.747  -0.797  1.00  0.00     0.027 C 
ENDROOT
BRANCH   1   2
HETATM    2  C   UNL     1     -23.637 -10.484  -0.039  1.00  0.00    -0.030 C 
HETATM    3  C   UNL     1     -22.887  -9.469  -0.502  1.00  0.00    -0.027 C 
BRANCH   3   4
HETATM    4  C   UNL     1     -22.661  -8.199   0.265  1.00  0.00     0.053 C 
BRANCH   4   5
HETATM    5  C   UNL     1     -22.393  -7.043  -0.650  1.00  0.00    -0.027 C 
HETATM    6  C   UNL     1     -21.910  -7.177  -1.897  1.00  0.00    -0.027 C 
BRANCH   6   7
HETATM    7  C   UNL     1     -21.645  -6.026  -2.819  1.00  0.00     0.053 C 
BRANCH   7   8
HETATM    8  C   UNL     1     -21.215  -6.505  -4.172  1.00  0.00    -0.027 C 
HETATM    9  C   UNL     1     -20.544  -5.762  -5.066  1.00  0.00    -0.027 C 
BRANCH   9  10
HETATM   10  C   UNL     1     -20.162  -6.254  -6.430  1.00  0.00     0.053 C 
BRANCH  10  11
HETATM   11  C   UNL     1     -20.506  -5.245  -7.485  1.00  0.00    -0.027 C 
HETATM   12  C   UNL     1     -21.763  -4.915  -7.817  1.00  0.00    -0.030 C 
BRANCH  12  13
HETATM   13  C   UNL     1     -22.105  -3.918  -8.885  1.00  0.00     0.027 C 
BRANCH  13  14
HETATM   14  C   UNL     1     -21.151  -4.038 -10.073  1.00  0.00     0.004 C 
BRANCH  14  15
HETATM   15  C   UNL     1     -21.929  -4.277 -11.366  1.00  0.00    -0.000 C 
BRANCH  15  16
HETATM   16  C   UNL     1     -22.224  -2.966 -12.089  1.00  0.00    -0.005 C 
HETATM   17  C   UNL     1     -23.705  -2.831 -12.395  1.00  0.00     0.005 C 
ENDBRANCH  15  16
ENDBRANCH  14  15
ENDBRANCH  13  14
ENDBRANCH  12  13
ENDBRANCH  10  11
ENDBRANCH   9  10
ENDBRANCH   7   8
ENDBRANCH   6   7
ENDBRANCH   4   5
ENDBRANCH   3   4
ENDBRANCH   1   2
BRANCH   1  18
HETATM   18  C   UNL     1     -23.477 -13.002  -0.036  1.00  0.00     0.013 C 
BRANCH  18  19
HETATM   19  C   UNL     1     -22.372 -12.761   0.999  1.00  0.00     0.103 C 
BRANCH  19  20
HETATM   20  C   UNL     1     -20.995 -13.001   0.400  1.00  0.00     0.217 C 
HETATM   21  O   UNL     1     -20.620 -14.099   0.002  1.00  0.00    -0.274 OA
HETATM   22  N   UNL     1     -20.206 -11.870   0.359  1.00  0.00    -0.357 N 
HETATM   23  H   UNL     1     -20.556 -10.997   0.729  1.00  0.00     0.162 HD
BRANCH  22  24
HETATM   24  C   UNL     1     -18.851 -11.907  -0.150  1.00  0.00     0.161 C 
BRANCH  24  25
HETATM   25  C   UNL     1     -18.741 -11.225  -1.490  1.00  0.00    -0.038 A 
HETATM   26  C   UNL     1     -19.700 -10.279  -1.873  1.00  0.00     0.012 A 
HETATM   27  C   UNL     1     -19.600  -9.622  -3.099  1.00  0.00     0.040 A 
HETATM   28  C   UNL     1     -18.533  -9.893  -3.958  1.00  0.00     0.099 A 
HETATM   29  C   UNL     1     -17.552 -10.822  -3.599  1.00  0.00     0.101 A 
HETATM   30  C   UNL     1     -17.666 -11.477  -2.359  1.00  0.00     0.048 A 
BRANCH  28  31
HETATM   31  O   UNL     1     -18.484  -9.219  -5.147  1.00  0.00    -0.358 OA
HETATM   32  H   UNL     1     -19.164  -8.528  -5.149  1.00  0.00     0.217 HD
ENDBRANCH  28  31
BRANCH  29  33
HETATM   33  O   UNL     1     -16.439 -11.194  -4.309  1.00  0.00    -0.353 OA
HETATM   34  C   UNL     1     -16.543 -12.332  -5.157  1.00  0.00     0.210 C 
ENDBRANCH  29  33
ENDBRANCH  24  25
ENDBRANCH  22  24
ENDBRANCH  19  20
ENDBRANCH  18  19
ENDBRANCH   1  18
TORSDOF 18
ENDMDL
MODEL 7
REMARK VINA RESULT:      -7.1      3.974      9.342
REMARK  18 active torsions:
REMARK  status: ('A' for Active; 'I' for Inactive)
REMARK    1  A    between atoms: C_2  and  C_3 
REMARK    2  A    between atoms: C_3  and  C_4 
REMARK    3  A    between atoms: C_4  and  C_5 
REMARK    4  A    between atoms: C_5  and  C_6 
REMARK    5  A    between atoms: C_7  and  C_8 
REMARK    6  A    between atoms: C_8  and  C_9 
REMARK    7  A    between atoms: C_10  and  C_11 
REMARK    8  A    between atoms: C_11  and  C_12 
REMARK    9  A    between atoms: C_13  and  C_14 
REMARK   10  A    between atoms: C_14  and  C_15 
REMARK   11  A    between atoms: C_16  and  C_17 
REMARK   12  A    between atoms: C_17  and  C_18 
REMARK   13  A    between atoms: C_18  and  C_19 
REMARK   14  A    between atoms: C_19  and  C_20 
REMARK       I    between atoms: C_20  and  N_22 
REMARK   15  A    between atoms: N_22  and  C_23 
REMARK   16  A    between atoms: C_23  and  C_24 
REMARK   17  A    between atoms: C_27  and  O_28 
REMARK   18  A    between atoms: C_29  and  O_30 
ROOT
HETATM    1  C   UNL     1     -22.096  -9.797   0.302  1.00  0.00     0.027 C 
ENDROOT
BRANCH   1   2
HETATM    2  C   UNL     1     -22.486  -8.451  -0.231  1.00  0.00    -0.030 C 
HETATM    3  C   UNL     1     -21.749  -7.732  -1.095  1.00  0.00    -0.027 C 
BRANCH   3   4
HETATM    4  C   UNL     1     -22.189  -6.406  -1.642  1.00  0.00     0.053 C 
BRANCH   4   5
HETATM    5  C   UNL     1     -21.841  -6.266  -3.093  1.00  0.00    -0.027 C 
HETATM    6  C   UNL     1     -21.372  -7.274  -3.847  1.00  0.00    -0.027 C 
BRANCH   6   7
HETATM    7  C   UNL     1     -21.027  -7.142  -5.300  1.00  0.00     0.053 C 
BRANCH   7   8
HETATM    8  C   UNL     1     -21.495  -5.828  -5.848  1.00  0.00    -0.027 C 
HETATM    9  C   UNL     1     -20.753  -5.017  -6.620  1.00  0.00    -0.027 C 
BRANCH   9  10
HETATM   10  C   UNL     1     -21.231  -3.687  -7.121  1.00  0.00     0.053 C 
BRANCH  10  11
HETATM   11  C   UNL     1     -21.325  -3.675  -8.617  1.00  0.00    -0.027 C 
HETATM   12  C   UNL     1     -20.436  -4.274  -9.424  1.00  0.00    -0.030 C 
BRANCH  12  13
HETATM   13  C   UNL     1     -20.522  -4.246 -10.921  1.00  0.00     0.027 C 
BRANCH  13  14
HETATM   14  C   UNL     1     -21.604  -3.274 -11.390  1.00  0.00     0.004 C 
BRANCH  14  15
HETATM   15  C   UNL     1     -22.866  -4.029 -11.800  1.00  0.00    -0.000 C 
BRANCH  15  16
HETATM   16  C   UNL     1     -24.124  -3.216 -11.504  1.00  0.00    -0.005 C 
HETATM   17  C   UNL     1     -24.569  -3.404 -10.064  1.00  0.00     0.005 C 
ENDBRANCH  15  16
ENDBRANCH  14  15
ENDBRANCH  13  14
ENDBRANCH  12  13
ENDBRANCH  10  11
ENDBRANCH   9  10
ENDBRANCH   7   8
ENDBRANCH   6   7
ENDBRANCH   4   5
ENDBRANCH   3   4
ENDBRANCH   1   2
BRANCH   1  18
HETATM   18  C   UNL     1     -21.705 -10.780  -0.805  1.00  0.00     0.013 C 
BRANCH  18  19
HETATM   19  C   UNL     1     -22.851 -11.157  -1.751  1.00  0.00     0.103 C 
BRANCH  19  20
HETATM   20  C   UNL     1     -22.320 -11.665  -3.083  1.00  0.00     0.217 C 
HETATM   21  O   UNL     1     -22.347 -12.848  -3.408  1.00  0.00    -0.274 OA
HETATM   22  N   UNL     1     -21.796 -10.671  -3.882  1.00  0.00    -0.357 N 
HETATM   23  H   UNL     1     -21.772  -9.717  -3.552  1.00  0.00     0.162 HD
BRANCH  22  24
HETATM   24  C   UNL     1     -21.215 -10.965  -5.176  1.00  0.00     0.161 C 
BRANCH  24  25
HETATM   25  C   UNL     1     -19.712 -10.829  -5.155  1.00  0.00    -0.038 A 
HETATM   26  C   UNL     1     -19.095 -10.057  -4.164  1.00  0.00     0.012 A 
HETATM   27  C   UNL     1     -17.707  -9.940  -4.117  1.00  0.00     0.040 A 
HETATM   28  C   UNL     1     -16.911 -10.602  -5.055  1.00  0.00     0.099 A 
HETATM   29  C   UNL     1     -17.497 -11.392  -6.049  1.00  0.00     0.101 A 
HETATM   30  C   UNL     1     -18.900 -11.500  -6.084  1.00  0.00     0.048 A 
BRANCH  28  31
HETATM   31  O   UNL     1     -15.555 -10.453  -4.961  1.00  0.00    -0.358 OA
HETATM   32  H   UNL     1     -15.133 -10.923  -5.697  1.00  0.00     0.217 HD
ENDBRANCH  28  31
BRANCH  29  33
HETATM   33  O   UNL     1     -16.872 -12.117  -7.031  1.00  0.00    -0.353 OA
HETATM   34  C   UNL     1     -17.452 -13.359  -7.410  1.00  0.00     0.210 C 
ENDBRANCH  29  33
ENDBRANCH  24  25
ENDBRANCH  22  24
ENDBRANCH  19  20
ENDBRANCH  18  19
ENDBRANCH   1  18
TORSDOF 18
ENDMDL
MODEL 8
REMARK VINA RESULT:      -7.1      3.915      9.139
REMARK  18 active torsions:
REMARK  status: ('A' for Active; 'I' for Inactive)
REMARK    1  A    between atoms: C_2  and  C_3 
REMARK    2  A    between atoms: C_3  and  C_4 
REMARK    3  A    between atoms: C_4  and  C_5 
REMARK    4  A    between atoms: C_5  and  C_6 
REMARK    5  A    between atoms: C_7  and  C_8 
REMARK    6  A    between atoms: C_8  and  C_9 
REMARK    7  A    between atoms: C_10  and  C_11 
REMARK    8  A    between atoms: C_11  and  C_12 
REMARK    9  A    between atoms: C_13  and  C_14 
REMARK   10  A    between atoms: C_14  and  C_15 
REMARK   11  A    between atoms: C_16  and  C_17 
REMARK   12  A    between atoms: C_17  and  C_18 
REMARK   13  A    between atoms: C_18  and  C_19 
REMARK   14  A    between atoms: C_19  and  C_20 
REMARK       I    between atoms: C_20  and  N_22 
REMARK   15  A    between atoms: N_22  and  C_23 
REMARK   16  A    between atoms: C_23  and  C_24 
REMARK   17  A    between atoms: C_27  and  O_28 
REMARK   18  A    between atoms: C_29  and  O_30 
ROOT
HETATM    1  C   UNL     1     -22.284 -11.237  -3.975  1.00  0.00     0.027 C 
ENDROOT
BRANCH   1   2
HETATM    2  C   UNL     1     -22.683 -10.915  -2.566  1.00  0.00    -0.030 C 
HETATM    3  C   UNL     1     -23.523 -11.658  -1.825  1.00  0.00    -0.027 C 
BRANCH   3   4
HETATM    4  C   UNL     1     -23.869 -11.331  -0.402  1.00  0.00     0.053 C 
BRANCH   4   5
HETATM    5  C   UNL     1     -23.457  -9.935  -0.042  1.00  0.00    -0.027 C 
HETATM    6  C   UNL     1     -22.259  -9.624   0.479  1.00  0.00    -0.027 C 
BRANCH   6   7
HETATM    7  C   UNL     1     -21.839  -8.230   0.836  1.00  0.00     0.053 C 
BRANCH   7   8
HETATM    8  C   UNL     1     -22.243  -7.255  -0.228  1.00  0.00    -0.027 C 
HETATM    9  C   UNL     1     -21.716  -7.213  -1.463  1.00  0.00    -0.027 C 
BRANCH   9  10
HETATM   10  C   UNL     1     -22.109  -6.200  -2.496  1.00  0.00     0.053 C 
BRANCH  10  11
HETATM   11  C   UNL     1     -21.370  -6.423  -3.781  1.00  0.00    -0.027 C 
HETATM   12  C   UNL     1     -21.968  -6.504  -4.979  1.00  0.00    -0.030 C 
BRANCH  12  13
HETATM   13  C   UNL     1     -21.228  -6.745  -6.262  1.00  0.00     0.027 C 
BRANCH  13  14
HETATM   14  C   UNL     1     -19.954  -5.903  -6.326  1.00  0.00     0.004 C 
BRANCH  14  15
HETATM   15  C   UNL     1     -20.280  -4.460  -6.702  1.00  0.00    -0.000 C 
BRANCH  15  16
HETATM   16  C   UNL     1     -21.083  -4.391  -7.999  1.00  0.00    -0.005 C 
HETATM   17  C   UNL     1     -20.185  -4.585  -9.208  1.00  0.00     0.005 C 
ENDBRANCH  15  16
ENDBRANCH  14  15
ENDBRANCH  13  14
ENDBRANCH  12  13
ENDBRANCH  10  11
ENDBRANCH   9  10
ENDBRANCH   7   8
ENDBRANCH   6   7
ENDBRANCH   4   5
ENDBRANCH   3   4
ENDBRANCH   1   2
BRANCH   1  18
HETATM   18  C   UNL     1     -21.470 -10.117  -4.629  1.00  0.00     0.013 C 
BRANCH  18  19
HETATM   19  C   UNL     1     -20.331 -10.606  -5.532  1.00  0.00     0.103 C 
BRANCH  19  20
HETATM   20  C   UNL     1     -19.017  -9.928  -5.176  1.00  0.00     0.217 C 
HETATM   21  O   UNL     1     -18.930  -9.026  -4.349  1.00  0.00    -0.274 OA
HETATM   22  N   UNL     1     -17.936 -10.415  -5.881  1.00  0.00    -0.357 N 
HETATM   23  H   UNL     1     -18.069 -11.139  -6.573  1.00  0.00     0.162 HD
BRANCH  22  24
HETATM   24  C   UNL     1     -16.605  -9.873  -5.701  1.00  0.00     0.161 C 
BRANCH  24  25
HETATM   25  C   UNL     1     -15.703 -10.841  -4.977  1.00  0.00    -0.038 A 
HETATM   26  C   UNL     1     -14.625 -11.429  -5.651  1.00  0.00     0.012 A 
HETATM   27  C   UNL     1     -13.768 -12.308  -4.990  1.00  0.00     0.040 A 
HETATM   28  C   UNL     1     -13.969 -12.606  -3.641  1.00  0.00     0.099 A 
HETATM   29  C   UNL     1     -15.028 -12.025  -2.937  1.00  0.00     0.101 A 
HETATM   30  C   UNL     1     -15.885 -11.140  -3.617  1.00  0.00     0.048 A 
BRANCH  28  31
HETATM   31  O   UNL     1     -13.097 -13.474  -3.042  1.00  0.00    -0.358 OA
HETATM   32  H   UNL     1     -13.280 -14.373  -3.355  1.00  0.00     0.217 HD
ENDBRANCH  28  31
BRANCH  29  33
HETATM   33  O   UNL     1     -15.359 -12.194  -1.616  1.00  0.00    -0.353 OA
HETATM   34  C   UNL     1     -16.643 -11.752  -1.193  1.00  0.00     0.210 C 
ENDBRANCH  29  33
ENDBRANCH  24  25
ENDBRANCH  22  24
ENDBRANCH  19  20
ENDBRANCH  18  19
ENDBRANCH   1  18
TORSDOF 18
ENDMDL
MODEL 9
REMARK VINA RESULT:      -7.0      4.201      9.223
REMARK  18 active torsions:
REMARK  status: ('A' for Active; 'I' for Inactive)
REMARK    1  A    between atoms: C_2  and  C_3 
REMARK    2  A    between atoms: C_3  and  C_4 
REMARK    3  A    between atoms: C_4  and  C_5 
REMARK    4  A    between atoms: C_5  and  C_6 
REMARK    5  A    between atoms: C_7  and  C_8 
REMARK    6  A    between atoms: C_8  and  C_9 
REMARK    7  A    between atoms: C_10  and  C_11 
REMARK    8  A    between atoms: C_11  and  C_12 
REMARK    9  A    between atoms: C_13  and  C_14 
REMARK   10  A    between atoms: C_14  and  C_15 
REMARK   11  A    between atoms: C_16  and  C_17 
REMARK   12  A    between atoms: C_17  and  C_18 
REMARK   13  A    between atoms: C_18  and  C_19 
REMARK   14  A    between atoms: C_19  and  C_20 
REMARK       I    between atoms: C_20  and  N_22 
REMARK   15  A    between atoms: N_22  and  C_23 
REMARK   16  A    between atoms: C_23  and  C_24 
REMARK   17  A    between atoms: C_27  and  O_28 
REMARK   18  A    between atoms: C_29  and  O_30 
ROOT
HETATM    1  C   UNL     1     -24.078 -11.676  -1.012  1.00  0.00     0.027 C 
ENDROOT
BRANCH   1   2
HETATM    2  C   UNL     1     -23.705 -10.492  -0.171  1.00  0.00    -0.030 C 
HETATM    3  C   UNL     1     -22.537  -9.832  -0.262  1.00  0.00    -0.027 C 
BRANCH   3   4
HETATM    4  C   UNL     1     -22.211  -8.624   0.566  1.00  0.00     0.053 C 
BRANCH   4   5
HETATM    5  C   UNL     1     -22.318  -7.362  -0.235  1.00  0.00    -0.027 C 
HETATM    6  C   UNL     1     -21.919  -7.256  -1.514  1.00  0.00    -0.027 C 
BRANCH   6   7
HETATM    7  C   UNL     1     -22.028  -5.999  -2.322  1.00  0.00     0.053 C 
BRANCH   7   8
HETATM    8  C   UNL     1     -21.621  -6.235  -3.745  1.00  0.00    -0.027 C 
HETATM    9  C   UNL     1     -20.957  -7.319  -4.178  1.00  0.00    -0.027 C 
BRANCH   9  10
HETATM   10  C   UNL     1     -20.525  -7.511  -5.601  1.00  0.00     0.053 C 
BRANCH  10  11
HETATM   11  C   UNL     1     -20.757  -6.269  -6.409  1.00  0.00    -0.027 C 
HETATM   12  C   UNL     1     -19.770  -5.499  -6.892  1.00  0.00    -0.030 C 
BRANCH  12  13
HETATM   13  C   UNL     1     -20.006  -4.248  -7.685  1.00  0.00     0.027 C 
BRANCH  13  14
HETATM   14  C   UNL     1     -20.265  -4.571  -9.156  1.00  0.00     0.004 C 
BRANCH  14  15
HETATM   15  C   UNL     1     -21.579  -3.948  -9.622  1.00  0.00    -0.000 C 
BRANCH  15  16
HETATM   16  C   UNL     1     -21.962  -4.435 -11.017  1.00  0.00    -0.005 C 
HETATM   17  C   UNL     1     -22.004  -3.283 -12.005  1.00  0.00     0.005 C 
ENDBRANCH  15  16
ENDBRANCH  14  15
ENDBRANCH  13  14
ENDBRANCH  12  13
ENDBRANCH  10  11
ENDBRANCH   9  10
ENDBRANCH   7   8
ENDBRANCH   6   7
ENDBRANCH   4   5
ENDBRANCH   3   4
ENDBRANCH   1   2
BRANCH   1  18
HETATM   18  C   UNL     1     -22.962 -12.721  -1.089  1.00  0.00     0.013 C 
BRANCH  18  19
HETATM   19  C   UNL     1     -23.173 -13.795  -2.164  1.00  0.00     0.103 C 
BRANCH  19  20
HETATM   20  C   UNL     1     -22.492 -13.408  -3.468  1.00  0.00     0.217 C 
HETATM   21  O   UNL     1     -22.883 -13.790  -4.566  1.00  0.00    -0.274 OA
HETATM   22  N   UNL     1     -21.387 -12.600  -3.295  1.00  0.00    -0.357 N 
HETATM   23  H   UNL     1     -21.092 -12.341  -2.364  1.00  0.00     0.162 HD
BRANCH  22  24
HETATM   24  C   UNL     1     -20.590 -12.154  -4.418  1.00  0.00     0.161 C 
BRANCH  24  25
HETATM   25  C   UNL     1     -19.409 -11.329  -3.970  1.00  0.00    -0.038 A 
HETATM   26  C   UNL     1     -19.588 -10.305  -3.032  1.00  0.00     0.012 A 
HETATM   27  C   UNL     1     -18.503  -9.549  -2.590  1.00  0.00     0.040 A 
HETATM   28  C   UNL     1     -17.219  -9.812  -3.070  1.00  0.00     0.099 A 
HETATM   29  C   UNL     1     -17.005 -10.837  -3.997  1.00  0.00     0.101 A 
HETATM   30  C   UNL     1     -18.109 -11.591  -4.435  1.00  0.00     0.048 A 
BRANCH  28  31
HETATM   31  O   UNL     1     -16.191  -9.041  -2.601  1.00  0.00    -0.358 OA
HETATM   32  H   UNL     1     -16.557  -8.283  -2.120  1.00  0.00     0.217 HD
ENDBRANCH  28  31
BRANCH  29  33
HETATM   33  O   UNL     1     -15.818 -11.237  -4.557  1.00  0.00    -0.353 OA
HETATM   34  C   UNL     1     -15.636 -11.020  -5.951  1.00  0.00     0.210 C 
ENDBRANCH  29  33
ENDBRANCH  24  25
ENDBRANCH  22  24
ENDBRANCH  19  20
ENDBRANCH  18  19
ENDBRANCH   1  18
TORSDOF 18
ENDMDL
