REMARK  8 active torsions:
REMARK  status: ('A' for Active; 'I' for Inactive)
REMARK    1  A    between atoms: C_2  and  C_5 
REMARK    2  A    between atoms: C_8  and  C_9 
REMARK    3  A    between atoms: C_9  and  N_10 
REMARK    4  A    between atoms: N_10  and  C_11 
REMARK    5  A    between atoms: N_13  and  C_14 
REMARK    6  A    between atoms: C_14  and  C_15 
REMARK    7  A    between atoms: C_18  and  N_19 
REMARK    8  A    between atoms: N_19  and  S_20 
ROOT
HETATM    1  C   UNL     1       3.940   7.731   1.221  1.00  0.00     0.168 C 
HETATM    2  S   UNL     1       2.977   9.017   0.776  1.00  0.00    -0.041 SA
HETATM    3  N   UNL     1       5.128   7.970   1.817  1.00  0.00    -0.363 N 
HETATM    4  H   UNL     1       5.282   8.953   2.008  1.00  0.00     0.162 HD
ENDROOT
BRANCH   3   5
HETATM    5  C   UNL     1       6.332   7.158   1.785  1.00  0.00     0.160 C 
BRANCH   5   6
HETATM    6  C   UNL     1       7.282   7.458   0.652  1.00  0.00    -0.037 A 
HETATM    7  C   UNL     1       7.153   8.556  -0.215  1.00  0.00     0.011 A 
HETATM    8  C   UNL     1       8.036   8.727  -1.288  1.00  0.00     0.034 A 
HETATM    9  C   UNL     1       9.033   7.785  -1.520  1.00  0.00     0.081 A 
HETATM   10  C   UNL     1       9.190   6.717  -0.637  1.00  0.00     0.144 A 
HETATM   11  F   UNL     1      10.164   5.820  -0.837  1.00  0.00    -0.204 F 
HETATM   12  C   UNL     1       8.336   6.556   0.439  1.00  0.00     0.053 A 
BRANCH   9  13
HETATM   13  N   UNL     1       9.886   7.904  -2.657  1.00  0.00    -0.282 N 
HETATM   14  H   UNL     1      10.051   7.037  -3.172  1.00  0.00     0.178 HD
BRANCH  13  15
HETATM   15  S   UNL     1      11.276   8.839  -2.538  1.00  0.00     0.227 S 
HETATM   16  C   UNL     1      12.240   8.018  -1.280  1.00  0.00     0.186 C 
HETATM   17  O   UNL     1      11.972   8.660  -3.794  1.00  0.00    -0.206 OA
HETATM   18  O   UNL     1      10.920  10.155  -2.055  1.00  0.00    -0.206 OA
ENDBRANCH  13  15
ENDBRANCH   9  13
ENDBRANCH   5   6
ENDBRANCH   3   5
BRANCH   1  19
HETATM   19  N   UNL     1       3.511   6.474   0.990  1.00  0.00    -0.363 N 
HETATM   20  H   UNL     1       2.641   6.419   0.471  1.00  0.00     0.162 HD
BRANCH  19  21
HETATM   21  C   UNL     1       3.847   5.304   1.770  1.00  0.00     0.160 C 
BRANCH  21  22
HETATM   22  C   UNL     1       2.650   4.569   2.285  1.00  0.00    -0.041 A 
HETATM   23  C   UNL     1       2.519   3.206   2.024  1.00  0.00     0.009 A 
HETATM   24  C   UNL     1       1.477   2.478   2.592  1.00  0.00     0.008 A 
HETATM   25  C   UNL     1       0.533   3.088   3.433  1.00  0.00    -0.051 A 
HETATM   26  C   UNL     1       0.682   4.463   3.693  1.00  0.00     0.008 A 
HETATM   27  C   UNL     1       1.727   5.196   3.124  1.00  0.00     0.009 A 
BRANCH  25  28
HETATM   28  C   UNL     1      -0.636   2.301   4.042  1.00  0.00    -0.024 C 
HETATM   29  C   UNL     1      -0.660   0.819   3.604  1.00  0.00     0.019 C 
HETATM   30  C   UNL     1      -1.967   2.937   3.590  1.00  0.00     0.019 C 
HETATM   31  C   UNL     1      -0.552   2.328   5.581  1.00  0.00     0.019 C 
ENDBRANCH  25  28
ENDBRANCH  21  22
ENDBRANCH  19  21
ENDBRANCH   1  19
TORSDOF 8
