MODEL 1
REMARK VINA RESULT:      -9.3      0.000      0.000
REMARK  8 active torsions:
REMARK  status: ('A' for Active; 'I' for Inactive)
REMARK    1  A    between atoms: C_2  and  C_5 
REMARK    2  A    between atoms: C_8  and  C_9 
REMARK    3  A    between atoms: C_9  and  N_10 
REMARK    4  A    between atoms: N_10  and  C_11 
REMARK    5  A    between atoms: N_13  and  C_14 
REMARK    6  A    between atoms: C_14  and  C_15 
REMARK    7  A    between atoms: C_18  and  N_19 
REMARK    8  A    between atoms: N_19  and  S_20 
ROOT
HETATM    1  C   UNL     1     -21.219  -6.576  -5.917  1.00  0.00     0.168 C 
HETATM    2  S   UNL     1     -22.556  -6.418  -4.935  1.00  0.00    -0.041 SA
HETATM    3  N   UNL     1     -20.729  -5.487  -6.547  1.00  0.00    -0.363 N 
HETATM    4  H   UNL     1     -21.205  -4.632  -6.284  1.00  0.00     0.162 HD
ENDROOT
BRANCH   3   5
HETATM    5  C   UNL     1     -20.011  -5.421  -7.808  1.00  0.00     0.160 C 
BRANCH   5   6
HETATM    6  C   UNL     1     -20.740  -4.725  -8.931  1.00  0.00    -0.037 A 
HETATM    7  C   UNL     1     -20.182  -4.471 -10.195  1.00  0.00     0.011 A 
HETATM    8  C   UNL     1     -20.899  -3.756 -11.161  1.00  0.00     0.034 A 
HETATM    9  C   UNL     1     -22.165  -3.263 -10.860  1.00  0.00     0.081 A 
HETATM   10  C   UNL     1     -22.738  -3.550  -9.621  1.00  0.00     0.144 A 
HETATM   11  F   UNL     1     -23.967  -3.103  -9.332  1.00  0.00    -0.204 F 
HETATM   12  C   UNL     1     -22.044  -4.277  -8.671  1.00  0.00     0.053 A 
BRANCH   9  13
HETATM   13  N   UNL     1     -22.871  -2.463 -11.807  1.00  0.00    -0.282 N 
HETATM   14  H   UNL     1     -23.293  -1.612 -11.431  1.00  0.00     0.178 HD
BRANCH  13  15
HETATM   15  S   UNL     1     -23.870  -3.218 -12.926  1.00  0.00     0.227 S 
HETATM   16  C   UNL     1     -23.104  -2.858 -14.497  1.00  0.00     0.186 C 
HETATM   17  O   UNL     1     -23.714  -4.637 -12.690  1.00  0.00    -0.206 OA
HETATM   18  O   UNL     1     -25.172  -2.589 -12.897  1.00  0.00    -0.206 OA
ENDBRANCH  13  15
ENDBRANCH   9  13
ENDBRANCH   5   6
ENDBRANCH   3   5
BRANCH   1  19
HETATM   19  N   UNL     1     -20.640  -7.786  -6.056  1.00  0.00    -0.363 N 
HETATM   20  H   UNL     1     -21.145  -8.422  -6.665  1.00  0.00     0.162 HD
BRANCH  19  21
HETATM   21  C   UNL     1     -19.734  -8.409  -5.117  1.00  0.00     0.160 C 
BRANCH  21  22
HETATM   22  C   UNL     1     -20.414  -8.925  -3.889  1.00  0.00    -0.041 A 
HETATM   23  C   UNL     1     -20.184  -8.300  -2.665  1.00  0.00     0.009 A 
HETATM   24  C   UNL     1     -20.895  -8.687  -1.532  1.00  0.00     0.008 A 
HETATM   25  C   UNL     1     -21.853  -9.713  -1.586  1.00  0.00    -0.051 A 
HETATM   26  C   UNL     1     -22.079 -10.330  -2.830  1.00  0.00     0.008 A 
HETATM   27  C   UNL     1     -21.367  -9.943  -3.968  1.00  0.00     0.009 A 
BRANCH  25  28
HETATM   28  C   UNL     1     -22.622 -10.167  -0.338  1.00  0.00    -0.024 C 
HETATM   29  C   UNL     1     -23.840 -11.059  -0.670  1.00  0.00     0.019 C 
HETATM   30  C   UNL     1     -23.150  -8.927   0.414  1.00  0.00     0.019 C 
HETATM   31  C   UNL     1     -21.697 -10.975   0.594  1.00  0.00     0.019 C 
ENDBRANCH  25  28
ENDBRANCH  21  22
ENDBRANCH  19  21
ENDBRANCH   1  19
TORSDOF 8
ENDMDL
MODEL 2
REMARK VINA RESULT:      -8.6      1.332      1.883
REMARK  8 active torsions:
REMARK  status: ('A' for Active; 'I' for Inactive)
REMARK    1  A    between atoms: C_2  and  C_5 
REMARK    2  A    between atoms: C_8  and  C_9 
REMARK    3  A    between atoms: C_9  and  N_10 
REMARK    4  A    between atoms: N_10  and  C_11 
REMARK    5  A    between atoms: N_13  and  C_14 
REMARK    6  A    between atoms: C_14  and  C_15 
REMARK    7  A    between atoms: C_18  and  N_19 
REMARK    8  A    between atoms: N_19  and  S_20 
ROOT
HETATM    1  C   UNL     1     -20.749  -6.693  -5.113  1.00  0.00     0.168 C 
HETATM    2  S   UNL     1     -21.678  -6.178  -3.829  1.00  0.00    -0.041 SA
HETATM    3  N   UNL     1     -20.222  -5.780  -5.956  1.00  0.00    -0.363 N 
HETATM    4  H   UNL     1     -20.394  -4.826  -5.661  1.00  0.00     0.162 HD
ENDROOT
BRANCH   3   5
HETATM    5  C   UNL     1     -19.896  -5.934  -7.363  1.00  0.00     0.160 C 
BRANCH   5   6
HETATM    6  C   UNL     1     -20.646  -5.022  -8.302  1.00  0.00    -0.037 A 
HETATM    7  C   UNL     1     -21.929  -4.509  -8.046  1.00  0.00     0.011 A 
HETATM    8  C   UNL     1     -22.589  -3.725  -9.000  1.00  0.00     0.034 A 
HETATM    9  C   UNL     1     -21.984  -3.476 -10.228  1.00  0.00     0.081 A 
HETATM   10  C   UNL     1     -20.694  -3.947 -10.469  1.00  0.00     0.144 A 
HETATM   11  F   UNL     1     -20.094  -3.689 -11.638  1.00  0.00    -0.204 F 
HETATM   12  C   UNL     1     -20.027  -4.702  -9.521  1.00  0.00     0.053 A 
BRANCH   9  13
HETATM   13  N   UNL     1     -22.680  -2.748 -11.239  1.00  0.00    -0.282 N 
HETATM   14  H   UNL     1     -22.989  -1.812 -10.969  1.00  0.00     0.178 HD
BRANCH  13  15
HETATM   15  S   UNL     1     -23.827  -3.545 -12.172  1.00  0.00     0.227 S 
HETATM   16  C   UNL     1     -23.443  -3.046 -13.842  1.00  0.00     0.186 C 
HETATM   17  O   UNL     1     -23.507  -4.952 -12.062  1.00  0.00    -0.206 OA
HETATM   18  O   UNL     1     -25.141  -3.043 -11.836  1.00  0.00    -0.206 OA
ENDBRANCH  13  15
ENDBRANCH   9  13
ENDBRANCH   5   6
ENDBRANCH   3   5
BRANCH   1  19
HETATM   19  N   UNL     1     -20.528  -8.013  -5.281  1.00  0.00    -0.363 N 
HETATM   20  H   UNL     1     -21.203  -8.475  -5.881  1.00  0.00     0.162 HD
BRANCH  19  21
HETATM   21  C   UNL     1     -19.804  -8.876  -4.375  1.00  0.00     0.160 C 
BRANCH  21  22
HETATM   22  C   UNL     1     -20.681  -9.549  -3.367  1.00  0.00    -0.041 A 
HETATM   23  C   UNL     1     -21.849 -10.181  -3.790  1.00  0.00     0.009 A 
HETATM   24  C   UNL     1     -22.618 -10.914  -2.890  1.00  0.00     0.008 A 
HETATM   25  C   UNL     1     -22.247 -11.035  -1.541  1.00  0.00    -0.051 A 
HETATM   26  C   UNL     1     -21.061 -10.398  -1.130  1.00  0.00     0.008 A 
HETATM   27  C   UNL     1     -20.288  -9.661  -2.032  1.00  0.00     0.009 A 
BRANCH  25  28
HETATM   28  C   UNL     1     -23.101 -11.818  -0.534  1.00  0.00    -0.024 C 
HETATM   29  C   UNL     1     -23.790 -13.053  -1.157  1.00  0.00     0.019 C 
HETATM   30  C   UNL     1     -24.212 -10.897   0.013  1.00  0.00     0.019 C 
HETATM   31  C   UNL     1     -22.227 -12.315   0.634  1.00  0.00     0.019 C 
ENDBRANCH  25  28
ENDBRANCH  21  22
ENDBRANCH  19  21
ENDBRANCH   1  19
TORSDOF 8
ENDMDL
MODEL 3
REMARK VINA RESULT:      -8.3      3.200      4.682
REMARK  8 active torsions:
REMARK  status: ('A' for Active; 'I' for Inactive)
REMARK    1  A    between atoms: C_2  and  C_5 
REMARK    2  A    between atoms: C_8  and  C_9 
REMARK    3  A    between atoms: C_9  and  N_10 
REMARK    4  A    between atoms: N_10  and  C_11 
REMARK    5  A    between atoms: N_13  and  C_14 
REMARK    6  A    between atoms: C_14  and  C_15 
REMARK    7  A    between atoms: C_18  and  N_19 
REMARK    8  A    between atoms: N_19  and  S_20 
ROOT
HETATM    1  C   UNL     1     -20.652  -6.799  -4.907  1.00  0.00     0.168 C 
HETATM    2  S   UNL     1     -21.754  -6.549  -3.681  1.00  0.00    -0.041 SA
HETATM    3  N   UNL     1     -20.438  -5.821  -5.813  1.00  0.00    -0.363 N 
HETATM    4  H   UNL     1     -20.940  -4.968  -5.598  1.00  0.00     0.162 HD
ENDROOT
BRANCH   3   5
HETATM    5  C   UNL     1     -20.021  -5.951  -7.198  1.00  0.00     0.160 C 
BRANCH   5   6
HETATM    6  C   UNL     1     -20.729  -5.042  -8.173  1.00  0.00    -0.037 A 
HETATM    7  C   UNL     1     -22.013  -4.512  -7.966  1.00  0.00     0.011 A 
HETATM    8  C   UNL     1     -22.632  -3.732  -8.950  1.00  0.00     0.034 A 
HETATM    9  C   UNL     1     -21.983  -3.504 -10.160  1.00  0.00     0.081 A 
HETATM   10  C   UNL     1     -20.692  -3.993 -10.352  1.00  0.00     0.144 A 
HETATM   11  F   UNL     1     -20.049  -3.755 -11.503  1.00  0.00    -0.204 F 
HETATM   12  C   UNL     1     -20.066  -4.744  -9.373  1.00  0.00     0.053 A 
BRANCH   9  13
HETATM   13  N   UNL     1     -22.636  -2.780 -11.202  1.00  0.00    -0.282 N 
HETATM   14  H   UNL     1     -22.904  -1.823 -10.967  1.00  0.00     0.178 HD
BRANCH  13  15
HETATM   15  S   UNL     1     -23.810  -3.555 -12.119  1.00  0.00     0.227 S 
HETATM   16  C   UNL     1     -23.462  -3.036 -13.791  1.00  0.00     0.186 C 
HETATM   17  O   UNL     1     -23.498  -4.966 -12.036  1.00  0.00    -0.206 OA
HETATM   18  O   UNL     1     -25.113  -3.049 -11.745  1.00  0.00    -0.206 OA
ENDBRANCH  13  15
ENDBRANCH   9  13
ENDBRANCH   5   6
ENDBRANCH   3   5
BRANCH   1  19
HETATM   19  N   UNL     1     -19.983  -7.968  -4.965  1.00  0.00    -0.363 N 
HETATM   20  H   UNL     1     -20.249  -8.562  -5.743  1.00  0.00     0.162 HD
BRANCH  19  21
HETATM   21  C   UNL     1     -19.349  -8.641  -3.853  1.00  0.00     0.160 C 
BRANCH  21  22
HETATM   22  C   UNL     1     -18.209  -9.520  -4.262  1.00  0.00    -0.041 A 
HETATM   23  C   UNL     1     -17.443 -10.147  -3.281  1.00  0.00     0.009 A 
HETATM   24  C   UNL     1     -16.454 -11.060  -3.638  1.00  0.00     0.008 A 
HETATM   25  C   UNL     1     -16.198 -11.372  -4.983  1.00  0.00    -0.051 A 
HETATM   26  C   UNL     1     -16.985 -10.736  -5.961  1.00  0.00     0.008 A 
HETATM   27  C   UNL     1     -17.977  -9.819  -5.606  1.00  0.00     0.009 A 
BRANCH  25  28
HETATM   28  C   UNL     1     -15.092 -12.356  -5.389  1.00  0.00    -0.024 C 
HETATM   29  C   UNL     1     -15.583 -13.819  -5.465  1.00  0.00     0.019 C 
HETATM   30  C   UNL     1     -13.958 -12.304  -4.345  1.00  0.00     0.019 C 
HETATM   31  C   UNL     1     -14.530 -11.983  -6.775  1.00  0.00     0.019 C 
ENDBRANCH  25  28
ENDBRANCH  21  22
ENDBRANCH  19  21
ENDBRANCH   1  19
TORSDOF 8
ENDMDL
MODEL 4
REMARK VINA RESULT:      -8.2      4.060      5.448
REMARK  8 active torsions:
REMARK  status: ('A' for Active; 'I' for Inactive)
REMARK    1  A    between atoms: C_2  and  C_5 
REMARK    2  A    between atoms: C_8  and  C_9 
REMARK    3  A    between atoms: C_9  and  N_10 
REMARK    4  A    between atoms: N_10  and  C_11 
REMARK    5  A    between atoms: N_13  and  C_14 
REMARK    6  A    between atoms: C_14  and  C_15 
REMARK    7  A    between atoms: C_18  and  N_19 
REMARK    8  A    between atoms: N_19  and  S_20 
ROOT
HETATM    1  C   UNL     1     -20.331  -8.238  -3.906  1.00  0.00     0.168 C 
HETATM    2  S   UNL     1     -21.407  -8.745  -2.737  1.00  0.00    -0.041 SA
HETATM    3  N   UNL     1     -20.655  -7.188  -4.691  1.00  0.00    -0.363 N 
HETATM    4  H   UNL     1     -21.528  -6.751  -4.424  1.00  0.00     0.162 HD
ENDROOT
BRANCH   3   5
HETATM    5  C   UNL     1     -20.226  -6.915  -6.052  1.00  0.00     0.160 C 
BRANCH   5   6
HETATM    6  C   UNL     1     -21.019  -5.855  -6.777  1.00  0.00    -0.037 A 
HETATM    7  C   UNL     1     -22.280  -5.395  -6.365  1.00  0.00     0.011 A 
HETATM    8  C   UNL     1     -22.985  -4.459  -7.131  1.00  0.00     0.034 A 
HETATM    9  C   UNL     1     -22.448  -4.002  -8.330  1.00  0.00     0.081 A 
HETATM   10  C   UNL     1     -21.177  -4.425  -8.721  1.00  0.00     0.144 A 
HETATM   11  F   UNL     1     -20.641  -3.970  -9.860  1.00  0.00    -0.204 F 
HETATM   12  C   UNL     1     -20.466  -5.331  -7.956  1.00  0.00     0.053 A 
BRANCH   9  13
HETATM   13  N   UNL     1     -23.192  -3.112  -9.160  1.00  0.00    -0.282 N 
HETATM   14  H   UNL     1     -23.563  -2.284  -8.691  1.00  0.00     0.178 HD
BRANCH  13  15
HETATM   15  S   UNL     1     -24.283  -3.750 -10.265  1.00  0.00     0.227 S 
HETATM   16  C   UNL     1     -23.771  -3.055 -11.827  1.00  0.00     0.186 C 
HETATM   17  O   UNL     1     -24.000  -5.168 -10.316  1.00  0.00    -0.206 OA
HETATM   18  O   UNL     1     -25.608  -3.258  -9.958  1.00  0.00    -0.206 OA
ENDBRANCH  13  15
ENDBRANCH   9  13
ENDBRANCH   5   6
ENDBRANCH   3   5
BRANCH   1  19
HETATM   19  N   UNL     1     -19.151  -8.877  -4.039  1.00  0.00    -0.363 N 
HETATM   20  H   UNL     1     -19.083  -9.458  -4.868  1.00  0.00     0.162 HD
BRANCH  19  21
HETATM   21  C   UNL     1     -18.238  -9.208  -2.968  1.00  0.00     0.160 C 
BRANCH  21  22
HETATM   22  C   UNL     1     -17.222 -10.237  -3.350  1.00  0.00    -0.041 A 
HETATM   23  C   UNL     1     -17.184 -10.707  -4.661  1.00  0.00     0.009 A 
HETATM   24  C   UNL     1     -16.173 -11.574  -5.068  1.00  0.00     0.008 A 
HETATM   25  C   UNL     1     -15.174 -12.001  -4.179  1.00  0.00    -0.051 A 
HETATM   26  C   UNL     1     -15.222 -11.512  -2.860  1.00  0.00     0.008 A 
HETATM   27  C   UNL     1     -16.235 -10.642  -2.449  1.00  0.00     0.009 A 
BRANCH  25  28
HETATM   28  C   UNL     1     -14.072 -12.979  -4.610  1.00  0.00    -0.024 C 
HETATM   29  C   UNL     1     -13.363 -12.554  -5.916  1.00  0.00     0.019 C 
HETATM   30  C   UNL     1     -14.693 -14.370  -4.854  1.00  0.00     0.019 C 
HETATM   31  C   UNL     1     -12.995 -13.084  -3.512  1.00  0.00     0.019 C 
ENDBRANCH  25  28
ENDBRANCH  21  22
ENDBRANCH  19  21
ENDBRANCH   1  19
TORSDOF 8
ENDMDL
MODEL 5
REMARK VINA RESULT:      -8.0      1.763      2.493
REMARK  8 active torsions:
REMARK  status: ('A' for Active; 'I' for Inactive)
REMARK    1  A    between atoms: C_2  and  C_5 
REMARK    2  A    between atoms: C_8  and  C_9 
REMARK    3  A    between atoms: C_9  and  N_10 
REMARK    4  A    between atoms: N_10  and  C_11 
REMARK    5  A    between atoms: N_13  and  C_14 
REMARK    6  A    between atoms: C_14  and  C_15 
REMARK    7  A    between atoms: C_18  and  N_19 
REMARK    8  A    between atoms: N_19  and  S_20 
ROOT
HETATM    1  C   UNL     1     -20.529  -7.895  -4.615  1.00  0.00     0.168 C 
HETATM    2  S   UNL     1     -19.253  -8.965  -4.542  1.00  0.00    -0.041 SA
HETATM    3  N   UNL     1     -20.590  -7.006  -5.630  1.00  0.00    -0.363 N 
HETATM    4  H   UNL     1     -19.856  -7.141  -6.315  1.00  0.00     0.162 HD
ENDROOT
BRANCH   3   5
HETATM    5  C   UNL     1     -21.199  -5.688  -5.639  1.00  0.00     0.160 C 
BRANCH   5   6
HETATM    6  C   UNL     1     -21.498  -5.125  -7.007  1.00  0.00    -0.037 A 
HETATM    7  C   UNL     1     -20.577  -5.100  -8.067  1.00  0.00     0.011 A 
HETATM    8  C   UNL     1     -20.907  -4.496  -9.286  1.00  0.00     0.034 A 
HETATM    9  C   UNL     1     -22.147  -3.885  -9.442  1.00  0.00     0.081 A 
HETATM   10  C   UNL     1     -23.079  -3.944  -8.406  1.00  0.00     0.144 A 
HETATM   11  F   UNL     1     -24.285  -3.382  -8.557  1.00  0.00    -0.204 F 
HETATM   12  C   UNL     1     -22.768  -4.561  -7.208  1.00  0.00     0.053 A 
BRANCH   9  13
HETATM   13  N   UNL     1     -22.463  -3.194 -10.649  1.00  0.00    -0.282 N 
HETATM   14  H   UNL     1     -22.481  -2.175 -10.578  1.00  0.00     0.178 HD
BRANCH  13  15
HETATM   15  S   UNL     1     -23.703  -3.778 -11.620  1.00  0.00     0.227 S 
HETATM   16  C   UNL     1     -23.271  -3.211 -13.257  1.00  0.00     0.186 C 
HETATM   17  O   UNL     1     -23.555  -5.217 -11.614  1.00  0.00    -0.206 OA
HETATM   18  O   UNL     1     -24.945  -3.147 -11.231  1.00  0.00    -0.206 OA
ENDBRANCH  13  15
ENDBRANCH   9  13
ENDBRANCH   5   6
ENDBRANCH   3   5
BRANCH   1  19
HETATM   19  N   UNL     1     -21.486  -7.943  -3.666  1.00  0.00    -0.363 N 
HETATM   20  H   UNL     1     -22.380  -7.560  -3.956  1.00  0.00     0.162 HD
BRANCH  19  21
HETATM   21  C   UNL     1     -21.266  -8.002  -2.239  1.00  0.00     0.160 C 
BRANCH  21  22
HETATM   22  C   UNL     1     -21.501  -9.359  -1.656  1.00  0.00    -0.041 A 
HETATM   23  C   UNL     1     -21.036  -9.644  -0.374  1.00  0.00     0.009 A 
HETATM   24  C   UNL     1     -21.346 -10.858   0.234  1.00  0.00     0.008 A 
HETATM   25  C   UNL     1     -22.124 -11.825  -0.422  1.00  0.00    -0.051 A 
HETATM   26  C   UNL     1     -22.593 -11.521  -1.713  1.00  0.00     0.008 A 
HETATM   27  C   UNL     1     -22.283 -10.303  -2.325  1.00  0.00     0.009 A 
BRANCH  25  28
HETATM   28  C   UNL     1     -22.449 -13.178   0.227  1.00  0.00    -0.024 C 
HETATM   29  C   UNL     1     -23.439 -13.061   1.408  1.00  0.00     0.019 C 
HETATM   30  C   UNL     1     -21.149 -13.803   0.777  1.00  0.00     0.019 C 
HETATM   31  C   UNL     1     -23.075 -14.130  -0.811  1.00  0.00     0.019 C 
ENDBRANCH  25  28
ENDBRANCH  21  22
ENDBRANCH  19  21
ENDBRANCH   1  19
TORSDOF 8
ENDMDL
MODEL 6
REMARK VINA RESULT:      -7.9      2.723      3.776
REMARK  8 active torsions:
REMARK  status: ('A' for Active; 'I' for Inactive)
REMARK    1  A    between atoms: C_2  and  C_5 
REMARK    2  A    between atoms: C_8  and  C_9 
REMARK    3  A    between atoms: C_9  and  N_10 
REMARK    4  A    between atoms: N_10  and  C_11 
REMARK    5  A    between atoms: N_13  and  C_14 
REMARK    6  A    between atoms: C_14  and  C_15 
REMARK    7  A    between atoms: C_18  and  N_19 
REMARK    8  A    between atoms: N_19  and  S_20 
ROOT
HETATM    1  C   UNL     1     -21.010  -6.982  -5.178  1.00  0.00     0.168 C 
HETATM    2  S   UNL     1     -21.975  -6.530  -3.895  1.00  0.00    -0.041 SA
HETATM    3  N   UNL     1     -20.156  -6.082  -5.711  1.00  0.00    -0.363 N 
HETATM    4  H   UNL     1     -20.137  -5.206  -5.202  1.00  0.00     0.162 HD
ENDROOT
BRANCH   3   5
HETATM    5  C   UNL     1     -19.664  -6.005  -7.076  1.00  0.00     0.160 C 
BRANCH   5   6
HETATM    6  C   UNL     1     -20.459  -5.114  -7.998  1.00  0.00    -0.037 A 
HETATM    7  C   UNL     1     -21.722  -4.582  -7.686  1.00  0.00     0.011 A 
HETATM    8  C   UNL     1     -22.429  -3.821  -8.624  1.00  0.00     0.034 A 
HETATM    9  C   UNL     1     -21.893  -3.614  -9.891  1.00  0.00     0.081 A 
HETATM   10  C   UNL     1     -20.622  -4.105 -10.190  1.00  0.00     0.144 A 
HETATM   11  F   UNL     1     -20.087  -3.887 -11.399  1.00  0.00    -0.204 F 
HETATM   12  C   UNL     1     -19.908  -4.837  -9.259  1.00  0.00     0.053 A 
BRANCH   9  13
HETATM   13  N   UNL     1     -22.639  -2.911 -10.883  1.00  0.00    -0.282 N 
HETATM   14  H   UNL     1     -22.745  -1.908 -10.720  1.00  0.00     0.178 HD
BRANCH  13  15
HETATM   15  S   UNL     1     -24.046  -3.602 -11.485  1.00  0.00     0.227 S 
HETATM   16  C   UNL     1     -24.265  -2.816 -13.073  1.00  0.00     0.186 C 
HETATM   17  O   UNL     1     -23.720  -4.989 -11.737  1.00  0.00    -0.206 OA
HETATM   18  O   UNL     1     -25.156  -3.231 -10.635  1.00  0.00    -0.206 OA
ENDBRANCH  13  15
ENDBRANCH   9  13
ENDBRANCH   5   6
ENDBRANCH   3   5
BRANCH   1  19
HETATM   19  N   UNL     1     -21.089  -8.241  -5.652  1.00  0.00    -0.363 N 
HETATM   20  H   UNL     1     -21.418  -8.306  -6.609  1.00  0.00     0.162 HD
BRANCH  19  21
HETATM   21  C   UNL     1     -21.235  -9.441  -4.859  1.00  0.00     0.160 C 
BRANCH  21  22
HETATM   22  C   UNL     1     -19.939  -9.960  -4.320  1.00  0.00    -0.041 A 
HETATM   23  C   UNL     1     -19.947 -10.799  -3.207  1.00  0.00     0.009 A 
HETATM   24  C   UNL     1     -18.767 -11.388  -2.762  1.00  0.00     0.008 A 
HETATM   25  C   UNL     1     -17.544 -11.154  -3.410  1.00  0.00    -0.051 A 
HETATM   26  C   UNL     1     -17.553 -10.311  -4.537  1.00  0.00     0.008 A 
HETATM   27  C   UNL     1     -18.736  -9.718  -4.986  1.00  0.00     0.009 A 
BRANCH  25  28
HETATM   28  C   UNL     1     -16.232 -11.776  -2.911  1.00  0.00    -0.024 C 
HETATM   29  C   UNL     1     -15.763 -11.192  -1.559  1.00  0.00     0.019 C 
HETATM   30  C   UNL     1     -15.117 -11.505  -3.942  1.00  0.00     0.019 C 
HETATM   31  C   UNL     1     -16.400 -13.297  -2.726  1.00  0.00     0.019 C 
ENDBRANCH  25  28
ENDBRANCH  21  22
ENDBRANCH  19  21
ENDBRANCH   1  19
TORSDOF 8
ENDMDL
MODEL 7
REMARK VINA RESULT:      -7.9      6.377     11.295
REMARK  8 active torsions:
REMARK  status: ('A' for Active; 'I' for Inactive)
REMARK    1  A    between atoms: C_2  and  C_5 
REMARK    2  A    between atoms: C_8  and  C_9 
REMARK    3  A    between atoms: C_9  and  N_10 
REMARK    4  A    between atoms: N_10  and  C_11 
REMARK    5  A    between atoms: N_13  and  C_14 
REMARK    6  A    between atoms: C_14  and  C_15 
REMARK    7  A    between atoms: C_18  and  N_19 
REMARK    8  A    between atoms: N_19  and  S_20 
ROOT
HETATM    1  C   UNL     1     -21.175  -7.037  -3.721  1.00  0.00     0.168 C 
HETATM    2  S   UNL     1     -21.795  -6.191  -2.425  1.00  0.00    -0.041 SA
HETATM    3  N   UNL     1     -20.488  -8.178  -3.498  1.00  0.00    -0.363 N 
HETATM    4  H   UNL     1     -20.486  -8.452  -2.523  1.00  0.00     0.162 HD
ENDROOT
BRANCH   3   5
HETATM    5  C   UNL     1     -19.425  -8.761  -4.298  1.00  0.00     0.160 C 
BRANCH   5   6
HETATM    6  C   UNL     1     -18.614  -9.832  -3.611  1.00  0.00    -0.037 A 
HETATM    7  C   UNL     1     -19.072 -11.139  -3.377  1.00  0.00     0.011 A 
HETATM    8  C   UNL     1     -18.285 -12.056  -2.669  1.00  0.00     0.034 A 
HETATM    9  C   UNL     1     -17.051 -11.662  -2.163  1.00  0.00     0.081 A 
HETATM   10  C   UNL     1     -16.575 -10.379  -2.430  1.00  0.00     0.144 A 
HETATM   11  F   UNL     1     -15.376  -9.999  -1.969  1.00  0.00    -0.204 F 
HETATM   12  C   UNL     1     -17.337  -9.476  -3.150  1.00  0.00     0.053 A 
BRANCH   9  13
HETATM   13  N   UNL     1     -16.278 -12.561  -1.370  1.00  0.00    -0.282 N 
HETATM   14  H   UNL     1     -16.243 -13.524  -1.710  1.00  0.00     0.178 HD
BRANCH  13  15
HETATM   15  S   UNL     1     -16.406 -12.488   0.303  1.00  0.00     0.227 S 
HETATM   16  C   UNL     1     -16.047 -14.154   0.834  1.00  0.00     0.186 C 
HETATM   17  O   UNL     1     -15.308 -11.654   0.740  1.00  0.00    -0.206 OA
HETATM   18  O   UNL     1     -17.774 -12.180   0.658  1.00  0.00    -0.206 OA
ENDBRANCH  13  15
ENDBRANCH   9  13
ENDBRANCH   5   6
ENDBRANCH   3   5
BRANCH   1  19
HETATM   19  N   UNL     1     -21.381  -6.575  -4.971  1.00  0.00    -0.363 N 
HETATM   20  H   UNL     1     -21.685  -7.282  -5.632  1.00  0.00     0.162 HD
BRANCH  19  21
HETATM   21  C   UNL     1     -20.780  -5.396  -5.551  1.00  0.00     0.160 C 
BRANCH  21  22
HETATM   22  C   UNL     1     -21.296  -5.077  -6.919  1.00  0.00    -0.041 A 
HETATM   23  C   UNL     1     -22.613  -4.648  -7.071  1.00  0.00     0.009 A 
HETATM   24  C   UNL     1     -23.078  -4.233  -8.316  1.00  0.00     0.008 A 
HETATM   25  C   UNL     1     -22.246  -4.238  -9.446  1.00  0.00    -0.051 A 
HETATM   26  C   UNL     1     -20.916  -4.668  -9.276  1.00  0.00     0.008 A 
HETATM   27  C   UNL     1     -20.447  -5.085  -8.027  1.00  0.00     0.009 A 
BRANCH  25  28
HETATM   28  C   UNL     1     -22.756  -3.810 -10.829  1.00  0.00    -0.024 C 
HETATM   29  C   UNL     1     -22.976  -5.002 -11.788  1.00  0.00     0.019 C 
HETATM   30  C   UNL     1     -21.720  -2.875 -11.486  1.00  0.00     0.019 C 
HETATM   31  C   UNL     1     -24.102  -3.070 -10.695  1.00  0.00     0.019 C 
ENDBRANCH  25  28
ENDBRANCH  21  22
ENDBRANCH  19  21
ENDBRANCH   1  19
TORSDOF 8
ENDMDL
MODEL 8
REMARK VINA RESULT:      -7.7     18.037     19.683
REMARK  8 active torsions:
REMARK  status: ('A' for Active; 'I' for Inactive)
REMARK    1  A    between atoms: C_2  and  C_5 
REMARK    2  A    between atoms: C_8  and  C_9 
REMARK    3  A    between atoms: C_9  and  N_10 
REMARK    4  A    between atoms: N_10  and  C_11 
REMARK    5  A    between atoms: N_13  and  C_14 
REMARK    6  A    between atoms: C_14  and  C_15 
REMARK    7  A    between atoms: C_18  and  N_19 
REMARK    8  A    between atoms: N_19  and  S_20 
ROOT
HETATM    1  C   UNL     1     -22.020  10.148   5.017  1.00  0.00     0.168 C 
HETATM    2  S   UNL     1     -22.211  11.219   6.280  1.00  0.00    -0.041 SA
HETATM    3  N   UNL     1     -21.308   9.017   5.211  1.00  0.00    -0.363 N 
HETATM    4  H   UNL     1     -21.013   8.897   6.173  1.00  0.00     0.162 HD
ENDROOT
BRANCH   3   5
HETATM    5  C   UNL     1     -20.543   8.255   4.239  1.00  0.00     0.160 C 
BRANCH   5   6
HETATM    6  C   UNL     1     -19.232   8.873   3.823  1.00  0.00    -0.037 A 
HETATM    7  C   UNL     1     -18.916   9.241   2.504  1.00  0.00     0.011 A 
HETATM    8  C   UNL     1     -17.649   9.744   2.186  1.00  0.00     0.034 A 
HETATM    9  C   UNL     1     -16.679   9.853   3.177  1.00  0.00     0.081 A 
HETATM   10  C   UNL     1     -17.002   9.529   4.495  1.00  0.00     0.144 A 
HETATM   11  F   UNL     1     -16.083   9.656   5.460  1.00  0.00    -0.204 F 
HETATM   12  C   UNL     1     -18.260   9.054   4.820  1.00  0.00     0.053 A 
BRANCH   9  13
HETATM   13  N   UNL     1     -15.360  10.286   2.850  1.00  0.00    -0.282 N 
HETATM   14  H   UNL     1     -15.306  11.034   2.156  1.00  0.00     0.178 HD
BRANCH  13  15
HETATM   15  S   UNL     1     -14.156   9.136   2.632  1.00  0.00     0.227 S 
HETATM   16  C   UNL     1     -13.119   9.835   1.358  1.00  0.00     0.186 C 
HETATM   17  O   UNL     1     -13.389   9.141   3.858  1.00  0.00    -0.206 OA
HETATM   18  O   UNL     1     -14.751   7.921   2.120  1.00  0.00    -0.206 OA
ENDBRANCH  13  15
ENDBRANCH   9  13
ENDBRANCH   5   6
ENDBRANCH   3   5
BRANCH   1  19
HETATM   19  N   UNL     1     -22.591  10.422   3.827  1.00  0.00    -0.363 N 
HETATM   20  H   UNL     1     -22.199  11.228   3.352  1.00  0.00     0.162 HD
BRANCH  19  21
HETATM   21  C   UNL     1     -23.925  10.044   3.416  1.00  0.00     0.160 C 
BRANCH  21  22
HETATM   22  C   UNL     1     -23.970   9.391   2.071  1.00  0.00    -0.041 A 
HETATM   23  C   UNL     1     -22.781   8.985   1.467  1.00  0.00     0.009 A 
HETATM   24  C   UNL     1     -22.807   8.270   0.273  1.00  0.00     0.008 A 
HETATM   25  C   UNL     1     -24.019   7.943  -0.357  1.00  0.00    -0.051 A 
HETATM   26  C   UNL     1     -25.211   8.353   0.269  1.00  0.00     0.008 A 
HETATM   27  C   UNL     1     -25.187   9.071   1.468  1.00  0.00     0.009 A 
BRANCH  25  28
HETATM   28  C   UNL     1     -24.059   7.180  -1.688  1.00  0.00    -0.024 C 
HETATM   29  C   UNL     1     -23.929   5.650  -1.512  1.00  0.00     0.019 C 
HETATM   30  C   UNL     1     -22.884   7.643  -2.574  1.00  0.00     0.019 C 
HETATM   31  C   UNL     1     -25.389   7.451  -2.418  1.00  0.00     0.019 C 
ENDBRANCH  25  28
ENDBRANCH  21  22
ENDBRANCH  19  21
ENDBRANCH   1  19
TORSDOF 8
ENDMDL
MODEL 9
REMARK VINA RESULT:      -7.7      5.925     10.330
REMARK  8 active torsions:
REMARK  status: ('A' for Active; 'I' for Inactive)
REMARK    1  A    between atoms: C_2  and  C_5 
REMARK    2  A    between atoms: C_8  and  C_9 
REMARK    3  A    between atoms: C_9  and  N_10 
REMARK    4  A    between atoms: N_10  and  C_11 
REMARK    5  A    between atoms: N_13  and  C_14 
REMARK    6  A    between atoms: C_14  and  C_15 
REMARK    7  A    between atoms: C_18  and  N_19 
REMARK    8  A    between atoms: N_19  and  S_20 
ROOT
HETATM    1  C   UNL     1     -21.132  -7.146  -4.181  1.00  0.00     0.168 C 
HETATM    2  S   UNL     1     -21.427  -6.219  -2.827  1.00  0.00    -0.041 SA
HETATM    3  N   UNL     1     -21.435  -8.462  -4.160  1.00  0.00    -0.363 N 
HETATM    4  H   UNL     1     -21.903  -8.745  -3.307  1.00  0.00     0.162 HD
ENDROOT
BRANCH   3   5
HETATM    5  C   UNL     1     -20.809  -9.543  -4.901  1.00  0.00     0.160 C 
BRANCH   5   6
HETATM    6  C   UNL     1     -19.361  -9.802  -4.563  1.00  0.00    -0.037 A 
HETATM    7  C   UNL     1     -18.300  -9.643  -5.470  1.00  0.00     0.011 A 
HETATM    8  C   UNL     1     -16.989  -9.971  -5.101  1.00  0.00     0.034 A 
HETATM    9  C   UNL     1     -16.737 -10.491  -3.835  1.00  0.00     0.081 A 
HETATM   10  C   UNL     1     -17.781 -10.610  -2.919  1.00  0.00     0.144 A 
HETATM   11  F   UNL     1     -17.543 -11.084  -1.689  1.00  0.00    -0.204 F 
HETATM   12  C   UNL     1     -19.074 -10.264  -3.269  1.00  0.00     0.053 A 
BRANCH   9  13
HETATM   13  N   UNL     1     -15.420 -10.906  -3.477  1.00  0.00    -0.282 N 
HETATM   14  H   UNL     1     -14.697 -10.190  -3.566  1.00  0.00     0.178 HD
BRANCH  13  15
HETATM   15  S   UNL     1     -14.877 -12.414  -3.978  1.00  0.00     0.227 S 
HETATM   16  C   UNL     1     -13.875 -12.055  -5.411  1.00  0.00     0.186 C 
HETATM   17  O   UNL     1     -13.983 -12.870  -2.936  1.00  0.00    -0.206 OA
HETATM   18  O   UNL     1     -16.010 -13.208  -4.399  1.00  0.00    -0.206 OA
ENDBRANCH  13  15
ENDBRANCH   9  13
ENDBRANCH   5   6
ENDBRANCH   3   5
BRANCH   1  19
HETATM   19  N   UNL     1     -20.608  -6.564  -5.279  1.00  0.00    -0.363 N 
HETATM   20  H   UNL     1     -19.826  -7.068  -5.684  1.00  0.00     0.162 HD
BRANCH  19  21
HETATM   21  C   UNL     1     -20.691  -5.162  -5.619  1.00  0.00     0.160 C 
BRANCH  21  22
HETATM   22  C   UNL     1     -21.331  -4.910  -6.948  1.00  0.00    -0.041 A 
HETATM   23  C   UNL     1     -22.697  -4.638  -7.010  1.00  0.00     0.009 A 
HETATM   24  C   UNL     1     -23.290  -4.285  -8.219  1.00  0.00     0.008 A 
HETATM   25  C   UNL     1     -22.540  -4.195  -9.402  1.00  0.00    -0.051 A 
HETATM   26  C   UNL     1     -21.161  -4.465  -9.323  1.00  0.00     0.008 A 
HETATM   27  C   UNL     1     -20.563  -4.821  -8.111  1.00  0.00     0.009 A 
BRANCH  25  28
HETATM   28  C   UNL     1     -23.188  -3.834 -10.746  1.00  0.00    -0.024 C 
HETATM   29  C   UNL     1     -22.360  -2.815 -11.561  1.00  0.00     0.019 C 
HETATM   30  C   UNL     1     -24.572  -3.202 -10.488  1.00  0.00     0.019 C 
HETATM   31  C   UNL     1     -23.355  -5.097 -11.614  1.00  0.00     0.019 C 
ENDBRANCH  25  28
ENDBRANCH  21  22
ENDBRANCH  19  21
ENDBRANCH   1  19
TORSDOF 8
ENDMDL
