REMARK  7 active torsions:
REMARK  status: ('A' for Active; 'I' for Inactive)
REMARK    1  A    between atoms: O_1  and  C_2 
REMARK    2  A    between atoms: C_7  and  O_8 
REMARK    3  A    between atoms: N_10  and  C_11 
REMARK    4  A    between atoms: C_11  and  N_13 
REMARK    5  A    between atoms: N_13  and  C_14 
REMARK    6  A    between atoms: C_14  and  C_15 
REMARK    7  A    between atoms: C_15  and  C_16 
ROOT
HETATM    1  C   UNL     1       2.443  -0.159   0.047  1.00  0.00     0.099 A 
HETATM    2  C   UNL     1       3.087   1.037   0.337  1.00  0.00     0.047 A 
HETATM    3  C   UNL     1       4.491   1.138   0.227  1.00  0.00    -0.047 A 
HETATM    4  C   UNL     1       5.239   0.006  -0.163  1.00  0.00    -0.031 A 
HETATM    5  C   UNL     1       4.569  -1.197  -0.448  1.00  0.00     0.048 A 
HETATM    6  C   UNL     1       3.179  -1.275  -0.340  1.00  0.00     0.099 A 
HETATM    7  C   UNL     1       6.748   0.081  -0.290  1.00  0.00     0.164 C 
HETATM    8  N   UNL     1       7.160   0.979  -1.387  1.00  0.00    -0.354 N 
HETATM    9  C   UNL     1       7.198   2.406  -1.034  1.00  0.00     0.126 C 
HETATM   10  C   UNL     1       5.827   3.023  -0.747  1.00  0.00     0.025 C 
HETATM   11  C   UNL     1       5.160   2.455   0.508  1.00  0.00     0.041 C 
ENDROOT
BRANCH   8  12
HETATM   12  C   UNL     1       7.565   0.473  -2.629  1.00  0.00     0.170 C 
HETATM   13  S   UNL     1       8.240  -1.059  -2.835  1.00  0.00    -0.041 SA
BRANCH  12  14
HETATM   14  N   UNL     1       7.339   1.332  -3.699  1.00  0.00    -0.367 N 
HETATM   15  H   UNL     1       6.822   2.170  -3.486  1.00  0.00     0.161 HD
BRANCH  14  16
HETATM   16  C   UNL     1       7.187   0.848  -5.078  1.00  0.00     0.126 C 
BRANCH  16  17
HETATM   17  C   UNL     1       6.982   1.937  -6.139  1.00  0.00     0.058 C 
BRANCH  17  18
HETATM   18  C   UNL     1       8.169   2.850  -6.326  1.00  0.00    -0.057 A 
HETATM   19  C   UNL     1       9.419   2.333  -6.700  1.00  0.00     0.009 A 
HETATM   20  C   UNL     1      10.526   3.173  -6.827  1.00  0.00     0.024 A 
HETATM   21  C   UNL     1      10.385   4.539  -6.598  1.00  0.00     0.034 A 
HETATM   22 CL   UNL     1      11.759   5.569  -6.707  1.00  0.00    -0.084 Cl
HETATM   23  C   UNL     1       9.142   5.074  -6.270  1.00  0.00     0.024 A 
HETATM   24  C   UNL     1       8.035   4.233  -6.140  1.00  0.00     0.009 A 
ENDBRANCH  17  18
ENDBRANCH  16  17
ENDBRANCH  14  16
ENDBRANCH  12  14
ENDBRANCH   8  12
BRANCH   6  25
HETATM   25  O   UNL     1       2.526  -2.442  -0.618  1.00  0.00    -0.358 OA
HETATM   26  H   UNL     1       3.176  -3.112  -0.881  1.00  0.00     0.217 HD
ENDBRANCH   6  25
BRANCH   1  27
HETATM   27  O   UNL     1       1.080  -0.247   0.135  1.00  0.00    -0.358 OA
HETATM   28  H   UNL     1       0.718   0.631   0.321  1.00  0.00     0.217 HD
ENDBRANCH   1  27
TORSDOF 7
