MODEL 1
REMARK VINA RESULT:      -8.9      0.000      0.000
REMARK  7 active torsions:
REMARK  status: ('A' for Active; 'I' for Inactive)
REMARK    1  A    between atoms: O_1  and  C_2 
REMARK    2  A    between atoms: C_7  and  O_8 
REMARK    3  A    between atoms: N_10  and  C_11 
REMARK    4  A    between atoms: C_11  and  N_13 
REMARK    5  A    between atoms: N_13  and  C_14 
REMARK    6  A    between atoms: C_14  and  C_15 
REMARK    7  A    between atoms: C_15  and  C_16 
ROOT
HETATM    1  C   UNL     1     -22.990  -4.308 -10.484  1.00  0.00     0.099 A 
HETATM    2  C   UNL     1     -21.639  -4.132 -10.210  1.00  0.00     0.047 A 
HETATM    3  C   UNL     1     -21.184  -4.054  -8.876  1.00  0.00    -0.047 A 
HETATM    4  C   UNL     1     -22.116  -4.139  -7.820  1.00  0.00    -0.031 A 
HETATM    5  C   UNL     1     -23.480  -4.312  -8.117  1.00  0.00     0.048 A 
HETATM    6  C   UNL     1     -23.910  -4.394  -9.443  1.00  0.00     0.099 A 
HETATM    7  C   UNL     1     -21.660  -4.058  -6.376  1.00  0.00     0.164 C 
HETATM    8  N   UNL     1     -20.829  -5.218  -6.000  1.00  0.00    -0.354 N 
HETATM    9  C   UNL     1     -19.411  -5.107  -6.371  1.00  0.00     0.126 C 
HETATM   10  C   UNL     1     -19.148  -5.127  -7.879  1.00  0.00     0.025 C 
HETATM   11  C   UNL     1     -19.712  -3.904  -8.606  1.00  0.00     0.041 C 
ENDROOT
BRANCH   8  12
HETATM   12  C   UNL     1     -21.360  -6.287  -5.266  1.00  0.00     0.170 C 
HETATM   13  S   UNL     1     -21.185  -7.903  -5.716  1.00  0.00    -0.041 SA
BRANCH  12  14
HETATM   14  N   UNL     1     -22.028  -5.910  -4.106  1.00  0.00    -0.367 N 
HETATM   15  H   UNL     1     -22.737  -5.203  -4.220  1.00  0.00     0.161 HD
BRANCH  14  16
HETATM   16  C   UNL     1     -21.385  -5.932  -2.785  1.00  0.00     0.126 C 
BRANCH  16  17
HETATM   17  C   UNL     1     -22.289  -6.354  -1.620  1.00  0.00     0.058 C 
BRANCH  17  18
HETATM   18  C   UNL     1     -21.922  -7.682  -1.003  1.00  0.00    -0.057 A 
HETATM   19  C   UNL     1     -21.634  -8.793  -1.810  1.00  0.00     0.009 A 
HETATM   20  C   UNL     1     -21.341 -10.031  -1.237  1.00  0.00     0.024 A 
HETATM   21  C   UNL     1     -21.317 -10.161   0.149  1.00  0.00     0.034 A 
HETATM   22 CL   UNL     1     -21.004 -11.697   0.857  1.00  0.00    -0.084 Cl
HETATM   23  C   UNL     1     -21.557  -9.058   0.964  1.00  0.00     0.024 A 
HETATM   24  C   UNL     1     -21.853  -7.820   0.391  1.00  0.00     0.009 A 
ENDBRANCH  17  18
ENDBRANCH  16  17
ENDBRANCH  14  16
ENDBRANCH  12  14
ENDBRANCH   8  12
BRANCH   6  25
HETATM   25  O   UNL     1     -25.233  -4.564  -9.734  1.00  0.00    -0.358 OA
HETATM   26  H   UNL     1     -25.401  -5.505  -9.901  1.00  0.00     0.217 HD
ENDBRANCH   6  25
BRANCH   1  27
HETATM   27  O   UNL     1     -23.424  -4.404 -11.778  1.00  0.00    -0.358 OA
HETATM   28  H   UNL     1     -22.906  -3.802 -12.331  1.00  0.00     0.217 HD
ENDBRANCH   1  27
TORSDOF 7
ENDMDL
MODEL 2
REMARK VINA RESULT:      -8.2      4.845      9.247
REMARK  7 active torsions:
REMARK  status: ('A' for Active; 'I' for Inactive)
REMARK    1  A    between atoms: O_1  and  C_2 
REMARK    2  A    between atoms: C_7  and  O_8 
REMARK    3  A    between atoms: N_10  and  C_11 
REMARK    4  A    between atoms: C_11  and  N_13 
REMARK    5  A    between atoms: N_13  and  C_14 
REMARK    6  A    between atoms: C_14  and  C_15 
REMARK    7  A    between atoms: C_15  and  C_16 
ROOT
HETATM    1  C   UNL     1     -22.991 -11.181  -0.286  1.00  0.00     0.099 A 
HETATM    2  C   UNL     1     -22.957  -9.833   0.048  1.00  0.00     0.047 A 
HETATM    3  C   UNL     1     -22.048  -8.961  -0.589  1.00  0.00    -0.047 A 
HETATM    4  C   UNL     1     -21.158  -9.474  -1.558  1.00  0.00    -0.031 A 
HETATM    5  C   UNL     1     -21.205 -10.843  -1.879  1.00  0.00     0.048 A 
HETATM    6  C   UNL     1     -22.116 -11.688  -1.242  1.00  0.00     0.099 A 
HETATM    7  C   UNL     1     -20.169  -8.565  -2.260  1.00  0.00     0.164 C 
HETATM    8  N   UNL     1     -20.850  -7.577  -3.120  1.00  0.00    -0.354 N 
HETATM    9  C   UNL     1     -21.333  -6.378  -2.418  1.00  0.00     0.126 C 
HETATM   10  C   UNL     1     -22.476  -6.639  -1.434  1.00  0.00     0.025 C 
HETATM   11  C   UNL     1     -22.059  -7.499  -0.238  1.00  0.00     0.041 C 
ENDROOT
BRANCH   8  12
HETATM   12  C   UNL     1     -20.934  -7.754  -4.507  1.00  0.00     0.170 C 
HETATM   13  S   UNL     1     -20.733  -9.245  -5.269  1.00  0.00    -0.041 SA
BRANCH  12  14
HETATM   14  N   UNL     1     -21.226  -6.594  -5.216  1.00  0.00    -0.367 N 
HETATM   15  H   UNL     1     -22.122  -6.577  -5.678  1.00  0.00     0.161 HD
BRANCH  14  16
HETATM   16  C   UNL     1     -20.185  -5.782  -5.861  1.00  0.00     0.126 C 
BRANCH  16  17
HETATM   17  C   UNL     1     -20.625  -4.382  -6.307  1.00  0.00     0.058 C 
BRANCH  17  18
HETATM   18  C   UNL     1     -20.911  -4.264  -7.785  1.00  0.00    -0.057 A 
HETATM   19  C   UNL     1     -22.161  -3.818  -8.239  1.00  0.00     0.009 A 
HETATM   20  C   UNL     1     -22.439  -3.755  -9.605  1.00  0.00     0.024 A 
HETATM   21  C   UNL     1     -21.460  -4.120 -10.526  1.00  0.00     0.034 A 
HETATM   22 CL   UNL     1     -21.817  -4.088 -12.209  1.00  0.00    -0.084 Cl
HETATM   23  C   UNL     1     -20.200  -4.522 -10.092  1.00  0.00     0.024 A 
HETATM   24  C   UNL     1     -19.923  -4.588  -8.725  1.00  0.00     0.009 A 
ENDBRANCH  17  18
ENDBRANCH  16  17
ENDBRANCH  14  16
ENDBRANCH  12  14
ENDBRANCH   8  12
BRANCH   6  25
HETATM   25  O   UNL     1     -22.164 -13.017  -1.554  1.00  0.00    -0.358 OA
HETATM   26  H   UNL     1     -22.831 -13.447  -0.997  1.00  0.00     0.217 HD
ENDBRANCH   6  25
BRANCH   1  27
HETATM   27  O   UNL     1     -23.888 -12.019   0.319  1.00  0.00    -0.358 OA
HETATM   28  H   UNL     1     -23.461 -12.446   1.075  1.00  0.00     0.217 HD
ENDBRANCH   1  27
TORSDOF 7
ENDMDL
MODEL 3
REMARK VINA RESULT:      -8.1      4.993      6.881
REMARK  7 active torsions:
REMARK  status: ('A' for Active; 'I' for Inactive)
REMARK    1  A    between atoms: O_1  and  C_2 
REMARK    2  A    between atoms: C_7  and  O_8 
REMARK    3  A    between atoms: N_10  and  C_11 
REMARK    4  A    between atoms: C_11  and  N_13 
REMARK    5  A    between atoms: N_13  and  C_14 
REMARK    6  A    between atoms: C_14  and  C_15 
REMARK    7  A    between atoms: C_15  and  C_16 
ROOT
HETATM    1  C   UNL     1     -22.225  -7.978  -0.089  1.00  0.00     0.099 A 
HETATM    2  C   UNL     1     -22.336  -7.161  -1.207  1.00  0.00     0.047 A 
HETATM    3  C   UNL     1     -21.448  -7.314  -2.295  1.00  0.00    -0.047 A 
HETATM    4  C   UNL     1     -20.434  -8.294  -2.229  1.00  0.00    -0.031 A 
HETATM    5  C   UNL     1     -20.336  -9.108  -1.087  1.00  0.00     0.048 A 
HETATM    6  C   UNL     1     -21.227  -8.945  -0.025  1.00  0.00     0.099 A 
HETATM    7  C   UNL     1     -19.465  -8.483  -3.380  1.00  0.00     0.164 C 
HETATM    8  N   UNL     1     -20.145  -8.983  -4.591  1.00  0.00    -0.354 N 
HETATM    9  C   UNL     1     -20.790  -7.944  -5.409  1.00  0.00     0.126 C 
HETATM   10  C   UNL     1     -21.991  -7.270  -4.742  1.00  0.00     0.025 C 
HETATM   11  C   UNL     1     -21.614  -6.444  -3.510  1.00  0.00     0.041 C 
ENDROOT
BRANCH   8  12
HETATM   12  C   UNL     1     -20.087 -10.334  -4.954  1.00  0.00     0.170 C 
HETATM   13  S   UNL     1     -18.687 -11.269  -4.840  1.00  0.00    -0.041 SA
BRANCH  12  14
HETATM   14  N   UNL     1     -21.295 -10.862  -5.396  1.00  0.00    -0.367 N 
HETATM   15  H   UNL     1     -21.770 -10.331  -6.109  1.00  0.00     0.161 HD
BRANCH  14  16
HETATM   16  C   UNL     1     -22.177 -11.649  -4.523  1.00  0.00     0.126 C 
BRANCH  16  17
HETATM   17  C   UNL     1     -22.916 -10.849  -3.442  1.00  0.00     0.058 C 
BRANCH  17  18
HETATM   18  C   UNL     1     -22.903 -11.495  -2.078  1.00  0.00    -0.057 A 
HETATM   19  C   UNL     1     -21.914 -12.430  -1.736  1.00  0.00     0.009 A 
HETATM   20  C   UNL     1     -21.931 -13.059  -0.491  1.00  0.00     0.024 A 
HETATM   21  C   UNL     1     -22.929 -12.744   0.427  1.00  0.00     0.034 A 
HETATM   22 CL   UNL     1     -22.980 -13.555   1.944  1.00  0.00    -0.084 Cl
HETATM   23  C   UNL     1     -23.892 -11.786   0.121  1.00  0.00     0.024 A 
HETATM   24  C   UNL     1     -23.876 -11.158  -1.126  1.00  0.00     0.009 A 
ENDBRANCH  17  18
ENDBRANCH  16  17
ENDBRANCH  14  16
ENDBRANCH  12  14
ENDBRANCH   8  12
BRANCH   6  25
HETATM   25  O   UNL     1     -21.135  -9.736   1.085  1.00  0.00    -0.358 OA
HETATM   26  H   UNL     1     -21.981 -10.190   1.220  1.00  0.00     0.217 HD
ENDBRANCH   6  25
BRANCH   1  27
HETATM   27  O   UNL     1     -23.100  -7.840   0.954  1.00  0.00    -0.358 OA
HETATM   28  H   UNL     1     -23.150  -8.677   1.437  1.00  0.00     0.217 HD
ENDBRANCH   1  27
TORSDOF 7
ENDMDL
MODEL 4
REMARK VINA RESULT:      -7.9      1.610      2.265
REMARK  7 active torsions:
REMARK  status: ('A' for Active; 'I' for Inactive)
REMARK    1  A    between atoms: O_1  and  C_2 
REMARK    2  A    between atoms: C_7  and  O_8 
REMARK    3  A    between atoms: N_10  and  C_11 
REMARK    4  A    between atoms: C_11  and  N_13 
REMARK    5  A    between atoms: N_13  and  C_14 
REMARK    6  A    between atoms: C_14  and  C_15 
REMARK    7  A    between atoms: C_15  and  C_16 
ROOT
HETATM    1  C   UNL     1     -23.265  -4.226 -10.568  1.00  0.00     0.099 A 
HETATM    2  C   UNL     1     -21.897  -4.024 -10.436  1.00  0.00     0.047 A 
HETATM    3  C   UNL     1     -21.301  -3.982  -9.157  1.00  0.00    -0.047 A 
HETATM    4  C   UNL     1     -22.110  -4.130  -8.009  1.00  0.00    -0.031 A 
HETATM    5  C   UNL     1     -23.494  -4.330  -8.164  1.00  0.00     0.048 A 
HETATM    6  C   UNL     1     -24.063  -4.375  -9.438  1.00  0.00     0.099 A 
HETATM    7  C   UNL     1     -21.501  -4.091  -6.621  1.00  0.00     0.164 C 
HETATM    8  N   UNL     1     -20.607  -5.241  -6.384  1.00  0.00    -0.354 N 
HETATM    9  C   UNL     1     -19.241  -5.077  -6.902  1.00  0.00     0.126 C 
HETATM   10  C   UNL     1     -19.145  -5.035  -8.429  1.00  0.00     0.025 C 
HETATM   11  C   UNL     1     -19.812  -3.802  -9.042  1.00  0.00     0.041 C 
ENDROOT
BRANCH   8  12
HETATM   12  C   UNL     1     -21.030  -6.350  -5.640  1.00  0.00     0.170 C 
HETATM   13  S   UNL     1     -22.374  -6.330  -4.621  1.00  0.00    -0.041 SA
BRANCH  12  14
HETATM   14  N   UNL     1     -20.262  -7.494  -5.829  1.00  0.00    -0.367 N 
HETATM   15  H   UNL     1     -20.301  -7.899  -6.751  1.00  0.00     0.161 HD
BRANCH  14  16
HETATM   16  C   UNL     1     -19.994  -8.450  -4.746  1.00  0.00     0.126 C 
BRANCH  16  17
HETATM   17  C   UNL     1     -20.782  -9.764  -4.818  1.00  0.00     0.058 C 
BRANCH  17  18
HETATM   18  C   UNL     1     -21.608 -10.059  -3.590  1.00  0.00    -0.057 A 
HETATM   19  C   UNL     1     -21.465  -9.285  -2.428  1.00  0.00     0.009 A 
HETATM   20  C   UNL     1     -22.196  -9.588  -1.278  1.00  0.00     0.024 A 
HETATM   21  C   UNL     1     -23.087 -10.657  -1.289  1.00  0.00     0.034 A 
HETATM   22 CL   UNL     1     -23.953 -11.062   0.141  1.00  0.00    -0.084 Cl
HETATM   23  C   UNL     1     -23.274 -11.407  -2.448  1.00  0.00     0.024 A 
HETATM   24  C   UNL     1     -22.540 -11.105  -3.597  1.00  0.00     0.009 A 
ENDBRANCH  17  18
ENDBRANCH  16  17
ENDBRANCH  14  16
ENDBRANCH  12  14
ENDBRANCH   8  12
BRANCH   6  25
HETATM   25  O   UNL     1     -25.407  -4.570  -9.591  1.00  0.00    -0.358 OA
HETATM   26  H   UNL     1     -25.869  -4.193  -8.826  1.00  0.00     0.217 HD
ENDBRANCH   6  25
BRANCH   1  27
HETATM   27  O   UNL     1     -23.836  -4.286 -11.811  1.00  0.00    -0.358 OA
HETATM   28  H   UNL     1     -23.160  -4.099 -12.478  1.00  0.00     0.217 HD
ENDBRANCH   1  27
TORSDOF 7
ENDMDL
MODEL 5
REMARK VINA RESULT:      -7.7      3.468      4.036
REMARK  7 active torsions:
REMARK  status: ('A' for Active; 'I' for Inactive)
REMARK    1  A    between atoms: O_1  and  C_2 
REMARK    2  A    between atoms: C_7  and  O_8 
REMARK    3  A    between atoms: N_10  and  C_11 
REMARK    4  A    between atoms: C_11  and  N_13 
REMARK    5  A    between atoms: N_13  and  C_14 
REMARK    6  A    between atoms: C_14  and  C_15 
REMARK    7  A    between atoms: C_15  and  C_16 
ROOT
HETATM    1  C   UNL     1     -23.170  -4.324 -10.601  1.00  0.00     0.099 A 
HETATM    2  C   UNL     1     -21.811  -4.094 -10.435  1.00  0.00     0.047 A 
HETATM    3  C   UNL     1     -21.246  -4.046  -9.142  1.00  0.00    -0.047 A 
HETATM    4  C   UNL     1     -22.078  -4.216  -8.015  1.00  0.00    -0.031 A 
HETATM    5  C   UNL     1     -23.453  -4.444  -8.203  1.00  0.00     0.048 A 
HETATM    6  C   UNL     1     -23.992  -4.494  -9.490  1.00  0.00     0.099 A 
HETATM    7  C   UNL     1     -21.503  -4.170  -6.613  1.00  0.00     0.164 C 
HETATM    8  N   UNL     1     -20.591  -5.303  -6.359  1.00  0.00    -0.354 N 
HETATM    9  C   UNL     1     -19.217  -5.109  -6.844  1.00  0.00     0.126 C 
HETATM   10  C   UNL     1     -19.085  -5.057  -8.368  1.00  0.00     0.025 C 
HETATM   11  C   UNL     1     -19.764  -3.835  -8.992  1.00  0.00     0.041 C 
ENDROOT
BRANCH   8  12
HETATM   12  C   UNL     1     -21.008  -6.424  -5.630  1.00  0.00     0.170 C 
HETATM   13  S   UNL     1     -22.268  -6.390  -4.509  1.00  0.00    -0.041 SA
BRANCH  12  14
HETATM   14  N   UNL     1     -20.312  -7.591  -5.925  1.00  0.00    -0.367 N 
HETATM   15  H   UNL     1     -20.196  -7.796  -6.904  1.00  0.00     0.161 HD
BRANCH  14  16
HETATM   16  C   UNL     1     -20.345  -8.770  -5.049  1.00  0.00     0.126 C 
BRANCH  16  17
HETATM   17  C   UNL     1     -19.321  -8.771  -3.907  1.00  0.00     0.058 C 
BRANCH  17  18
HETATM   18  C   UNL     1     -18.045  -9.514  -4.220  1.00  0.00    -0.057 A 
HETATM   19  C   UNL     1     -17.093  -9.758  -3.219  1.00  0.00     0.009 A 
HETATM   20  C   UNL     1     -15.893 -10.404  -3.521  1.00  0.00     0.024 A 
HETATM   21  C   UNL     1     -15.647 -10.827  -4.824  1.00  0.00     0.034 A 
HETATM   22 CL   UNL     1     -14.149 -11.581  -5.209  1.00  0.00    -0.084 Cl
HETATM   23  C   UNL     1     -16.601 -10.633  -5.820  1.00  0.00     0.024 A 
HETATM   24  C   UNL     1     -17.800  -9.983  -5.518  1.00  0.00     0.009 A 
ENDBRANCH  17  18
ENDBRANCH  16  17
ENDBRANCH  14  16
ENDBRANCH  12  14
ENDBRANCH   8  12
BRANCH   6  25
HETATM   25  O   UNL     1     -25.327  -4.717  -9.675  1.00  0.00    -0.358 OA
HETATM   26  H   UNL     1     -25.555  -4.516 -10.596  1.00  0.00     0.217 HD
ENDBRANCH   6  25
BRANCH   1  27
HETATM   27  O   UNL     1     -23.711  -4.390 -11.856  1.00  0.00    -0.358 OA
HETATM   28  H   UNL     1     -23.675  -5.305 -12.168  1.00  0.00     0.217 HD
ENDBRANCH   1  27
TORSDOF 7
ENDMDL
MODEL 6
REMARK VINA RESULT:      -7.5      6.538      8.718
REMARK  7 active torsions:
REMARK  status: ('A' for Active; 'I' for Inactive)
REMARK    1  A    between atoms: O_1  and  C_2 
REMARK    2  A    between atoms: C_7  and  O_8 
REMARK    3  A    between atoms: N_10  and  C_11 
REMARK    4  A    between atoms: C_11  and  N_13 
REMARK    5  A    between atoms: N_13  and  C_14 
REMARK    6  A    between atoms: C_14  and  C_15 
REMARK    7  A    between atoms: C_15  and  C_16 
ROOT
HETATM    1  C   UNL     1     -13.804 -13.329  -4.153  1.00  0.00     0.099 A 
HETATM    2  C   UNL     1     -14.414 -12.795  -3.025  1.00  0.00     0.047 A 
HETATM    3  C   UNL     1     -15.177 -11.611  -3.117  1.00  0.00    -0.047 A 
HETATM    4  C   UNL     1     -15.301 -10.962  -4.365  1.00  0.00    -0.031 A 
HETATM    5  C   UNL     1     -14.673 -11.516  -5.495  1.00  0.00     0.048 A 
HETATM    6  C   UNL     1     -13.928 -12.692  -5.384  1.00  0.00     0.099 A 
HETATM    7  C   UNL     1     -16.113  -9.689  -4.498  1.00  0.00     0.164 C 
HETATM    8  N   UNL     1     -17.550  -9.929  -4.255  1.00  0.00    -0.354 N 
HETATM    9  C   UNL     1     -17.942  -9.937  -2.838  1.00  0.00     0.126 C 
HETATM   10  C   UNL     1     -17.383 -11.113  -2.034  1.00  0.00     0.025 C 
HETATM   11  C   UNL     1     -15.860 -11.076  -1.889  1.00  0.00     0.041 C 
ENDROOT
BRANCH   8  12
HETATM   12  C   UNL     1     -18.458 -10.045  -5.316  1.00  0.00     0.170 C 
HETATM   13  S   UNL     1     -18.806 -11.503  -6.088  1.00  0.00    -0.041 SA
BRANCH  12  14
HETATM   14  N   UNL     1     -19.081  -8.853  -5.669  1.00  0.00    -0.367 N 
HETATM   15  H   UNL     1     -18.481  -8.046  -5.730  1.00  0.00     0.161 HD
BRANCH  14  16
HETATM   16  C   UNL     1     -20.476  -8.558  -5.313  1.00  0.00     0.126 C 
BRANCH  16  17
HETATM   17  C   UNL     1     -20.697  -7.245  -4.550  1.00  0.00     0.058 C 
BRANCH  17  18
HETATM   18  C   UNL     1     -21.262  -7.423  -3.162  1.00  0.00    -0.057 A 
HETATM   19  C   UNL     1     -21.269  -8.685  -2.548  1.00  0.00     0.009 A 
HETATM   20  C   UNL     1     -21.835  -8.856  -1.284  1.00  0.00     0.024 A 
HETATM   21  C   UNL     1     -22.381  -7.762  -0.619  1.00  0.00     0.034 A 
HETATM   22 CL   UNL     1     -23.122  -7.980   0.919  1.00  0.00    -0.084 Cl
HETATM   23  C   UNL     1     -22.343  -6.495  -1.196  1.00  0.00     0.024 A 
HETATM   24  C   UNL     1     -21.779  -6.325  -2.462  1.00  0.00     0.009 A 
ENDBRANCH  17  18
ENDBRANCH  16  17
ENDBRANCH  14  16
ENDBRANCH  12  14
ENDBRANCH   8  12
BRANCH   6  25
HETATM   25  O   UNL     1     -13.318 -13.233  -6.480  1.00  0.00    -0.358 OA
HETATM   26  H   UNL     1     -12.628 -12.625  -6.789  1.00  0.00     0.217 HD
ENDBRANCH   6  25
BRANCH   1  27
HETATM   27  O   UNL     1     -13.082 -14.489  -4.063  1.00  0.00    -0.358 OA
HETATM   28  H   UNL     1     -12.768 -14.595  -3.154  1.00  0.00     0.217 HD
ENDBRANCH   1  27
TORSDOF 7
ENDMDL
MODEL 7
REMARK VINA RESULT:      -7.5      5.873      8.069
REMARK  7 active torsions:
REMARK  status: ('A' for Active; 'I' for Inactive)
REMARK    1  A    between atoms: O_1  and  C_2 
REMARK    2  A    between atoms: C_7  and  O_8 
REMARK    3  A    between atoms: N_10  and  C_11 
REMARK    4  A    between atoms: C_11  and  N_13 
REMARK    5  A    between atoms: N_13  and  C_14 
REMARK    6  A    between atoms: C_14  and  C_15 
REMARK    7  A    between atoms: C_15  and  C_16 
ROOT
HETATM    1  C   UNL     1     -22.549  -8.058  -0.187  1.00  0.00     0.099 A 
HETATM    2  C   UNL     1     -22.402  -7.069  -1.152  1.00  0.00     0.047 A 
HETATM    3  C   UNL     1     -21.413  -7.188  -2.152  1.00  0.00    -0.047 A 
HETATM    4  C   UNL     1     -20.559  -8.312  -2.154  1.00  0.00    -0.031 A 
HETATM    5  C   UNL     1     -20.721  -9.300  -1.166  1.00  0.00     0.048 A 
HETATM    6  C   UNL     1     -21.709  -9.168  -0.189  1.00  0.00     0.099 A 
HETATM    7  C   UNL     1     -19.486  -8.469  -3.213  1.00  0.00     0.164 C 
HETATM    8  N   UNL     1     -20.069  -8.660  -4.556  1.00  0.00    -0.354 N 
HETATM    9  C   UNL     1     -20.455  -7.418  -5.243  1.00  0.00     0.126 C 
HETATM   10  C   UNL     1     -21.628  -6.676  -4.597  1.00  0.00     0.025 C 
HETATM   11  C   UNL     1     -21.301  -6.123  -3.208  1.00  0.00     0.041 C 
ENDROOT
BRANCH   8  12
HETATM   12  C   UNL     1     -20.150  -9.930  -5.141  1.00  0.00     0.170 C 
HETATM   13  S   UNL     1     -21.304 -11.082  -4.707  1.00  0.00    -0.041 SA
BRANCH  12  14
HETATM   14  N   UNL     1     -19.212 -10.163  -6.140  1.00  0.00    -0.367 N 
HETATM   15  H   UNL     1     -19.568 -10.169  -7.082  1.00  0.00     0.161 HD
BRANCH  14  16
HETATM   16  C   UNL     1     -18.024 -11.001  -5.924  1.00  0.00     0.126 C 
BRANCH  16  17
HETATM   17  C   UNL     1     -16.737 -10.243  -5.575  1.00  0.00     0.058 C 
BRANCH  17  18
HETATM   18  C   UNL     1     -15.689 -11.085  -4.890  1.00  0.00    -0.057 A 
HETATM   19  C   UNL     1     -14.587 -11.580  -5.604  1.00  0.00     0.009 A 
HETATM   20  C   UNL     1     -13.644 -12.397  -4.979  1.00  0.00     0.024 A 
HETATM   21  C   UNL     1     -13.789 -12.709  -3.630  1.00  0.00     0.034 A 
HETATM   22 CL   UNL     1     -12.653 -13.756  -2.870  1.00  0.00    -0.084 Cl
HETATM   23  C   UNL     1     -14.852 -12.191  -2.896  1.00  0.00     0.024 A 
HETATM   24  C   UNL     1     -15.797 -11.376  -3.522  1.00  0.00     0.009 A 
ENDBRANCH  17  18
ENDBRANCH  16  17
ENDBRANCH  14  16
ENDBRANCH  12  14
ENDBRANCH   8  12
BRANCH   6  25
HETATM   25  O   UNL     1     -21.869 -10.128   0.770  1.00  0.00    -0.358 OA
HETATM   26  H   UNL     1     -22.641 -10.671   0.547  1.00  0.00     0.217 HD
ENDBRANCH   6  25
BRANCH   1  27
HETATM   27  O   UNL     1     -23.522  -7.950   0.769  1.00  0.00    -0.358 OA
HETATM   28  H   UNL     1     -23.209  -8.361   1.587  1.00  0.00     0.217 HD
ENDBRANCH   1  27
TORSDOF 7
ENDMDL
MODEL 8
REMARK VINA RESULT:      -7.4      5.189      7.618
REMARK  7 active torsions:
REMARK  status: ('A' for Active; 'I' for Inactive)
REMARK    1  A    between atoms: O_1  and  C_2 
REMARK    2  A    between atoms: C_7  and  O_8 
REMARK    3  A    between atoms: N_10  and  C_11 
REMARK    4  A    between atoms: C_11  and  N_13 
REMARK    5  A    between atoms: N_13  and  C_14 
REMARK    6  A    between atoms: C_14  and  C_15 
REMARK    7  A    between atoms: C_15  and  C_16 
ROOT
HETATM    1  C   UNL     1     -21.182  -6.382  -4.060  1.00  0.00     0.099 A 
HETATM    2  C   UNL     1     -21.550  -6.369  -2.721  1.00  0.00     0.047 A 
HETATM    3  C   UNL     1     -21.860  -7.574  -2.054  1.00  0.00    -0.047 A 
HETATM    4  C   UNL     1     -21.811  -8.793  -2.765  1.00  0.00    -0.031 A 
HETATM    5  C   UNL     1     -21.441  -8.784  -4.121  1.00  0.00     0.048 A 
HETATM    6  C   UNL     1     -21.131  -7.583  -4.762  1.00  0.00     0.099 A 
HETATM    7  C   UNL     1     -22.140 -10.104  -2.078  1.00  0.00     0.164 C 
HETATM    8  N   UNL     1     -21.146 -10.440  -1.039  1.00  0.00    -0.354 N 
HETATM    9  C   UNL     1     -21.372  -9.793   0.262  1.00  0.00     0.126 C 
HETATM   10  C   UNL     1     -21.178  -8.275   0.255  1.00  0.00     0.025 C 
HETATM   11  C   UNL     1     -22.217  -7.538  -0.594  1.00  0.00     0.041 C 
ENDROOT
BRANCH   8  12
HETATM   12  C   UNL     1     -20.132 -11.376  -1.277  1.00  0.00     0.170 C 
HETATM   13  S   UNL     1     -20.406 -13.036  -1.400  1.00  0.00    -0.041 SA
BRANCH  12  14
HETATM   14  N   UNL     1     -18.866 -10.822  -1.435  1.00  0.00    -0.367 N 
HETATM   15  H   UNL     1     -18.505 -10.320  -0.640  1.00  0.00     0.161 HD
BRANCH  14  16
HETATM   16  C   UNL     1     -18.369 -10.355  -2.736  1.00  0.00     0.126 C 
BRANCH  16  17
HETATM   17  C   UNL     1     -16.937  -9.803  -2.734  1.00  0.00     0.058 C 
BRANCH  17  18
HETATM   18  C   UNL     1     -15.992 -10.530  -3.659  1.00  0.00    -0.057 A 
HETATM   19  C   UNL     1     -15.938 -10.210  -5.025  1.00  0.00     0.009 A 
HETATM   20  C   UNL     1     -15.097 -10.915  -5.886  1.00  0.00     0.024 A 
HETATM   21  C   UNL     1     -14.291 -11.934  -5.384  1.00  0.00     0.034 A 
HETATM   22 CL   UNL     1     -13.290 -12.836  -6.453  1.00  0.00    -0.084 Cl
HETATM   23  C   UNL     1     -14.300 -12.233  -4.024  1.00  0.00     0.024 A 
HETATM   24  C   UNL     1     -15.144 -11.529  -3.162  1.00  0.00     0.009 A 
ENDBRANCH  17  18
ENDBRANCH  16  17
ENDBRANCH  14  16
ENDBRANCH  12  14
ENDBRANCH   8  12
BRANCH   6  25
HETATM   25  O   UNL     1     -20.769  -7.572  -6.079  1.00  0.00    -0.358 OA
HETATM   26  H   UNL     1     -21.524  -7.859  -6.616  1.00  0.00     0.217 HD
ENDBRANCH   6  25
BRANCH   1  27
HETATM   27  O   UNL     1     -20.862  -5.214  -4.698  1.00  0.00    -0.358 OA
HETATM   28  H   UNL     1     -21.458  -4.515  -4.395  1.00  0.00     0.217 HD
ENDBRANCH   1  27
TORSDOF 7
ENDMDL
MODEL 9
REMARK VINA RESULT:      -7.2      2.092      2.472
REMARK  7 active torsions:
REMARK  status: ('A' for Active; 'I' for Inactive)
REMARK    1  A    between atoms: O_1  and  C_2 
REMARK    2  A    between atoms: C_7  and  O_8 
REMARK    3  A    between atoms: N_10  and  C_11 
REMARK    4  A    between atoms: C_11  and  N_13 
REMARK    5  A    between atoms: N_13  and  C_14 
REMARK    6  A    between atoms: C_14  and  C_15 
REMARK    7  A    between atoms: C_15  and  C_16 
ROOT
HETATM    1  C   UNL     1     -22.103  -4.118 -11.153  1.00  0.00     0.099 A 
HETATM    2  C   UNL     1     -20.851  -4.101 -10.552  1.00  0.00     0.047 A 
HETATM    3  C   UNL     1     -20.733  -4.004  -9.148  1.00  0.00    -0.047 A 
HETATM    4  C   UNL     1     -21.900  -3.907  -8.359  1.00  0.00    -0.031 A 
HETATM    5  C   UNL     1     -23.158  -3.922  -8.987  1.00  0.00     0.048 A 
HETATM    6  C   UNL     1     -23.254  -4.024 -10.376  1.00  0.00     0.099 A 
HETATM    7  C   UNL     1     -21.808  -3.801  -6.850  1.00  0.00     0.164 C 
HETATM    8  N   UNL     1     -21.264  -5.035  -6.248  1.00  0.00    -0.354 N 
HETATM    9  C   UNL     1     -19.796  -5.127  -6.252  1.00  0.00     0.126 C 
HETATM   10  C   UNL     1     -19.175  -5.268  -7.644  1.00  0.00     0.025 C 
HETATM   11  C   UNL     1     -19.367  -4.028  -8.519  1.00  0.00     0.041 C 
ENDROOT
BRANCH   8  12
HETATM   12  C   UNL     1     -22.102  -5.982  -5.647  1.00  0.00     0.170 C 
HETATM   13  S   UNL     1     -23.784  -5.858  -5.626  1.00  0.00    -0.041 SA
BRANCH  12  14
HETATM   14  N   UNL     1     -21.433  -7.064  -5.084  1.00  0.00    -0.367 N 
HETATM   15  H   UNL     1     -21.524  -7.939  -5.576  1.00  0.00     0.161 HD
BRANCH  14  16
HETATM   16  C   UNL     1     -21.221  -7.191  -3.636  1.00  0.00     0.126 C 
BRANCH  16  17
HETATM   17  C   UNL     1     -21.428  -8.599  -3.061  1.00  0.00     0.058 C 
BRANCH  17  18
HETATM   18  C   UNL     1     -20.148  -9.338  -2.758  1.00  0.00    -0.057 A 
HETATM   19  C   UNL     1     -18.913  -8.849  -3.212  1.00  0.00     0.009 A 
HETATM   20  C   UNL     1     -17.736  -9.559  -2.970  1.00  0.00     0.024 A 
HETATM   21  C   UNL     1     -17.785 -10.753  -2.257  1.00  0.00     0.034 A 
HETATM   22 CL   UNL     1     -16.341 -11.653  -2.000  1.00  0.00    -0.084 Cl
HETATM   23  C   UNL     1     -18.996 -11.229  -1.761  1.00  0.00     0.024 A 
HETATM   24  C   UNL     1     -20.174 -10.520  -2.005  1.00  0.00     0.009 A 
ENDBRANCH  17  18
ENDBRANCH  16  17
ENDBRANCH  14  16
ENDBRANCH  12  14
ENDBRANCH   8  12
BRANCH   6  25
HETATM   25  O   UNL     1     -24.475  -4.041 -10.988  1.00  0.00    -0.358 OA
HETATM   26  H   UNL     1     -25.001  -4.769 -10.622  1.00  0.00     0.217 HD
ENDBRANCH   6  25
BRANCH   1  27
HETATM   27  O   UNL     1     -22.213  -4.232 -12.512  1.00  0.00    -0.358 OA
HETATM   28  H   UNL     1     -21.328  -4.220 -12.903  1.00  0.00     0.217 HD
ENDBRANCH   1  27
TORSDOF 7
ENDMDL
