REMARK  3 active torsions:
REMARK  status: ('A' for Active; 'I' for Inactive)
REMARK    1  A    between atoms: C_2  and  C_3 
REMARK       I    between atoms: C_2  and  N_16 
REMARK    2  A    between atoms: C_4  and  C_5 
REMARK    3  A    between atoms: C_6  and  C_7 
ROOT
HETATM    1  C   UNL     1       3.158  -3.196  -2.042  1.00  0.00     0.001 C 
HETATM    2  C   UNL     1       2.558  -4.234  -2.645  1.00  0.00     0.011 C 
ENDROOT
BRANCH   1   3
HETATM    3  C   UNL     1       2.441  -2.120  -1.392  1.00  0.00     0.005 C 
HETATM    4  C   UNL     1       3.079  -1.113  -0.779  1.00  0.00     0.074 C 
BRANCH   4   5
HETATM    5  C   UNL     1       2.300  -0.131   0.007  1.00  0.00     0.243 C 
HETATM    6  O   UNL     1       1.530   0.634  -0.562  1.00  0.00    -0.268 OA
HETATM    7  N   UNL     1       2.513  -0.164   1.378  1.00  0.00    -0.349 N 
HETATM    8  C   UNL     1       3.393  -1.099   2.083  1.00  0.00     0.126 C 
HETATM    9  C   UNL     1       1.815   0.789   2.235  1.00  0.00     0.126 C 
HETATM   10  C   UNL     1       2.621  -1.871   3.149  1.00  0.00     0.020 C 
HETATM   11  C   UNL     1       1.874  -0.929   4.091  1.00  0.00     0.003 C 
HETATM   12  C   UNL     1       1.010   0.065   3.314  1.00  0.00     0.020 C 
ENDBRANCH   4   5
ENDBRANCH   1   3
BRANCH   2  13
HETATM   13  C   UNL     1       3.288  -5.363  -3.251  1.00  0.00    -0.033 A 
HETATM   14  C   UNL     1       2.671  -6.636  -3.286  1.00  0.00     0.014 A 
HETATM   15  C   UNL     1       3.319  -7.744  -3.850  1.00  0.00     0.040 A 
HETATM   16  C   UNL     1       4.577  -7.551  -4.374  1.00  0.00     0.105 A 
HETATM   17  C   UNL     1       5.179  -6.318  -4.361  1.00  0.00     0.105 A 
HETATM   18  O   UNL     1       5.360  -8.504  -4.949  1.00  0.00    -0.323 OA
HETATM   19  C   UNL     1       4.561  -5.208  -3.821  1.00  0.00     0.051 A 
HETATM   20  O   UNL     1       6.416  -6.335  -4.925  1.00  0.00    -0.323 OA
HETATM   21  C   UNL     1       6.539  -7.733  -5.262  1.00  0.00     0.352 A 
ENDBRANCH   2  13
TORSDOF 3
