MODEL 1
REMARK VINA RESULT:      -9.0      0.000      0.000
REMARK  3 active torsions:
REMARK  status: ('A' for Active; 'I' for Inactive)
REMARK    1  A    between atoms: C_2  and  C_3 
REMARK       I    between atoms: C_2  and  N_16 
REMARK    2  A    between atoms: C_4  and  C_5 
REMARK    3  A    between atoms: C_6  and  C_7 
ROOT
HETATM    1  C   UNL     1     -20.550  -5.287  -4.846  1.00  0.00     0.001 C 
HETATM    2  C   UNL     1     -20.835  -6.575  -4.601  1.00  0.00     0.011 C 
ENDROOT
BRANCH   1   3
HETATM    3  C   UNL     1     -20.211  -4.774  -6.156  1.00  0.00     0.005 C 
HETATM    4  C   UNL     1     -21.153  -4.415  -7.040  1.00  0.00     0.074 C 
BRANCH   4   5
HETATM    5  C   UNL     1     -20.754  -4.053  -8.418  1.00  0.00     0.243 C 
HETATM    6  O   UNL     1     -19.568  -3.933  -8.700  1.00  0.00    -0.268 OA
HETATM    7  N   UNL     1     -21.801  -3.877  -9.313  1.00  0.00    -0.349 N 
HETATM    8  C   UNL     1     -23.222  -4.059  -9.010  1.00  0.00     0.126 C 
HETATM    9  C   UNL     1     -21.510  -3.486 -10.688  1.00  0.00     0.126 C 
HETATM   10  C   UNL     1     -23.851  -5.080  -9.954  1.00  0.00     0.020 C 
HETATM   11  C   UNL     1     -23.593  -4.722 -11.416  1.00  0.00     0.003 C 
HETATM   12  C   UNL     1     -22.105  -4.487 -11.678  1.00  0.00     0.020 C 
ENDBRANCH   4   5
ENDBRANCH   1   3
BRANCH   2  13
HETATM   13  C   UNL     1     -21.243  -7.087  -3.279  1.00  0.00    -0.033 A 
HETATM   14  C   UNL     1     -21.947  -6.230  -2.402  1.00  0.00     0.014 A 
HETATM   15  C   UNL     1     -22.359  -6.664  -1.134  1.00  0.00     0.040 A 
HETATM   16  C   UNL     1     -22.057  -7.958  -0.772  1.00  0.00     0.105 A 
HETATM   17  C   UNL     1     -21.389  -8.804  -1.620  1.00  0.00     0.105 A 
HETATM   18  O   UNL     1     -22.363  -8.549   0.415  1.00  0.00    -0.323 OA
HETATM   19  C   UNL     1     -20.980  -8.406  -2.878  1.00  0.00     0.051 A 
HETATM   20  O   UNL     1     -21.188 -10.035  -1.079  1.00  0.00    -0.323 OA
HETATM   21  C   UNL     1     -21.776  -9.854   0.227  1.00  0.00     0.352 A 
ENDBRANCH   2  13
TORSDOF 3
ENDMDL
MODEL 2
REMARK VINA RESULT:      -8.7      2.637      9.105
REMARK  3 active torsions:
REMARK  status: ('A' for Active; 'I' for Inactive)
REMARK    1  A    between atoms: C_2  and  C_3 
REMARK       I    between atoms: C_2  and  N_16 
REMARK    2  A    between atoms: C_4  and  C_5 
REMARK    3  A    between atoms: C_6  and  C_7 
ROOT
HETATM    1  C   UNL     1     -21.329  -5.826  -5.889  1.00  0.00     0.001 C 
HETATM    2  C   UNL     1     -21.182  -4.679  -6.569  1.00  0.00     0.011 C 
ENDROOT
BRANCH   1   3
HETATM    3  C   UNL     1     -21.189  -5.932  -4.452  1.00  0.00     0.005 C 
HETATM    4  C   UNL     1     -21.988  -6.720  -3.719  1.00  0.00     0.074 C 
BRANCH   4   5
HETATM    5  C   UNL     1     -21.907  -6.664  -2.243  1.00  0.00     0.243 C 
HETATM    6  O   UNL     1     -22.093  -5.602  -1.660  1.00  0.00    -0.268 OA
HETATM    7  N   UNL     1     -21.621  -7.869  -1.617  1.00  0.00    -0.349 N 
HETATM    8  C   UNL     1     -21.442  -9.158  -2.290  1.00  0.00     0.126 C 
HETATM    9  C   UNL     1     -21.488  -7.909  -0.165  1.00  0.00     0.126 C 
HETATM   10  C   UNL     1     -22.411 -10.198  -1.736  1.00  0.00     0.020 C 
HETATM   11  C   UNL     1     -22.314 -10.300  -0.215  1.00  0.00     0.003 C 
HETATM   12  C   UNL     1     -22.452  -8.927   0.444  1.00  0.00     0.020 C 
ENDBRANCH   4   5
ENDBRANCH   1   3
BRANCH   2  13
HETATM   13  C   UNL     1     -21.388  -4.558  -8.024  1.00  0.00    -0.033 A 
HETATM   14  C   UNL     1     -20.305  -4.145  -8.836  1.00  0.00     0.014 A 
HETATM   15  C   UNL     1     -20.444  -4.013 -10.225  1.00  0.00     0.040 A 
HETATM   16  C   UNL     1     -21.672  -4.303 -10.775  1.00  0.00     0.105 A 
HETATM   17  C   UNL     1     -22.726  -4.720 -10.001  1.00  0.00     0.105 A 
HETATM   18  O   UNL     1     -21.998  -4.223 -12.094  1.00  0.00    -0.323 OA
HETATM   19  C   UNL     1     -22.614  -4.868  -8.633  1.00  0.00     0.051 A 
HETATM   20  O   UNL     1     -23.848  -4.956 -10.730  1.00  0.00    -0.323 OA
HETATM   21  C   UNL     1     -23.390  -4.602 -12.052  1.00  0.00     0.352 A 
ENDBRANCH   2  13
TORSDOF 3
ENDMDL
MODEL 3
REMARK VINA RESULT:      -8.2      2.469      8.862
REMARK  3 active torsions:
REMARK  status: ('A' for Active; 'I' for Inactive)
REMARK    1  A    between atoms: C_2  and  C_3 
REMARK       I    between atoms: C_2  and  N_16 
REMARK    2  A    between atoms: C_4  and  C_5 
REMARK    3  A    between atoms: C_6  and  C_7 
ROOT
HETATM    1  C   UNL     1     -20.957  -5.363  -5.440  1.00  0.00     0.001 C 
HETATM    2  C   UNL     1     -22.069  -5.289  -6.186  1.00  0.00     0.011 C 
ENDROOT
BRANCH   1   3
HETATM    3  C   UNL     1     -20.917  -5.934  -4.110  1.00  0.00     0.005 C 
HETATM    4  C   UNL     1     -21.950  -6.622  -3.604  1.00  0.00     0.074 C 
BRANCH   4   5
HETATM    5  C   UNL     1     -21.919  -7.040  -2.185  1.00  0.00     0.243 C 
HETATM    6  O   UNL     1     -22.088  -6.210  -1.300  1.00  0.00    -0.268 OA
HETATM    7  N   UNL     1     -21.696  -8.393  -1.970  1.00  0.00    -0.349 N 
HETATM    8  C   UNL     1     -21.537  -9.409  -3.013  1.00  0.00     0.126 C 
HETATM    9  C   UNL     1     -21.615  -8.897  -0.602  1.00  0.00     0.126 C 
HETATM   10  C   UNL     1     -22.560 -10.528  -2.840  1.00  0.00     0.020 C 
HETATM   11  C   UNL     1     -22.519 -11.110  -1.429  1.00  0.00     0.003 C 
HETATM   12  C   UNL     1     -22.634 -10.012  -0.370  1.00  0.00     0.020 C 
ENDBRANCH   4   5
ENDBRANCH   1   3
BRANCH   2  13
HETATM   13  C   UNL     1     -22.098  -4.766  -7.565  1.00  0.00    -0.033 A 
HETATM   14  C   UNL     1     -23.295  -4.193  -8.054  1.00  0.00     0.014 A 
HETATM   15  C   UNL     1     -23.378  -3.681  -9.357  1.00  0.00     0.040 A 
HETATM   16  C   UNL     1     -22.252  -3.751 -10.145  1.00  0.00     0.105 A 
HETATM   17  C   UNL     1     -21.080  -4.290  -9.676  1.00  0.00     0.105 A 
HETATM   18  O   UNL     1     -22.146  -3.319 -11.431  1.00  0.00    -0.323 OA
HETATM   19  C   UNL     1     -20.967  -4.792  -8.395  1.00  0.00     0.051 A 
HETATM   20  O   UNL     1     -20.087  -4.266 -10.604  1.00  0.00    -0.323 OA
HETATM   21  C   UNL     1     -20.781  -3.683 -11.727  1.00  0.00     0.352 A 
ENDBRANCH   2  13
TORSDOF 3
ENDMDL
MODEL 4
REMARK VINA RESULT:      -8.0      2.877      8.910
REMARK  3 active torsions:
REMARK  status: ('A' for Active; 'I' for Inactive)
REMARK    1  A    between atoms: C_2  and  C_3 
REMARK       I    between atoms: C_2  and  N_16 
REMARK    2  A    between atoms: C_4  and  C_5 
REMARK    3  A    between atoms: C_6  and  C_7 
ROOT
HETATM    1  C   UNL     1     -19.993  -7.759  -5.045  1.00  0.00     0.001 C 
HETATM    2  C   UNL     1     -20.483  -6.511  -5.082  1.00  0.00     0.011 C 
ENDROOT
BRANCH   1   3
HETATM    3  C   UNL     1     -19.726  -8.481  -3.819  1.00  0.00     0.005 C 
HETATM    4  C   UNL     1     -20.539  -9.451  -3.377  1.00  0.00     0.074 C 
BRANCH   4   5
HETATM    5  C   UNL     1     -20.306 -10.040  -2.040  1.00  0.00     0.243 C 
HETATM    6  O   UNL     1     -19.375 -10.819  -1.869  1.00  0.00    -0.268 OA
HETATM    7  N   UNL     1     -21.195  -9.641  -1.052  1.00  0.00    -0.349 N 
HETATM    8  C   UNL     1     -22.286  -8.678  -1.222  1.00  0.00     0.126 C 
HETATM    9  C   UNL     1     -21.068 -10.194   0.293  1.00  0.00     0.126 C 
HETATM   10  C   UNL     1     -22.153  -7.527  -0.229  1.00  0.00     0.020 C 
HETATM   11  C   UNL     1     -22.027  -8.038   1.205  1.00  0.00     0.003 C 
HETATM   12  C   UNL     1     -20.915  -9.080   1.329  1.00  0.00     0.020 C 
ENDBRANCH   4   5
ENDBRANCH   1   3
BRANCH   2  13
HETATM   13  C   UNL     1     -20.816  -5.799  -6.330  1.00  0.00    -0.033 A 
HETATM   14  C   UNL     1     -19.805  -5.614  -7.302  1.00  0.00     0.014 A 
HETATM   15  C   UNL     1     -20.066  -4.944  -8.506  1.00  0.00     0.040 A 
HETATM   16  C   UNL     1     -21.344  -4.476  -8.714  1.00  0.00     0.105 A 
HETATM   17  C   UNL     1     -22.337  -4.664  -7.786  1.00  0.00     0.105 A 
HETATM   18  O   UNL     1     -21.779  -3.797  -9.810  1.00  0.00    -0.323 OA
HETATM   19  C   UNL     1     -22.111  -5.327  -6.597  1.00  0.00     0.051 A 
HETATM   20  O   UNL     1     -23.524  -4.129  -8.177  1.00  0.00    -0.323 OA
HETATM   21  C   UNL     1     -23.153  -3.548  -9.445  1.00  0.00     0.352 A 
ENDBRANCH   2  13
TORSDOF 3
ENDMDL
MODEL 5
REMARK VINA RESULT:      -7.5      2.841      9.329
REMARK  3 active torsions:
REMARK  status: ('A' for Active; 'I' for Inactive)
REMARK    1  A    between atoms: C_2  and  C_3 
REMARK       I    between atoms: C_2  and  N_16 
REMARK    2  A    between atoms: C_4  and  C_5 
REMARK    3  A    between atoms: C_6  and  C_7 
ROOT
HETATM    1  C   UNL     1     -20.896  -6.934  -4.443  1.00  0.00     0.001 C 
HETATM    2  C   UNL     1     -21.108  -5.669  -4.837  1.00  0.00     0.011 C 
ENDROOT
BRANCH   1   3
HETATM    3  C   UNL     1     -20.968  -7.370  -3.065  1.00  0.00     0.005 C 
HETATM    4  C   UNL     1     -21.494  -8.554  -2.724  1.00  0.00     0.074 C 
BRANCH   4   5
HETATM    5  C   UNL     1     -21.691  -8.877  -1.293  1.00  0.00     0.243 C 
HETATM    6  O   UNL     1     -22.577  -8.318  -0.657  1.00  0.00    -0.268 OA
HETATM    7  N   UNL     1     -20.822  -9.826  -0.773  1.00  0.00    -0.349 N 
HETATM    8  C   UNL     1     -19.787 -10.539  -1.525  1.00  0.00     0.126 C 
HETATM    9  C   UNL     1     -20.915 -10.186   0.638  1.00  0.00     0.126 C 
HETATM   10  C   UNL     1     -19.980 -12.048  -1.416  1.00  0.00     0.020 C 
HETATM   11  C   UNL     1     -20.073 -12.496   0.042  1.00  0.00     0.003 C 
HETATM   12  C   UNL     1     -21.126 -11.691   0.804  1.00  0.00     0.020 C 
ENDBRANCH   4   5
ENDBRANCH   1   3
BRANCH   2  13
HETATM   13  C   UNL     1     -21.099  -5.237  -6.247  1.00  0.00    -0.033 A 
HETATM   14  C   UNL     1     -19.901  -5.359  -6.991  1.00  0.00     0.014 A 
HETATM   15  C   UNL     1     -19.836  -4.965  -8.335  1.00  0.00     0.040 A 
HETATM   16  C   UNL     1     -20.979  -4.457  -8.909  1.00  0.00     0.105 A 
HETATM   17  C   UNL     1     -22.150  -4.349  -8.203  1.00  0.00     0.105 A 
HETATM   18  O   UNL     1     -21.103  -4.015 -10.190  1.00  0.00    -0.323 OA
HETATM   19  C   UNL     1     -22.247  -4.738  -6.882  1.00  0.00     0.051 A 
HETATM   20  O   UNL     1     -23.162  -3.826  -8.946  1.00  0.00    -0.323 OA
HETATM   21  C   UNL     1     -22.480  -3.582 -10.194  1.00  0.00     0.352 A 
ENDBRANCH   2  13
TORSDOF 3
ENDMDL
MODEL 6
REMARK VINA RESULT:      -7.3     16.237     18.189
REMARK  3 active torsions:
REMARK  status: ('A' for Active; 'I' for Inactive)
REMARK    1  A    between atoms: C_2  and  C_3 
REMARK       I    between atoms: C_2  and  N_16 
REMARK    2  A    between atoms: C_4  and  C_5 
REMARK    3  A    between atoms: C_6  and  C_7 
ROOT
HETATM    1  C   UNL     1     -21.296   8.721   2.218  1.00  0.00     0.001 C 
HETATM    2  C   UNL     1     -22.579   9.113   2.201  1.00  0.00     0.011 C 
ENDROOT
BRANCH   1   3
HETATM    3  C   UNL     1     -20.372   9.039   3.286  1.00  0.00     0.005 C 
HETATM    4  C   UNL     1     -19.045   8.958   3.121  1.00  0.00     0.074 C 
BRANCH   4   5
HETATM    5  C   UNL     1     -18.155   9.135   4.290  1.00  0.00     0.243 C 
HETATM    6  O   UNL     1     -18.612   9.048   5.424  1.00  0.00    -0.268 OA
HETATM    7  N   UNL     1     -16.825   9.392   3.991  1.00  0.00    -0.349 N 
HETATM    8  C   UNL     1     -16.249   9.455   2.646  1.00  0.00     0.126 C 
HETATM    9  C   UNL     1     -15.876   9.615   5.077  1.00  0.00     0.126 C 
HETATM   10  C   UNL     1     -15.096   8.465   2.502  1.00  0.00     0.020 C 
HETATM   11  C   UNL     1     -14.057   8.653   3.605  1.00  0.00     0.003 C 
HETATM   12  C   UNL     1     -14.706   8.635   4.990  1.00  0.00     0.020 C 
ENDBRANCH   4   5
ENDBRANCH   1   3
BRANCH   2  13
HETATM   13  C   UNL     1     -23.537   8.735   1.145  1.00  0.00    -0.033 A 
HETATM   14  C   UNL     1     -24.914   8.993   1.348  1.00  0.00     0.014 A 
HETATM   15  C   UNL     1     -25.868   8.655   0.378  1.00  0.00     0.040 A 
HETATM   16  C   UNL     1     -25.420   8.066  -0.783  1.00  0.00     0.105 A 
HETATM   17  C   UNL     1     -24.086   7.826  -0.998  1.00  0.00     0.105 A 
HETATM   18  O   UNL     1     -26.194   7.660  -1.826  1.00  0.00    -0.323 OA
HETATM   19  C   UNL     1     -23.124   8.157  -0.065  1.00  0.00     0.051 A 
HETATM   20  O   UNL     1     -23.849   7.240  -2.201  1.00  0.00    -0.323 OA
HETATM   21  C   UNL     1     -25.194   7.104  -2.705  1.00  0.00     0.352 A 
ENDBRANCH   2  13
TORSDOF 3
ENDMDL
MODEL 7
REMARK VINA RESULT:      -7.3      3.710      5.084
REMARK  3 active torsions:
REMARK  status: ('A' for Active; 'I' for Inactive)
REMARK    1  A    between atoms: C_2  and  C_3 
REMARK       I    between atoms: C_2  and  N_16 
REMARK    2  A    between atoms: C_4  and  C_5 
REMARK    3  A    between atoms: C_6  and  C_7 
ROOT
HETATM    1  C   UNL     1     -20.204  -8.687  -2.870  1.00  0.00     0.001 C 
HETATM    2  C   UNL     1     -19.013  -9.065  -3.360  1.00  0.00     0.011 C 
ENDROOT
BRANCH   1   3
HETATM    3  C   UNL     1     -21.143  -7.857  -3.592  1.00  0.00     0.005 C 
HETATM    4  C   UNL     1     -20.847  -7.328  -4.788  1.00  0.00     0.074 C 
BRANCH   4   5
HETATM    5  C   UNL     1     -21.779  -6.357  -5.403  1.00  0.00     0.243 C 
HETATM    6  O   UNL     1     -22.861  -6.129  -4.875  1.00  0.00    -0.268 OA
HETATM    7  N   UNL     1     -21.327  -5.759  -6.571  1.00  0.00    -0.349 N 
HETATM    8  C   UNL     1     -20.020  -5.982  -7.195  1.00  0.00     0.126 C 
HETATM    9  C   UNL     1     -22.189  -4.811  -7.271  1.00  0.00     0.126 C 
HETATM   10  C   UNL     1     -19.268  -4.665  -7.362  1.00  0.00     0.020 C 
HETATM   11  C   UNL     1     -20.112  -3.628  -8.100  1.00  0.00     0.003 C 
HETATM   12  C   UNL     1     -21.487  -3.465  -7.451  1.00  0.00     0.020 C 
ENDBRANCH   4   5
ENDBRANCH   1   3
BRANCH   2  13
HETATM   13  C   UNL     1     -18.083  -9.964  -2.651  1.00  0.00    -0.033 A 
HETATM   14  C   UNL     1     -16.690  -9.770  -2.810  1.00  0.00     0.014 A 
HETATM   15  C   UNL     1     -15.761 -10.594  -2.160  1.00  0.00     0.040 A 
HETATM   16  C   UNL     1     -16.250 -11.599  -1.356  1.00  0.00     0.105 A 
HETATM   17  C   UNL     1     -17.598 -11.787  -1.181  1.00  0.00     0.105 A 
HETATM   18  O   UNL     1     -15.506 -12.500  -0.658  1.00  0.00    -0.323 OA
HETATM   19  C   UNL     1     -18.535 -10.984  -1.801  1.00  0.00     0.051 A 
HETATM   20  O   UNL     1     -17.877 -12.828  -0.352  1.00  0.00    -0.323 OA
HETATM   21  C   UNL     1     -16.546 -13.298  -0.054  1.00  0.00     0.352 A 
ENDBRANCH   2  13
TORSDOF 3
ENDMDL
MODEL 8
REMARK VINA RESULT:      -7.2     13.316     16.873
REMARK  3 active torsions:
REMARK  status: ('A' for Active; 'I' for Inactive)
REMARK    1  A    between atoms: C_2  and  C_3 
REMARK       I    between atoms: C_2  and  N_16 
REMARK    2  A    between atoms: C_4  and  C_5 
REMARK    3  A    between atoms: C_6  and  C_7 
ROOT
HETATM    1  C   UNL     1     -33.102  -3.201 -17.164  1.00  0.00     0.001 C 
HETATM    2  C   UNL     1     -32.507  -4.244 -16.565  1.00  0.00     0.011 C 
ENDROOT
BRANCH   1   3
HETATM    3  C   UNL     1     -34.449  -2.764 -16.868  1.00  0.00     0.005 C 
HETATM    4  C   UNL     1     -34.752  -1.471 -16.690  1.00  0.00     0.074 C 
BRANCH   4   5
HETATM    5  C   UNL     1     -36.107  -1.098 -16.229  1.00  0.00     0.243 C 
HETATM    6  O   UNL     1     -37.091  -1.490 -16.846  1.00  0.00    -0.268 OA
HETATM    7  N   UNL     1     -36.151  -0.308 -15.089  1.00  0.00    -0.349 N 
HETATM    8  C   UNL     1     -34.991   0.134 -14.311  1.00  0.00     0.126 C 
HETATM    9  C   UNL     1     -37.443   0.139 -14.576  1.00  0.00     0.126 C 
HETATM   10  C   UNL     1     -35.118  -0.301 -12.854  1.00  0.00     0.020 C 
HETATM   11  C   UNL     1     -36.448   0.147 -12.250  1.00  0.00     0.003 C 
HETATM   12  C   UNL     1     -37.628  -0.287 -13.120  1.00  0.00     0.020 C 
ENDBRANCH   4   5
ENDBRANCH   1   3
BRANCH   2  13
HETATM   13  C   UNL     1     -31.113  -4.650 -16.820  1.00  0.00    -0.033 A 
HETATM   14  C   UNL     1     -30.459  -4.160 -17.975  1.00  0.00     0.014 A 
HETATM   15  C   UNL     1     -29.133  -4.513 -18.266  1.00  0.00     0.040 A 
HETATM   16  C   UNL     1     -28.486  -5.350 -17.386  1.00  0.00     0.105 A 
HETATM   17  C   UNL     1     -29.104  -5.818 -16.254  1.00  0.00     0.105 A 
HETATM   18  O   UNL     1     -27.210  -5.807 -17.507  1.00  0.00    -0.323 OA
HETATM   19  C   UNL     1     -30.404  -5.480 -15.937  1.00  0.00     0.051 A 
HETATM   20  O   UNL     1     -28.299  -6.628 -15.517  1.00  0.00    -0.323 OA
HETATM   21  C   UNL     1     -27.112  -6.647 -16.337  1.00  0.00     0.352 A 
ENDBRANCH   2  13
TORSDOF 3
ENDMDL
MODEL 9
REMARK VINA RESULT:      -7.2     16.526     18.318
REMARK  3 active torsions:
REMARK  status: ('A' for Active; 'I' for Inactive)
REMARK    1  A    between atoms: C_2  and  C_3 
REMARK       I    between atoms: C_2  and  N_16 
REMARK    2  A    between atoms: C_4  and  C_5 
REMARK    3  A    between atoms: C_6  and  C_7 
ROOT
HETATM    1  C   UNL     1     -21.641   8.907   2.131  1.00  0.00     0.001 C 
HETATM    2  C   UNL     1     -22.936   9.191   2.338  1.00  0.00     0.011 C 
ENDROOT
BRANCH   1   3
HETATM    3  C   UNL     1     -20.602   9.130   3.113  1.00  0.00     0.005 C 
HETATM    4  C   UNL     1     -19.301   9.044   2.800  1.00  0.00     0.074 C 
BRANCH   4   5
HETATM    5  C   UNL     1     -18.288   9.120   3.876  1.00  0.00     0.243 C 
HETATM    6  O   UNL     1     -18.634   9.031   5.048  1.00  0.00    -0.268 OA
HETATM    7  N   UNL     1     -16.979   9.289   3.448  1.00  0.00    -0.349 N 
HETATM    8  C   UNL     1     -16.538   9.352   2.053  1.00  0.00     0.126 C 
HETATM    9  C   UNL     1     -15.912   9.408   4.437  1.00  0.00     0.126 C 
HETATM   10  C   UNL     1     -15.483   8.286   1.769  1.00  0.00     0.020 C 
HETATM   11  C   UNL     1     -14.327   8.363   2.764  1.00  0.00     0.003 C 
HETATM   12  C   UNL     1     -14.834   8.349   4.207  1.00  0.00     0.020 C 
ENDBRANCH   4   5
ENDBRANCH   1   3
BRANCH   2  13
HETATM   13  C   UNL     1     -24.004   8.904   1.363  1.00  0.00    -0.033 A 
HETATM   14  C   UNL     1     -23.664   8.267   0.145  1.00  0.00     0.014 A 
HETATM   15  C   UNL     1     -24.639   7.971  -0.818  1.00  0.00     0.040 A 
HETATM   16  C   UNL     1     -25.942   8.317  -0.537  1.00  0.00     0.105 A 
HETATM   17  C   UNL     1     -26.286   8.919   0.647  1.00  0.00     0.105 A 
HETATM   18  O   UNL     1     -27.015   8.120  -1.350  1.00  0.00    -0.323 OA
HETATM   19  C   UNL     1     -25.349   9.214   1.616  1.00  0.00     0.051 A 
HETATM   20  O   UNL     1     -27.617   9.179   0.732  1.00  0.00    -0.323 OA
HETATM   21  C   UNL     1     -28.068   8.703  -0.554  1.00  0.00     0.352 A 
ENDBRANCH   2  13
TORSDOF 3
ENDMDL
