MODEL 1
REMARK VINA RESULT:      -9.0      0.000      0.000
REMARK  4 active torsions:
REMARK  status: ('A' for Active; 'I' for Inactive)
REMARK       I    between atoms: C_2  and  N_3 
REMARK       I    between atoms: C_2  and  N_11 
REMARK    1  A    between atoms: N_3  and  C_4 
REMARK    2  A    between atoms: N_11  and  C_12 
REMARK    3  A    between atoms: N_15  and  C_16 
REMARK    4  A    between atoms: C_19  and  C_20 
ROOT
HETATM    1  C   UNL     1     -21.956  -7.645  -4.545  1.00  0.00     0.105 C 
HETATM    2  C   UNL     1     -20.775  -8.257  -5.293  1.00  0.00     0.046 C 
HETATM    3  C   UNL     1     -19.980  -7.048  -5.782  1.00  0.00     0.126 C 
HETATM    4  N   UNL     1     -20.994  -6.031  -6.036  1.00  0.00    -0.365 N 
HETATM    5  C   UNL     1     -22.251  -6.357  -5.350  1.00  0.00     0.149 C 
ENDROOT
BRANCH   1   6
HETATM    6  N   UNL     1     -21.606  -7.379  -3.155  1.00  0.00    -0.337 N 
HETATM    7  C   UNL     1     -21.626  -8.189  -2.062  1.00  0.00     0.321 C 
HETATM    8  O   UNL     1     -21.275  -7.696  -0.997  1.00  0.00    -0.247 OA
HETATM    9  N   UNL     1     -22.033  -9.483  -2.260  1.00  0.00    -0.308 N 
HETATM   10  H   UNL     1     -21.986  -9.841  -3.202  1.00  0.00     0.170 HD
HETATM   11  H   UNL     1     -21.241  -6.459  -2.933  1.00  0.00     0.164 HD
BRANCH   9  12
HETATM   12  C   UNL     1     -22.226 -10.460  -1.247  1.00  0.00     0.053 A 
HETATM   13  C   UNL     1     -23.480 -10.690  -0.669  1.00  0.00     0.031 A 
HETATM   14  C   UNL     1     -23.644 -11.636   0.348  1.00  0.00     0.002 A 
HETATM   15  C   UNL     1     -22.555 -12.379   0.792  1.00  0.00     0.002 A 
HETATM   16  C   UNL     1     -21.305 -12.192   0.208  1.00  0.00     0.021 A 
HETATM   17  C   UNL     1     -21.143 -11.243  -0.811  1.00  0.00     0.037 A 
HETATM   18 BR   UNL     1     -19.402 -11.030  -1.547  1.00  0.00    -0.049 Br
ENDBRANCH   9  12
ENDBRANCH   1   6
BRANCH   4  19
HETATM   19  C   UNL     1     -21.055  -5.319  -7.219  1.00  0.00     0.102 A 
HETATM   20  C   UNL     1     -22.145  -4.508  -7.535  1.00  0.00     0.049 A 
HETATM   21  C   UNL     1     -22.196  -3.829  -8.758  1.00  0.00     0.021 A 
HETATM   22  C   UNL     1     -21.154  -3.971  -9.668  1.00  0.00     0.063 A 
HETATM   23  C   UNL     1     -20.106  -4.788  -9.289  1.00  0.00     0.106 A 
HETATM   24  N   UNL     1     -20.045  -5.453  -8.108  1.00  0.00    -0.352 N 
ATOM     25  HN  UNL     1     -19.245  -6.049  -7.893  1.00  0.00     0.166 HD
BRANCH  22  26
HETATM   26  C   UNL     1     -21.139  -3.307 -11.008  1.00  0.00     0.418 C 
HETATM   27  F   UNL     1     -20.042  -2.527 -11.217  1.00  0.00    -0.166 F 
HETATM   28  F   UNL     1     -21.161  -4.200 -12.037  1.00  0.00    -0.166 F 
HETATM   29  F   UNL     1     -22.214  -2.493 -11.201  1.00  0.00    -0.166 F 
ENDBRANCH  22  26
ENDBRANCH   4  19
TORSDOF 4
ENDMDL
MODEL 2
REMARK VINA RESULT:      -8.2      5.938     10.222
REMARK  4 active torsions:
REMARK  status: ('A' for Active; 'I' for Inactive)
REMARK       I    between atoms: C_2  and  N_3 
REMARK       I    between atoms: C_2  and  N_11 
REMARK    1  A    between atoms: N_3  and  C_4 
REMARK    2  A    between atoms: N_11  and  C_12 
REMARK    3  A    between atoms: N_15  and  C_16 
REMARK    4  A    between atoms: C_19  and  C_20 
ROOT
HETATM    1  C   UNL     1     -20.800  -6.987  -5.809  1.00  0.00     0.105 C 
HETATM    2  C   UNL     1     -21.991  -6.381  -5.072  1.00  0.00     0.046 C 
HETATM    3  C   UNL     1     -21.513  -6.268  -3.626  1.00  0.00     0.126 C 
HETATM    4  N   UNL     1     -20.617  -7.406  -3.454  1.00  0.00    -0.365 N 
HETATM    5  C   UNL     1     -20.179  -7.934  -4.753  1.00  0.00     0.149 C 
ENDROOT
BRANCH   1   6
HETATM    6  N   UNL     1     -19.879  -5.946  -6.249  1.00  0.00    -0.337 N 
HETATM    7  C   UNL     1     -19.919  -5.124  -7.333  1.00  0.00     0.321 C 
HETATM    8  O   UNL     1     -18.998  -4.328  -7.462  1.00  0.00    -0.247 OA
HETATM    9  N   UNL     1     -20.992  -5.262  -8.174  1.00  0.00    -0.308 N 
HETATM   10  H   UNL     1     -21.816  -5.709  -7.799  1.00  0.00     0.170 HD
HETATM   11  H   UNL     1     -19.085  -5.741  -5.653  1.00  0.00     0.164 HD
BRANCH   9  12
HETATM   12  C   UNL     1     -21.178  -4.583  -9.408  1.00  0.00     0.053 A 
HETATM   13  C   UNL     1     -20.162  -4.500 -10.368  1.00  0.00     0.031 A 
HETATM   14  C   UNL     1     -20.354  -3.800 -11.563  1.00  0.00     0.002 A 
HETATM   15  C   UNL     1     -21.574  -3.185 -11.824  1.00  0.00     0.002 A 
HETATM   16  C   UNL     1     -22.611  -3.283 -10.899  1.00  0.00     0.021 A 
HETATM   17  C   UNL     1     -22.416  -3.984  -9.701  1.00  0.00     0.037 A 
HETATM   18 BR   UNL     1     -23.871  -4.059  -8.478  1.00  0.00    -0.049 Br
ENDBRANCH   9  12
ENDBRANCH   1   6
BRANCH   4  19
HETATM   19  C   UNL     1     -20.722  -8.282  -2.390  1.00  0.00     0.102 A 
HETATM   20  C   UNL     1     -21.533  -8.007  -1.288  1.00  0.00     0.049 A 
HETATM   21  C   UNL     1     -21.590  -8.896  -0.208  1.00  0.00     0.021 A 
HETATM   22  C   UNL     1     -20.826 -10.058  -0.231  1.00  0.00     0.063 A 
HETATM   23  C   UNL     1     -20.048 -10.266  -1.354  1.00  0.00     0.106 A 
HETATM   24  N   UNL     1     -19.982  -9.413  -2.406  1.00  0.00    -0.352 N 
ATOM     25  HN  UNL     1     -19.379  -9.622  -3.202  1.00  0.00     0.166 HD
BRANCH  22  26
HETATM   26  C   UNL     1     -20.803 -11.047   0.890  1.00  0.00     0.418 C 
HETATM   27  F   UNL     1     -19.932 -12.076   0.691  1.00  0.00    -0.166 F 
HETATM   28  F   UNL     1     -20.448 -10.485   2.079  1.00  0.00    -0.166 F 
HETATM   29  F   UNL     1     -22.017 -11.628   1.102  1.00  0.00    -0.166 F 
ENDBRANCH  22  26
ENDBRANCH   4  19
TORSDOF 4
ENDMDL
MODEL 3
REMARK VINA RESULT:      -7.7      2.593      3.705
REMARK  4 active torsions:
REMARK  status: ('A' for Active; 'I' for Inactive)
REMARK       I    between atoms: C_2  and  N_3 
REMARK       I    between atoms: C_2  and  N_11 
REMARK    1  A    between atoms: N_3  and  C_4 
REMARK    2  A    between atoms: N_11  and  C_12 
REMARK    3  A    between atoms: N_15  and  C_16 
REMARK    4  A    between atoms: C_19  and  C_20 
ROOT
HETATM    1  C   UNL     1     -20.120 -10.856  -3.296  1.00  0.00     0.105 C 
HETATM    2  C   UNL     1     -19.113 -10.781  -4.440  1.00  0.00     0.046 C 
HETATM    3  C   UNL     1     -18.753  -9.299  -4.518  1.00  0.00     0.126 C 
HETATM    4  N   UNL     1     -19.977  -8.610  -4.126  1.00  0.00    -0.365 N 
HETATM    5  C   UNL     1     -20.888  -9.518  -3.416  1.00  0.00     0.149 C 
ENDROOT
BRANCH   1   6
HETATM    6  N   UNL     1     -19.439 -11.008  -2.015  1.00  0.00    -0.337 N 
HETATM    7  C   UNL     1     -19.798 -11.687  -0.892  1.00  0.00     0.321 C 
HETATM    8  O   UNL     1     -19.024 -11.644   0.056  1.00  0.00    -0.247 OA
HETATM    9  N   UNL     1     -20.992 -12.360  -0.932  1.00  0.00    -0.308 N 
HETATM   10  H   UNL     1     -21.366 -12.578  -1.843  1.00  0.00     0.170 HD
HETATM   11  H   UNL     1     -18.522 -10.586  -1.921  1.00  0.00     0.164 HD
BRANCH   9  12
HETATM   12  C   UNL     1     -21.601 -13.042   0.155  1.00  0.00     0.053 A 
HETATM   13  C   UNL     1     -20.962 -14.097   0.818  1.00  0.00     0.031 A 
HETATM   14  C   UNL     1     -21.592 -14.776   1.867  1.00  0.00     0.002 A 
HETATM   15  C   UNL     1     -22.866 -14.398   2.279  1.00  0.00     0.002 A 
HETATM   16  C   UNL     1     -23.506 -13.330   1.655  1.00  0.00     0.021 A 
HETATM   17  C   UNL     1     -22.875 -12.651   0.604  1.00  0.00     0.037 A 
HETATM   18 BR   UNL     1     -23.819 -11.215  -0.210  1.00  0.00    -0.049 Br
ENDBRANCH   9  12
ENDBRANCH   1   6
BRANCH   4  19
HETATM   19  C   UNL     1     -20.522  -7.580  -4.868  1.00  0.00     0.102 A 
HETATM   20  C   UNL     1     -21.781  -7.052  -4.581  1.00  0.00     0.049 A 
HETATM   21  C   UNL     1     -22.323  -6.033  -5.374  1.00  0.00     0.021 A 
HETATM   22  C   UNL     1     -21.602  -5.549  -6.461  1.00  0.00     0.063 A 
HETATM   23  C   UNL     1     -20.362  -6.117  -6.684  1.00  0.00     0.106 A 
HETATM   24  N   UNL     1     -19.827  -7.105  -5.926  1.00  0.00    -0.352 N 
ATOM     25  HN  UNL     1     -18.908  -7.488  -6.152  1.00  0.00     0.166 HD
BRANCH  22  26
HETATM   26  C   UNL     1     -22.116  -4.485  -7.377  1.00  0.00     0.418 C 
HETATM   27  F   UNL     1     -21.616  -3.246  -7.107  1.00  0.00    -0.166 F 
HETATM   28  F   UNL     1     -21.817  -4.728  -8.683  1.00  0.00    -0.166 F 
HETATM   29  F   UNL     1     -23.470  -4.356  -7.323  1.00  0.00    -0.166 F 
ENDBRANCH  22  26
ENDBRANCH   4  19
TORSDOF 4
ENDMDL
MODEL 4
REMARK VINA RESULT:      -7.7      2.445      3.431
REMARK  4 active torsions:
REMARK  status: ('A' for Active; 'I' for Inactive)
REMARK       I    between atoms: C_2  and  N_3 
REMARK       I    between atoms: C_2  and  N_11 
REMARK    1  A    between atoms: N_3  and  C_4 
REMARK    2  A    between atoms: N_11  and  C_12 
REMARK    3  A    between atoms: N_15  and  C_16 
REMARK    4  A    between atoms: C_19  and  C_20 
ROOT
HETATM    1  C   UNL     1     -19.738 -11.046  -4.768  1.00  0.00     0.105 C 
HETATM    2  C   UNL     1     -18.435 -10.433  -5.275  1.00  0.00     0.046 C 
HETATM    3  C   UNL     1     -18.511  -8.976  -4.822  1.00  0.00     0.126 C 
HETATM    4  N   UNL     1     -19.933  -8.658  -4.874  1.00  0.00    -0.365 N 
HETATM    5  C   UNL     1     -20.747  -9.880  -4.896  1.00  0.00     0.149 C 
ENDROOT
BRANCH   1   6
HETATM    6  N   UNL     1     -19.587 -11.519  -3.397  1.00  0.00    -0.337 N 
HETATM    7  C   UNL     1     -20.197 -11.121  -2.248  1.00  0.00     0.321 C 
HETATM    8  O   UNL     1     -19.875 -11.701  -1.218  1.00  0.00    -0.247 OA
HETATM    9  N   UNL     1     -21.118 -10.112  -2.354  1.00  0.00    -0.308 N 
HETATM   10  H   UNL     1     -21.516  -9.947  -3.266  1.00  0.00     0.170 HD
HETATM   11  H   UNL     1     -18.964 -12.304  -3.239  1.00  0.00     0.164 HD
BRANCH   9  12
HETATM   12  C   UNL     1     -21.790  -9.479  -1.274  1.00  0.00     0.053 A 
HETATM   13  C   UNL     1     -21.333  -8.276  -0.721  1.00  0.00     0.031 A 
HETATM   14  C   UNL     1     -21.991  -7.685   0.362  1.00  0.00     0.002 A 
HETATM   15  C   UNL     1     -23.129  -8.280   0.898  1.00  0.00     0.002 A 
HETATM   16  C   UNL     1     -23.620  -9.459   0.343  1.00  0.00     0.021 A 
HETATM   17  C   UNL     1     -22.959 -10.051  -0.742  1.00  0.00     0.037 A 
HETATM   18 BR   UNL     1     -23.679 -11.669  -1.435  1.00  0.00    -0.049 Br
ENDBRANCH   9  12
ENDBRANCH   1   6
BRANCH   4  19
HETATM   19  C   UNL     1     -20.421  -7.531  -5.509  1.00  0.00     0.102 A 
HETATM   20  C   UNL     1     -21.643  -6.958  -5.156  1.00  0.00     0.049 A 
HETATM   21  C   UNL     1     -22.128  -5.839  -5.843  1.00  0.00     0.021 A 
HETATM   22  C   UNL     1     -21.389  -5.299  -6.890  1.00  0.00     0.063 A 
HETATM   23  C   UNL     1     -20.188  -5.917  -7.184  1.00  0.00     0.106 A 
HETATM   24  N   UNL     1     -19.707  -7.002  -6.529  1.00  0.00    -0.352 N 
ATOM     25  HN  UNL     1     -18.815  -7.416  -6.802  1.00  0.00     0.166 HD
BRANCH  22  26
HETATM   26  C   UNL     1     -21.845  -4.125  -7.696  1.00  0.00     0.418 C 
HETATM   27  F   UNL     1     -21.366  -4.122  -8.973  1.00  0.00    -0.166 F 
HETATM   28  F   UNL     1     -23.201  -4.060  -7.809  1.00  0.00    -0.166 F 
HETATM   29  F   UNL     1     -21.460  -2.936  -7.155  1.00  0.00    -0.166 F 
ENDBRANCH  22  26
ENDBRANCH   4  19
TORSDOF 4
ENDMDL
MODEL 5
REMARK VINA RESULT:      -7.7     18.462     19.708
REMARK  4 active torsions:
REMARK  status: ('A' for Active; 'I' for Inactive)
REMARK       I    between atoms: C_2  and  N_3 
REMARK       I    between atoms: C_2  and  N_11 
REMARK    1  A    between atoms: N_3  and  C_4 
REMARK    2  A    between atoms: N_11  and  C_12 
REMARK    3  A    between atoms: N_15  and  C_16 
REMARK    4  A    between atoms: C_19  and  C_20 
ROOT
HETATM    1  C   UNL     1     -20.618   9.247   4.233  1.00  0.00     0.105 C 
HETATM    2  C   UNL     1     -20.390   8.460   2.946  1.00  0.00     0.046 C 
HETATM    3  C   UNL     1     -21.280   9.161   1.922  1.00  0.00     0.126 C 
HETATM    4  N   UNL     1     -22.422   9.630   2.699  1.00  0.00    -0.365 N 
HETATM    5  C   UNL     1     -22.106   9.660   4.134  1.00  0.00     0.149 C 
ENDROOT
BRANCH   1   6
HETATM    6  N   UNL     1     -19.715  10.390   4.308  1.00  0.00    -0.337 N 
HETATM    7  C   UNL     1     -18.377  10.452   4.547  1.00  0.00     0.321 C 
HETATM    8  O   UNL     1     -17.864  11.564   4.554  1.00  0.00    -0.247 OA
HETATM    9  N   UNL     1     -17.730   9.261   4.751  1.00  0.00    -0.308 N 
HETATM   10  H   UNL     1     -18.184   8.427   4.411  1.00  0.00     0.170 HD
HETATM   11  H   UNL     1     -20.104  11.306   4.114  1.00  0.00     0.164 HD
BRANCH   9  12
HETATM   12  C   UNL     1     -16.366   9.105   5.116  1.00  0.00     0.053 A 
HETATM   13  C   UNL     1     -15.955   9.088   6.454  1.00  0.00     0.031 A 
HETATM   14  C   UNL     1     -14.603   8.964   6.792  1.00  0.00     0.002 A 
HETATM   15  C   UNL     1     -13.642   8.839   5.794  1.00  0.00     0.002 A 
HETATM   16  C   UNL     1     -14.032   8.820   4.457  1.00  0.00     0.021 A 
HETATM   17  C   UNL     1     -15.387   8.945   4.120  1.00  0.00     0.037 A 
HETATM   18 BR   UNL     1     -15.840   8.930   2.273  1.00  0.00    -0.049 Br
ENDBRANCH   9  12
ENDBRANCH   1   6
BRANCH   4  19
HETATM   19  C   UNL     1     -23.729   9.394   2.318  1.00  0.00     0.102 A 
HETATM   20  C   UNL     1     -24.043   8.782   1.104  1.00  0.00     0.049 A 
HETATM   21  C   UNL     1     -25.378   8.591   0.728  1.00  0.00     0.021 A 
HETATM   22  C   UNL     1     -26.399   9.021   1.569  1.00  0.00     0.063 A 
HETATM   23  C   UNL     1     -26.015   9.618   2.755  1.00  0.00     0.106 A 
HETATM   24  N   UNL     1     -24.726   9.811   3.131  1.00  0.00    -0.352 N 
ATOM     25  HN  UNL     1     -24.511  10.267   4.018  1.00  0.00     0.166 HD
BRANCH  22  26
HETATM   26  C   UNL     1     -27.850   8.885   1.234  1.00  0.00     0.418 C 
HETATM   27  F   UNL     1     -28.524  10.069   1.241  1.00  0.00    -0.166 F 
HETATM   28  F   UNL     1     -28.055   8.348  -0.001  1.00  0.00    -0.166 F 
HETATM   29  F   UNL     1     -28.515   8.077   2.105  1.00  0.00    -0.166 F 
ENDBRANCH  22  26
ENDBRANCH   4  19
TORSDOF 4
ENDMDL
MODEL 6
REMARK VINA RESULT:      -7.7      2.007      3.153
REMARK  4 active torsions:
REMARK  status: ('A' for Active; 'I' for Inactive)
REMARK       I    between atoms: C_2  and  N_3 
REMARK       I    between atoms: C_2  and  N_11 
REMARK    1  A    between atoms: N_3  and  C_4 
REMARK    2  A    between atoms: N_11  and  C_12 
REMARK    3  A    between atoms: N_15  and  C_16 
REMARK    4  A    between atoms: C_19  and  C_20 
ROOT
HETATM    1  C   UNL     1     -21.259  -8.886  -2.222  1.00  0.00     0.105 C 
HETATM    2  C   UNL     1     -20.773  -7.540  -1.693  1.00  0.00     0.046 C 
HETATM    3  C   UNL     1     -21.529  -6.516  -2.538  1.00  0.00     0.126 C 
HETATM    4  N   UNL     1     -21.679  -7.163  -3.836  1.00  0.00    -0.365 N 
HETATM    5  C   UNL     1     -21.476  -8.614  -3.729  1.00  0.00     0.149 C 
ENDROOT
BRANCH   1   6
HETATM    6  N   UNL     1     -22.479  -9.301  -1.538  1.00  0.00    -0.337 N 
HETATM    7  C   UNL     1     -22.773 -10.442  -0.859  1.00  0.00     0.321 C 
HETATM    8  O   UNL     1     -23.895 -10.529  -0.376  1.00  0.00    -0.247 OA
HETATM    9  N   UNL     1     -21.781 -11.385  -0.775  1.00  0.00    -0.308 N 
HETATM   10  H   UNL     1     -20.835 -11.071  -0.927  1.00  0.00     0.170 HD
HETATM   11  H   UNL     1     -23.245  -8.637  -1.505  1.00  0.00     0.164 HD
BRANCH   9  12
HETATM   12  C   UNL     1     -21.908 -12.680  -0.207  1.00  0.00     0.053 A 
HETATM   13  C   UNL     1     -21.889 -12.886   1.179  1.00  0.00     0.031 A 
HETATM   14  C   UNL     1     -21.984 -14.172   1.718  1.00  0.00     0.002 A 
HETATM   15  C   UNL     1     -22.117 -15.274   0.879  1.00  0.00     0.002 A 
HETATM   16  C   UNL     1     -22.171 -15.090  -0.500  1.00  0.00     0.021 A 
HETATM   17  C   UNL     1     -22.075 -13.800  -1.039  1.00  0.00     0.037 A 
HETATM   18 BR   UNL     1     -22.140 -13.631  -2.933  1.00  0.00    -0.049 Br
ENDBRANCH   9  12
ENDBRANCH   1   6
BRANCH   4  19
HETATM   19  C   UNL     1     -21.345  -6.537  -5.022  1.00  0.00     0.102 A 
HETATM   20  C   UNL     1     -20.128  -6.774  -5.662  1.00  0.00     0.049 A 
HETATM   21  C   UNL     1     -19.802  -6.097  -6.843  1.00  0.00     0.021 A 
HETATM   22  C   UNL     1     -20.697  -5.176  -7.379  1.00  0.00     0.063 A 
HETATM   23  C   UNL     1     -21.883  -4.993  -6.694  1.00  0.00     0.106 A 
HETATM   24  N   UNL     1     -22.210  -5.640  -5.548  1.00  0.00    -0.352 N 
ATOM     25  HN  UNL     1     -23.101  -5.452  -5.086  1.00  0.00     0.166 HD
BRANCH  22  26
HETATM   26  C   UNL     1     -20.418  -4.387  -8.618  1.00  0.00     0.418 C 
HETATM   27  F   UNL     1     -19.965  -5.146  -9.656  1.00  0.00    -0.166 F 
HETATM   28  F   UNL     1     -21.519  -3.738  -9.086  1.00  0.00    -0.166 F 
HETATM   29  F   UNL     1     -19.473  -3.425  -8.426  1.00  0.00    -0.166 F 
ENDBRANCH  22  26
ENDBRANCH   4  19
TORSDOF 4
ENDMDL
MODEL 7
REMARK VINA RESULT:      -7.6     18.203     19.912
REMARK  4 active torsions:
REMARK  status: ('A' for Active; 'I' for Inactive)
REMARK       I    between atoms: C_2  and  N_3 
REMARK       I    between atoms: C_2  and  N_11 
REMARK    1  A    between atoms: N_3  and  C_4 
REMARK    2  A    between atoms: N_11  and  C_12 
REMARK    3  A    between atoms: N_15  and  C_16 
REMARK    4  A    between atoms: C_19  and  C_20 
ROOT
HETATM    1  C   UNL     1     -20.713   8.825   2.832  1.00  0.00     0.105 C 
HETATM    2  C   UNL     1     -20.997   9.081   4.309  1.00  0.00     0.046 C 
HETATM    3  C   UNL     1     -19.931  10.094   4.721  1.00  0.00     0.126 C 
HETATM    4  N   UNL     1     -18.775   9.753   3.899  1.00  0.00    -0.365 N 
HETATM    5  C   UNL     1     -19.171   8.931   2.747  1.00  0.00     0.149 C 
ENDROOT
BRANCH   1   6
HETATM    6  N   UNL     1     -21.396   9.806   1.996  1.00  0.00    -0.337 N 
HETATM    7  C   UNL     1     -22.336   9.645   1.025  1.00  0.00     0.321 C 
HETATM    8  O   UNL     1     -22.745  10.660   0.474  1.00  0.00    -0.247 OA
HETATM    9  N   UNL     1     -22.739   8.362   0.761  1.00  0.00    -0.308 N 
HETATM   10  H   UNL     1     -22.574   7.672   1.478  1.00  0.00     0.170 HD
HETATM   11  H   UNL     1     -21.195  10.785   2.166  1.00  0.00     0.164 HD
BRANCH   9  12
HETATM   12  C   UNL     1     -23.626   7.963  -0.274  1.00  0.00     0.053 A 
HETATM   13  C   UNL     1     -23.172   7.305  -1.425  1.00  0.00     0.031 A 
HETATM   14  C   UNL     1     -24.057   6.948  -2.447  1.00  0.00     0.002 A 
HETATM   15  C   UNL     1     -25.414   7.229  -2.327  1.00  0.00     0.002 A 
HETATM   16  C   UNL     1     -25.892   7.853  -1.177  1.00  0.00     0.021 A 
HETATM   17  C   UNL     1     -25.004   8.211  -0.154  1.00  0.00     0.037 A 
HETATM   18 BR   UNL     1     -25.729   9.076   1.378  1.00  0.00    -0.049 Br
ENDBRANCH   9  12
ENDBRANCH   1   6
BRANCH   4  19
HETATM   19  C   UNL     1     -17.511   9.579   4.428  1.00  0.00     0.102 A 
HETATM   20  C   UNL     1     -17.287   9.548   5.805  1.00  0.00     0.049 A 
HETATM   21  C   UNL     1     -15.990   9.408   6.312  1.00  0.00     0.021 A 
HETATM   22  C   UNL     1     -14.915   9.305   5.434  1.00  0.00     0.063 A 
HETATM   23  C   UNL     1     -15.210   9.341   4.084  1.00  0.00     0.106 A 
HETATM   24  N   UNL     1     -16.462   9.479   3.580  1.00  0.00    -0.352 N 
ATOM     25  HN  UNL     1     -16.611   9.508   2.571  1.00  0.00     0.166 HD
BRANCH  22  26
HETATM   26  C   UNL     1     -13.495   9.183   5.887  1.00  0.00     0.418 C 
HETATM   27  F   UNL     1     -12.592   9.231   4.868  1.00  0.00    -0.166 F 
HETATM   28  F   UNL     1     -13.132  10.171   6.751  1.00  0.00    -0.166 F 
HETATM   29  F   UNL     1     -13.252   8.012   6.540  1.00  0.00    -0.166 F 
ENDBRANCH  22  26
ENDBRANCH   4  19
TORSDOF 4
ENDMDL
MODEL 8
REMARK VINA RESULT:      -7.6     18.690     20.242
REMARK  4 active torsions:
REMARK  status: ('A' for Active; 'I' for Inactive)
REMARK       I    between atoms: C_2  and  N_3 
REMARK       I    between atoms: C_2  and  N_11 
REMARK    1  A    between atoms: N_3  and  C_4 
REMARK    2  A    between atoms: N_11  and  C_12 
REMARK    3  A    between atoms: N_15  and  C_16 
REMARK    4  A    between atoms: C_19  and  C_20 
ROOT
HETATM    1  C   UNL     1     -20.577   9.100   2.801  1.00  0.00     0.105 C 
HETATM    2  C   UNL     1     -20.854   8.745   4.258  1.00  0.00     0.046 C 
HETATM    3  C   UNL     1     -19.918   9.659   5.046  1.00  0.00     0.126 C 
HETATM    4  N   UNL     1     -18.750   9.805   4.185  1.00  0.00    -0.365 N 
HETATM    5  C   UNL     1     -19.065   9.429   2.800  1.00  0.00     0.149 C 
ENDROOT
BRANCH   1   6
HETATM    6  N   UNL     1     -21.404  10.224   2.376  1.00  0.00    -0.337 N 
HETATM    7  C   UNL     1     -22.684  10.263   1.918  1.00  0.00     0.321 C 
HETATM    8  O   UNL     1     -23.138  11.363   1.627  1.00  0.00    -0.247 OA
HETATM    9  N   UNL     1     -23.346   9.066   1.830  1.00  0.00    -0.308 N 
HETATM   10  H   UNL     1     -22.989   8.302   2.384  1.00  0.00     0.170 HD
HETATM   11  H   UNL     1     -21.008  11.154   2.462  1.00  0.00     0.164 HD
BRANCH   9  12
HETATM   12  C   UNL     1     -24.643   8.868   1.285  1.00  0.00     0.053 A 
HETATM   13  C   UNL     1     -25.797   9.322   1.936  1.00  0.00     0.031 A 
HETATM   14  C   UNL     1     -27.066   9.090   1.398  1.00  0.00     0.002 A 
HETATM   15  C   UNL     1     -27.201   8.414   0.190  1.00  0.00     0.002 A 
HETATM   16  C   UNL     1     -26.065   7.982  -0.492  1.00  0.00     0.021 A 
HETATM   17  C   UNL     1     -24.793   8.215   0.049  1.00  0.00     0.037 A 
HETATM   18 BR   UNL     1     -23.291   7.581  -0.930  1.00  0.00    -0.049 Br
ENDBRANCH   9  12
ENDBRANCH   1   6
BRANCH   4  19
HETATM   19  C   UNL     1     -17.460   9.611   4.642  1.00  0.00     0.102 A 
HETATM   20  C   UNL     1     -17.176   9.454   5.999  1.00  0.00     0.049 A 
HETATM   21  C   UNL     1     -15.855   9.297   6.435  1.00  0.00     0.021 A 
HETATM   22  C   UNL     1     -14.817   9.305   5.508  1.00  0.00     0.063 A 
HETATM   23  C   UNL     1     -15.173   9.463   4.182  1.00  0.00     0.106 A 
HETATM   24  N   UNL     1     -16.448   9.618   3.746  1.00  0.00    -0.352 N 
ATOM     25  HN  UNL     1     -16.641   9.740   2.751  1.00  0.00     0.166 HD
BRANCH  22  26
HETATM   26  C   UNL     1     -13.377   9.174   5.888  1.00  0.00     0.418 C 
HETATM   27  F   UNL     1     -13.080   7.989   6.493  1.00  0.00    -0.166 F 
HETATM   28  F   UNL     1     -12.541   9.263   4.816  1.00  0.00    -0.166 F 
HETATM   29  F   UNL     1     -12.974  10.143   6.755  1.00  0.00    -0.166 F 
ENDBRANCH  22  26
ENDBRANCH   4  19
TORSDOF 4
ENDMDL
MODEL 9
REMARK VINA RESULT:      -7.5      4.483      5.674
REMARK  4 active torsions:
REMARK  status: ('A' for Active; 'I' for Inactive)
REMARK       I    between atoms: C_2  and  N_3 
REMARK       I    between atoms: C_2  and  N_11 
REMARK    1  A    between atoms: N_3  and  C_4 
REMARK    2  A    between atoms: N_11  and  C_12 
REMARK    3  A    between atoms: N_15  and  C_16 
REMARK    4  A    between atoms: C_19  and  C_20 
ROOT
HETATM    1  C   UNL     1     -19.328  -9.721  -2.300  1.00  0.00     0.105 C 
HETATM    2  C   UNL     1     -20.734  -9.378  -1.817  1.00  0.00     0.046 C 
HETATM    3  C   UNL     1     -21.549  -9.262  -3.103  1.00  0.00     0.126 C 
HETATM    4  N   UNL     1     -20.601  -8.745  -4.084  1.00  0.00    -0.365 N 
HETATM    5  C   UNL     1     -19.217  -8.946  -3.635  1.00  0.00     0.149 C 
ENDROOT
BRANCH   1   6
HETATM    6  N   UNL     1     -19.175 -11.162  -2.466  1.00  0.00    -0.337 N 
HETATM    7  C   UNL     1     -18.083 -11.909  -2.784  1.00  0.00     0.321 C 
HETATM    8  O   UNL     1     -18.241 -13.121  -2.858  1.00  0.00    -0.247 OA
HETATM    9  N   UNL     1     -16.909 -11.232  -2.985  1.00  0.00    -0.308 N 
HETATM   10  H   UNL     1     -16.838 -10.306  -2.591  1.00  0.00     0.170 HD
HETATM   11  H   UNL     1     -19.986 -11.742  -2.280  1.00  0.00     0.164 HD
BRANCH   9  12
HETATM   12  C   UNL     1     -15.683 -11.801  -3.423  1.00  0.00     0.053 A 
HETATM   13  C   UNL     1     -14.964 -12.707  -2.633  1.00  0.00     0.031 A 
HETATM   14  C   UNL     1     -13.743 -13.233  -3.069  1.00  0.00     0.002 A 
HETATM   15  C   UNL     1     -13.231 -12.872  -4.311  1.00  0.00     0.002 A 
HETATM   16  C   UNL     1     -13.945 -11.999  -5.127  1.00  0.00     0.021 A 
HETATM   17  C   UNL     1     -15.167 -11.472  -4.689  1.00  0.00     0.037 A 
HETATM   18 BR   UNL     1     -16.076 -10.271  -5.851  1.00  0.00    -0.049 Br
ENDBRANCH   9  12
ENDBRANCH   1   6
BRANCH   4  19
HETATM   19  C   UNL     1     -20.881  -7.657  -4.888  1.00  0.00     0.102 A 
HETATM   20  C   UNL     1     -22.091  -6.968  -4.800  1.00  0.00     0.049 A 
HETATM   21  C   UNL     1     -22.362  -5.893  -5.654  1.00  0.00     0.021 A 
HETATM   22  C   UNL     1     -21.418  -5.513  -6.604  1.00  0.00     0.063 A 
HETATM   23  C   UNL     1     -20.242  -6.239  -6.634  1.00  0.00     0.106 A 
HETATM   24  N   UNL     1     -19.969  -7.284  -5.814  1.00  0.00    -0.352 N 
ATOM     25  HN  UNL     1     -19.083  -7.784  -5.894  1.00  0.00     0.166 HD
BRANCH  22  26
HETATM   26  C   UNL     1     -21.636  -4.397  -7.575  1.00  0.00     0.418 C 
HETATM   27  F   UNL     1     -21.011  -3.239  -7.222  1.00  0.00    -0.166 F 
HETATM   28  F   UNL     1     -21.186  -4.695  -8.825  1.00  0.00    -0.166 F 
HETATM   29  F   UNL     1     -22.951  -4.077  -7.720  1.00  0.00    -0.166 F 
ENDBRANCH  22  26
ENDBRANCH   4  19
TORSDOF 4
ENDMDL
