REMARK  4 active torsions:
REMARK  status: ('A' for Active; 'I' for Inactive)
REMARK       I    between atoms: C_2  and  N_3 
REMARK       I    between atoms: C_2  and  N_11 
REMARK    1  A    between atoms: N_3  and  C_4 
REMARK    2  A    between atoms: N_11  and  C_12 
REMARK    3  A    between atoms: N_15  and  C_16 
REMARK    4  A    between atoms: C_19  and  C_20 
ROOT
HETATM    1  C   UNL     1       4.539   0.733   0.910  1.00  0.00     0.105 C 
HETATM    2  C   UNL     1       5.106  -0.449   1.691  1.00  0.00     0.046 C 
HETATM    3  C   UNL     1       5.104   0.031   3.141  1.00  0.00     0.126 C 
HETATM    4  N   UNL     1       5.351   1.465   3.045  1.00  0.00    -0.365 N 
HETATM    5  C   UNL     1       5.075   1.958   1.689  1.00  0.00     0.149 C 
ENDROOT
BRANCH   1   6
HETATM    6  N   UNL     1       3.082   0.677   0.872  1.00  0.00    -0.337 N 
HETATM    7  C   UNL     1       2.239   0.052   0.006  1.00  0.00     0.321 C 
HETATM    8  O   UNL     1       1.038   0.174   0.213  1.00  0.00    -0.247 OA
HETATM    9  N   UNL     1       2.816  -0.660  -1.013  1.00  0.00    -0.308 N 
HETATM   10  H   UNL     1       3.777  -0.942  -0.890  1.00  0.00     0.170 HD
HETATM   11  H   UNL     1       2.577   1.133   1.624  1.00  0.00     0.164 HD
BRANCH   9  12
HETATM   12  C   UNL     1       2.127  -1.298  -2.079  1.00  0.00     0.053 A 
HETATM   13  C   UNL     1       0.815  -0.951  -2.425  1.00  0.00     0.031 A 
HETATM   14  C   UNL     1       0.143  -1.612  -3.458  1.00  0.00     0.002 A 
HETATM   15  C   UNL     1       0.780  -2.621  -4.173  1.00  0.00     0.002 A 
HETATM   16  C   UNL     1       2.096  -2.960  -3.868  1.00  0.00     0.021 A 
HETATM   17  C   UNL     1       2.768  -2.297  -2.832  1.00  0.00     0.037 A 
HETATM   18 BR   UNL     1       4.557  -2.827  -2.462  1.00  0.00    -0.049 Br
ENDBRANCH   9  12
ENDBRANCH   1   6
BRANCH   4  19
HETATM   19  C   UNL     1       6.321   2.105   3.793  1.00  0.00     0.102 A 
HETATM   20  C   UNL     1       6.668   1.672   5.073  1.00  0.00     0.049 A 
HETATM   21  C   UNL     1       7.628   2.363   5.822  1.00  0.00     0.021 A 
HETATM   22  C   UNL     1       8.235   3.495   5.287  1.00  0.00     0.063 A 
HETATM   23  C   UNL     1       7.844   3.865   4.014  1.00  0.00     0.106 A 
HETATM   24  N   UNL     1       6.914   3.206   3.279  1.00  0.00    -0.352 N 
ATOM     25  HN  UNL     1       6.664   3.538   2.347  1.00  0.00     0.166 HD
BRANCH  22  26
HETATM   26  C   UNL     1       9.247   4.310   6.027  1.00  0.00     0.418 C 
HETATM   27  F   UNL     1       9.511   3.843   7.280  1.00  0.00    -0.166 F 
HETATM   28  F   UNL     1      10.449   4.360   5.389  1.00  0.00    -0.166 F 
HETATM   29  F   UNL     1       8.859   5.605   6.190  1.00  0.00    -0.166 F 
ENDBRANCH  22  26
ENDBRANCH   4  19
TORSDOF 4
