MODEL 1
REMARK VINA RESULT:     -10.1      0.000      0.000
REMARK  11 active torsions:
REMARK  status: ('A' for Active; 'I' for Inactive)
REMARK    1  A    between atoms: C_2  and  C_4 
REMARK    2  A    between atoms: C_10  and  C_11 
REMARK    3  A    between atoms: C_11  and  C_12 
REMARK    4  A    between atoms: C_22  and  C_23 
REMARK    5  A    between atoms: C_23  and  O_24 
REMARK    6  A    between atoms: O_24  and  C_25 
REMARK    7  A    between atoms: C_25  and  C_27 
REMARK    8  A    between atoms: C_27  and  C_28 
REMARK    9  A    between atoms: C_31  and  O_32 
REMARK   10  A    between atoms: C_33  and  O_34 
REMARK   11  A    between atoms: C_38  and  O_39 
ROOT
HETATM    1  C   UNL     1     -21.235 -13.302  -5.887  1.00  0.00     0.116 C 
HETATM    2  C   UNL     1     -22.439 -13.138  -4.970  1.00  0.00     0.053 C 
HETATM    3  C   UNL     1     -21.953 -12.646  -3.631  1.00  0.00     0.020 C 
HETATM    4  C   UNL     1     -21.351 -13.777  -2.759  1.00  0.00     0.013 C 
HETATM    5  C   UNL     1     -21.001 -11.388  -3.823  1.00  0.00     0.083 C 
HETATM    6  O   UNL     1     -19.610 -11.806  -3.819  1.00  0.00    -0.320 OA
HETATM    7  C   UNL     1     -19.220 -12.589  -5.030  1.00  0.00     0.288 C 
HETATM    8  O   UNL     1     -19.402 -11.907  -6.275  1.00  0.00    -0.323 OA
HETATM    9  C   UNL     1     -20.824 -11.824  -6.317  1.00  0.00     0.173 C 
HETATM   10  C   UNL     1     -21.116 -10.682  -5.217  1.00  0.00     0.054 C 
HETATM   11  C   UNL     1     -20.045  -9.494  -5.311  1.00  0.00     0.017 C 
HETATM   12  C   UNL     1     -20.071  -8.399  -4.516  1.00  0.00     0.014 C 
HETATM   13  C   UNL     1     -19.876  -8.504  -3.014  1.00  0.00     0.053 C 
HETATM   14  C   UNL     1     -21.179  -8.995  -2.427  1.00  0.00     0.125 C 
HETATM   15  C   UNL     1     -21.299  -8.898  -0.913  1.00  0.00     0.165 C 
HETATM   16  O   UNL     1     -21.096  -7.888  -0.253  1.00  0.00    -0.294 OA
HETATM   17  C   UNL     1     -21.917 -10.138  -0.333  1.00  0.00     0.055 C 
HETATM   18  C   UNL     1     -23.416  -9.925  -0.186  1.00  0.00     0.018 C 
HETATM   19  C   UNL     1     -21.445 -11.032  -1.228  1.00  0.00     0.023 C 
HETATM   20  C   UNL     1     -21.515 -10.467  -2.649  1.00  0.00     0.064 C 
HETATM   21  O   UNL     1     -20.063 -13.716  -5.102  1.00  0.00    -0.314 OA
ENDROOT
BRANCH  12  22
HETATM   22  C   UNL     1     -20.688  -7.112  -4.996  1.00  0.00     0.183 C 
BRANCH  22  23
HETATM   23  O   UNL     1     -20.194  -6.802  -6.297  1.00  0.00    -0.321 OA
BRANCH  23  24
HETATM   24  C   UNL     1     -20.069  -5.482  -6.578  1.00  0.00     0.263 C 
HETATM   25  O   UNL     1     -19.048  -4.799  -6.485  1.00  0.00    -0.265 OA
BRANCH  24  26
HETATM   26  C   UNL     1     -21.402  -4.901  -6.989  1.00  0.00     0.149 C 
BRANCH  26  27
HETATM   27  C   UNL     1     -21.437  -4.587  -8.461  1.00  0.00    -0.046 A 
HETATM   28  C   UNL     1     -20.297  -4.792  -9.247  1.00  0.00     0.010 A 
HETATM   29  C   UNL     1     -20.329  -4.520 -10.615  1.00  0.00     0.040 A 
HETATM   30  C   UNL     1     -21.494  -4.026 -11.209  1.00  0.00     0.099 A 
HETATM   31  C   UNL     1     -22.640  -3.805 -10.432  1.00  0.00     0.101 A 
HETATM   32  C   UNL     1     -22.593  -4.074  -9.059  1.00  0.00     0.047 A 
BRANCH  30  33
HETATM   33  O   UNL     1     -21.483  -3.754 -12.546  1.00  0.00    -0.358 OA
HETATM   34  H   UNL     1     -20.608  -3.969 -12.904  1.00  0.00     0.217 HD
ENDBRANCH  30  33
BRANCH  31  35
HETATM   35  O   UNL     1     -23.839  -3.297 -10.862  1.00  0.00    -0.353 OA
HETATM   36  C   UNL     1     -24.899  -3.326  -9.912  1.00  0.00     0.210 C 
ENDBRANCH  31  35
ENDBRANCH  26  27
ENDBRANCH  24  26
ENDBRANCH  23  24
ENDBRANCH  22  23
ENDBRANCH  12  22
BRANCH  14  37
HETATM   37  O   UNL     1     -22.295  -8.182  -2.883  1.00  0.00    -0.382 OA
HETATM   38  H   UNL     1     -22.090  -7.928  -3.802  1.00  0.00     0.211 HD
ENDBRANCH  14  37
BRANCH   1  39
HETATM   39  C   UNL     1     -21.585 -14.568  -6.702  1.00  0.00    -0.056 C 
HETATM   40  C   UNL     1     -20.590 -15.388  -7.127  1.00  0.00     0.017 C 
HETATM   41  C   UNL     1     -22.977 -15.137  -6.752  1.00  0.00     0.046 C 
ENDBRANCH   1  39
BRANCH   7  42
HETATM   42  C   UNL     1     -17.717 -12.873  -4.883  1.00  0.00     0.140 C 
BRANCH  42  43
HETATM   43  C   UNL     1     -16.809 -11.922  -4.128  1.00  0.00    -0.051 A 
HETATM   44  C   UNL     1     -16.540 -10.645  -4.649  1.00  0.00     0.007 A 
HETATM   45  C   UNL     1     -15.991  -9.646  -3.839  1.00  0.00     0.001 A 
HETATM   46  C   UNL     1     -15.682  -9.920  -2.508  1.00  0.00     0.000 A 
HETATM   47  C   UNL     1     -15.867 -11.206  -2.006  1.00  0.00     0.001 A 
HETATM   48  C   UNL     1     -16.420 -12.200  -2.813  1.00  0.00     0.007 A 
ENDBRANCH  42  43
ENDBRANCH   7  42
TORSDOF 11
ENDMDL
MODEL 2
REMARK VINA RESULT:      -9.9      1.616      2.228
REMARK  11 active torsions:
REMARK  status: ('A' for Active; 'I' for Inactive)
REMARK    1  A    between atoms: C_2  and  C_4 
REMARK    2  A    between atoms: C_10  and  C_11 
REMARK    3  A    between atoms: C_11  and  C_12 
REMARK    4  A    between atoms: C_22  and  C_23 
REMARK    5  A    between atoms: C_23  and  O_24 
REMARK    6  A    between atoms: O_24  and  C_25 
REMARK    7  A    between atoms: C_25  and  C_27 
REMARK    8  A    between atoms: C_27  and  C_28 
REMARK    9  A    between atoms: C_31  and  O_32 
REMARK   10  A    between atoms: C_33  and  O_34 
REMARK   11  A    between atoms: C_38  and  O_39 
ROOT
HETATM    1  C   UNL     1     -18.974 -12.468  -5.742  1.00  0.00     0.116 C 
HETATM    2  C   UNL     1     -20.134 -12.961  -4.888  1.00  0.00     0.053 C 
HETATM    3  C   UNL     1     -19.940 -12.451  -3.484  1.00  0.00     0.020 C 
HETATM    4  C   UNL     1     -18.904 -13.277  -2.683  1.00  0.00     0.013 C 
HETATM    5  C   UNL     1     -19.660 -10.886  -3.505  1.00  0.00     0.083 C 
HETATM    6  O   UNL     1     -18.229 -10.633  -3.454  1.00  0.00    -0.320 OA
HETATM    7  C   UNL     1     -17.512 -11.023  -4.705  1.00  0.00     0.288 C 
HETATM    8  O   UNL     1     -17.967 -10.366  -5.892  1.00  0.00    -0.323 OA
HETATM    9  C   UNL     1     -19.272 -10.926  -6.013  1.00  0.00     0.173 C 
HETATM   10  C   UNL     1     -20.063 -10.162  -4.834  1.00  0.00     0.054 C 
HETATM   11  C   UNL     1     -19.645  -8.617  -4.755  1.00  0.00     0.017 C 
HETATM   12  C   UNL     1     -20.175  -7.744  -3.868  1.00  0.00     0.014 C 
HETATM   13  C   UNL     1     -19.973  -7.911  -2.373  1.00  0.00     0.053 C 
HETATM   14  C   UNL     1     -20.920  -8.994  -1.912  1.00  0.00     0.125 C 
HETATM   15  C   UNL     1     -21.090  -9.124  -0.406  1.00  0.00     0.165 C 
HETATM   16  O   UNL     1     -21.376  -8.208   0.354  1.00  0.00    -0.294 OA
HETATM   17  C   UNL     1     -21.087 -10.565   0.022  1.00  0.00     0.055 C 
HETATM   18  C   UNL     1     -22.522 -11.064   0.098  1.00  0.00     0.018 C 
HETATM   19  C   UNL     1     -20.250 -11.049  -0.920  1.00  0.00     0.023 C 
HETATM   20  C   UNL     1     -20.550 -10.427  -2.286  1.00  0.00     0.064 C 
HETATM   21  O   UNL     1     -17.752 -12.393  -4.929  1.00  0.00    -0.314 OA
ENDROOT
BRANCH  12  22
HETATM   22  C   UNL     1     -21.301  -6.827  -4.267  1.00  0.00     0.183 C 
BRANCH  22  23
HETATM   23  O   UNL     1     -20.777  -5.704  -4.972  1.00  0.00    -0.321 OA
BRANCH  23  24
HETATM   24  C   UNL     1     -21.042  -5.670  -6.301  1.00  0.00     0.263 C 
HETATM   25  O   UNL     1     -21.173  -6.634  -7.054  1.00  0.00    -0.265 OA
BRANCH  24  26
HETATM   26  C   UNL     1     -21.109  -4.241  -6.788  1.00  0.00     0.149 C 
BRANCH  26  27
HETATM   27  C   UNL     1     -21.242  -4.174  -8.286  1.00  0.00    -0.046 A 
HETATM   28  C   UNL     1     -20.133  -4.442  -9.099  1.00  0.00     0.010 A 
HETATM   29  C   UNL     1     -20.255  -4.399 -10.489  1.00  0.00     0.040 A 
HETATM   30  C   UNL     1     -21.478  -4.073 -11.080  1.00  0.00     0.099 A 
HETATM   31  C   UNL     1     -22.594  -3.791 -10.279  1.00  0.00     0.101 A 
HETATM   32  C   UNL     1     -22.457  -3.829  -8.886  1.00  0.00     0.047 A 
BRANCH  30  33
HETATM   33  O   UNL     1     -21.556  -4.024 -12.441  1.00  0.00    -0.358 OA
HETATM   34  H   UNL     1     -22.483  -3.908 -12.700  1.00  0.00     0.217 HD
ENDBRANCH  30  33
BRANCH  31  35
HETATM   35  O   UNL     1     -23.844  -3.426 -10.708  1.00  0.00    -0.353 OA
HETATM   36  C   UNL     1     -24.843  -3.338  -9.699  1.00  0.00     0.210 C 
ENDBRANCH  31  35
ENDBRANCH  26  27
ENDBRANCH  24  26
ENDBRANCH  23  24
ENDBRANCH  22  23
ENDBRANCH  12  22
BRANCH  14  37
HETATM   37  O   UNL     1     -22.277  -8.725  -2.360  1.00  0.00    -0.382 OA
HETATM   38  H   UNL     1     -22.784  -9.543  -2.200  1.00  0.00     0.211 HD
ENDBRANCH  14  37
BRANCH   1  39
HETATM   39  C   UNL     1     -18.702 -13.660  -6.688  1.00  0.00    -0.056 C 
HETATM   40  C   UNL     1     -19.474 -13.829  -7.791  1.00  0.00     0.017 C 
HETATM   41  C   UNL     1     -17.416 -14.440  -6.655  1.00  0.00     0.046 C 
ENDBRANCH   1  39
BRANCH   7  42
HETATM   42  C   UNL     1     -16.045 -10.615  -4.494  1.00  0.00     0.140 C 
BRANCH  42  43
HETATM   43  C   UNL     1     -14.916 -11.601  -4.722  1.00  0.00    -0.051 A 
HETATM   44  C   UNL     1     -14.415 -12.354  -3.647  1.00  0.00     0.007 A 
HETATM   45  C   UNL     1     -13.623 -13.483  -3.876  1.00  0.00     0.001 A 
HETATM   46  C   UNL     1     -13.303 -13.856  -5.179  1.00  0.00     0.000 A 
HETATM   47  C   UNL     1     -13.725 -13.068  -6.247  1.00  0.00     0.001 A 
HETATM   48  C   UNL     1     -14.519 -11.945  -6.018  1.00  0.00     0.007 A 
ENDBRANCH  42  43
ENDBRANCH   7  42
TORSDOF 11
ENDMDL
MODEL 3
REMARK VINA RESULT:      -9.9      1.791      5.151
REMARK  11 active torsions:
REMARK  status: ('A' for Active; 'I' for Inactive)
REMARK    1  A    between atoms: C_2  and  C_4 
REMARK    2  A    between atoms: C_10  and  C_11 
REMARK    3  A    between atoms: C_11  and  C_12 
REMARK    4  A    between atoms: C_22  and  C_23 
REMARK    5  A    between atoms: C_23  and  O_24 
REMARK    6  A    between atoms: O_24  and  C_25 
REMARK    7  A    between atoms: C_25  and  C_27 
REMARK    8  A    between atoms: C_27  and  C_28 
REMARK    9  A    between atoms: C_31  and  O_32 
REMARK   10  A    between atoms: C_33  and  O_34 
REMARK   11  A    between atoms: C_38  and  O_39 
ROOT
HETATM    1  C   UNL     1     -16.962 -12.395  -1.291  1.00  0.00     0.116 C 
HETATM    2  C   UNL     1     -16.697 -13.078  -2.626  1.00  0.00     0.053 C 
HETATM    3  C   UNL     1     -18.021 -13.441  -3.245  1.00  0.00     0.020 C 
HETATM    4  C   UNL     1     -18.640 -14.722  -2.630  1.00  0.00     0.013 C 
HETATM    5  C   UNL     1     -18.988 -12.180  -3.247  1.00  0.00     0.083 C 
HETATM    6  O   UNL     1     -19.874 -12.225  -2.096  1.00  0.00    -0.320 OA
HETATM    7  C   UNL     1     -19.174 -11.989  -0.798  1.00  0.00     0.288 C 
HETATM    8  O   UNL     1     -18.494 -10.734  -0.697  1.00  0.00    -0.323 OA
HETATM    9  C   UNL     1     -17.458 -10.926  -1.657  1.00  0.00     0.173 C 
HETATM   10  C   UNL     1     -18.273 -10.801  -3.043  1.00  0.00     0.054 C 
HETATM   11  C   UNL     1     -19.365  -9.631  -2.975  1.00  0.00     0.017 C 
HETATM   12  C   UNL     1     -20.172  -9.300  -4.009  1.00  0.00     0.014 C 
HETATM   13  C   UNL     1     -21.199 -10.275  -4.558  1.00  0.00     0.053 C 
HETATM   14  C   UNL     1     -20.456 -11.269  -5.420  1.00  0.00     0.125 C 
HETATM   15  C   UNL     1     -21.324 -12.160  -6.297  1.00  0.00     0.165 C 
HETATM   16  O   UNL     1     -22.189 -11.764  -7.067  1.00  0.00    -0.294 OA
HETATM   17  C   UNL     1     -20.842 -13.583  -6.276  1.00  0.00     0.055 C 
HETATM   18  C   UNL     1     -19.907 -13.809  -7.455  1.00  0.00     0.018 C 
HETATM   19  C   UNL     1     -20.361 -13.610  -5.015  1.00  0.00     0.023 C 
HETATM   20  C   UNL     1     -19.618 -12.313  -4.688  1.00  0.00     0.064 C 
HETATM   21  O   UNL     1     -18.166 -12.965  -0.669  1.00  0.00    -0.314 OA
ENDROOT
BRANCH  12  22
HETATM   22  C   UNL     1     -19.831  -8.148  -4.916  1.00  0.00     0.183 C 
BRANCH  22  23
HETATM   23  O   UNL     1     -20.977  -7.788  -5.684  1.00  0.00    -0.321 OA
BRANCH  23  24
HETATM   24  C   UNL     1     -21.585  -6.630  -5.324  1.00  0.00     0.263 C 
HETATM   25  O   UNL     1     -22.711  -6.504  -4.842  1.00  0.00    -0.265 OA
BRANCH  24  26
HETATM   26  C   UNL     1     -20.700  -5.448  -5.647  1.00  0.00     0.149 C 
BRANCH  26  27
HETATM   27  C   UNL     1     -20.895  -4.983  -7.065  1.00  0.00    -0.046 A 
HETATM   28  C   UNL     1     -19.829  -5.037  -7.971  1.00  0.00     0.010 A 
HETATM   29  C   UNL     1     -20.009  -4.624  -9.292  1.00  0.00     0.040 A 
HETATM   30  C   UNL     1     -21.249  -4.139  -9.717  1.00  0.00     0.099 A 
HETATM   31  C   UNL     1     -22.322  -4.069  -8.817  1.00  0.00     0.101 A 
HETATM   32  C   UNL     1     -22.127  -4.478  -7.493  1.00  0.00     0.047 A 
BRANCH  30  33
HETATM   33  O   UNL     1     -21.383  -3.728 -11.011  1.00  0.00    -0.358 OA
HETATM   34  H   UNL     1     -22.315  -3.515 -11.178  1.00  0.00     0.217 HD
ENDBRANCH  30  33
BRANCH  31  35
HETATM   35  O   UNL     1     -23.581  -3.589  -9.075  1.00  0.00    -0.353 OA
HETATM   36  C   UNL     1     -24.420  -4.439  -9.849  1.00  0.00     0.210 C 
ENDBRANCH  31  35
ENDBRANCH  26  27
ENDBRANCH  24  26
ENDBRANCH  23  24
ENDBRANCH  22  23
ENDBRANCH  12  22
BRANCH  14  37
HETATM   37  O   UNL     1     -19.618 -10.589  -6.395  1.00  0.00    -0.382 OA
HETATM   38  H   UNL     1     -20.190 -10.398  -7.161  1.00  0.00     0.211 HD
ENDBRANCH  14  37
BRANCH   1  39
HETATM   39  C   UNL     1     -15.815 -12.917  -0.396  1.00  0.00    -0.056 C 
HETATM   40  C   UNL     1     -14.850 -13.704  -0.934  1.00  0.00     0.017 C 
HETATM   41  C   UNL     1     -15.507 -12.320   0.951  1.00  0.00     0.046 C 
ENDBRANCH   1  39
BRANCH   7  42
HETATM   42  C   UNL     1     -20.270 -11.998   0.280  1.00  0.00     0.140 C 
BRANCH  42  43
HETATM   43  C   UNL     1     -21.180 -10.802   0.485  1.00  0.00    -0.051 A 
HETATM   44  C   UNL     1     -20.731  -9.699   1.230  1.00  0.00     0.007 A 
HETATM   45  C   UNL     1     -21.400  -8.473   1.160  1.00  0.00     0.001 A 
HETATM   46  C   UNL     1     -22.536  -8.344   0.366  1.00  0.00     0.000 A 
HETATM   47  C   UNL     1     -23.036  -9.454  -0.311  1.00  0.00     0.001 A 
HETATM   48  C   UNL     1     -22.366 -10.675  -0.245  1.00  0.00     0.007 A 
ENDBRANCH  42  43
ENDBRANCH   7  42
TORSDOF 11
ENDMDL
MODEL 4
REMARK VINA RESULT:      -9.8      2.010      2.792
REMARK  11 active torsions:
REMARK  status: ('A' for Active; 'I' for Inactive)
REMARK    1  A    between atoms: C_2  and  C_4 
REMARK    2  A    between atoms: C_10  and  C_11 
REMARK    3  A    between atoms: C_11  and  C_12 
REMARK    4  A    between atoms: C_22  and  C_23 
REMARK    5  A    between atoms: C_23  and  O_24 
REMARK    6  A    between atoms: O_24  and  C_25 
REMARK    7  A    between atoms: C_25  and  C_27 
REMARK    8  A    between atoms: C_27  and  C_28 
REMARK    9  A    between atoms: C_31  and  O_32 
REMARK   10  A    between atoms: C_33  and  O_34 
REMARK   11  A    between atoms: C_38  and  O_39 
ROOT
HETATM    1  C   UNL     1     -19.235 -13.185  -2.305  1.00  0.00     0.116 C 
HETATM    2  C   UNL     1     -20.538 -12.952  -1.553  1.00  0.00     0.053 C 
HETATM    3  C   UNL     1     -20.481 -11.588  -0.917  1.00  0.00     0.020 C 
HETATM    4  C   UNL     1     -19.641 -11.566   0.385  1.00  0.00     0.013 C 
HETATM    5  C   UNL     1     -20.053 -10.499  -1.994  1.00  0.00     0.083 C 
HETATM    6  O   UNL     1     -18.624 -10.248  -1.910  1.00  0.00    -0.320 OA
HETATM    7  C   UNL     1     -17.790 -11.394  -2.381  1.00  0.00     0.288 C 
HETATM    8  O   UNL     1     -18.021 -11.793  -3.736  1.00  0.00    -0.323 OA
HETATM    9  C   UNL     1     -19.347 -12.307  -3.630  1.00  0.00     0.173 C 
HETATM   10  C   UNL     1     -20.209 -10.951  -3.485  1.00  0.00     0.054 C 
HETATM   11  C   UNL     1     -19.660  -9.803  -4.458  1.00  0.00     0.017 C 
HETATM   12  C   UNL     1     -20.215  -8.573  -4.550  1.00  0.00     0.014 C 
HETATM   13  C   UNL     1     -20.227  -7.617  -3.370  1.00  0.00     0.053 C 
HETATM   14  C   UNL     1     -21.324  -8.072  -2.437  1.00  0.00     0.125 C 
HETATM   15  C   UNL     1     -21.702  -7.093  -1.335  1.00  0.00     0.165 C 
HETATM   16  O   UNL     1     -21.995  -5.917  -1.506  1.00  0.00    -0.294 OA
HETATM   17  C   UNL     1     -21.891  -7.796  -0.021  1.00  0.00     0.055 C 
HETATM   18  C   UNL     1     -23.365  -8.130   0.157  1.00  0.00     0.018 C 
HETATM   19  C   UNL     1     -20.988  -8.784  -0.193  1.00  0.00     0.023 C 
HETATM   20  C   UNL     1     -21.047  -9.332  -1.621  1.00  0.00     0.064 C 
HETATM   21  O   UNL     1     -18.127 -12.519  -1.604  1.00  0.00    -0.314 OA
ENDROOT
BRANCH  12  22
HETATM   22  C   UNL     1     -21.188  -8.246  -5.652  1.00  0.00     0.183 C 
BRANCH  22  23
HETATM   23  O   UNL     1     -20.808  -7.021  -6.276  1.00  0.00    -0.321 OA
BRANCH  23  24
HETATM   24  C   UNL     1     -21.544  -5.935  -5.934  1.00  0.00     0.263 C 
HETATM   25  O   UNL     1     -22.581  -5.923  -5.271  1.00  0.00    -0.265 OA
BRANCH  24  26
HETATM   26  C   UNL     1     -20.945  -4.683  -6.531  1.00  0.00     0.149 C 
BRANCH  26  27
HETATM   27  C   UNL     1     -21.213  -4.594  -8.010  1.00  0.00    -0.046 A 
HETATM   28  C   UNL     1     -20.144  -4.511  -8.910  1.00  0.00     0.010 A 
HETATM   29  C   UNL     1     -20.386  -4.446 -10.283  1.00  0.00     0.040 A 
HETATM   30  C   UNL     1     -21.696  -4.448 -10.769  1.00  0.00     0.099 A 
HETATM   31  C   UNL     1     -22.777  -4.519  -9.879  1.00  0.00     0.101 A 
HETATM   32  C   UNL     1     -22.522  -4.576  -8.503  1.00  0.00     0.047 A 
BRANCH  30  33
HETATM   33  O   UNL     1     -21.896  -4.366 -12.116  1.00  0.00    -0.358 OA
HETATM   34  H   UNL     1     -21.116  -3.959 -12.526  1.00  0.00     0.217 HD
ENDBRANCH  30  33
BRANCH  31  35
HETATM   35  O   UNL     1     -24.110  -4.498 -10.200  1.00  0.00    -0.353 OA
HETATM   36  C   UNL     1     -24.813  -3.313  -9.845  1.00  0.00     0.210 C 
ENDBRANCH  31  35
ENDBRANCH  26  27
ENDBRANCH  24  26
ENDBRANCH  23  24
ENDBRANCH  22  23
ENDBRANCH  12  22
BRANCH  14  37
HETATM   37  O   UNL     1     -22.580  -8.240  -3.151  1.00  0.00    -0.382 OA
HETATM   38  H   UNL     1     -22.350  -8.614  -4.022  1.00  0.00     0.211 HD
ENDBRANCH  14  37
BRANCH   1  39
HETATM   39  C   UNL     1     -18.956 -14.687  -2.069  1.00  0.00    -0.056 C 
HETATM   40  C   UNL     1     -18.136 -15.065  -1.057  1.00  0.00     0.017 C 
HETATM   41  C   UNL     1     -19.814 -15.770  -2.665  1.00  0.00     0.046 C 
ENDBRANCH   1  39
BRANCH   7  42
HETATM   42  C   UNL     1     -16.331 -10.918  -2.292  1.00  0.00     0.140 C 
BRANCH  42  43
HETATM   43  C   UNL     1     -15.322 -11.275  -3.365  1.00  0.00    -0.051 A 
HETATM   44  C   UNL     1     -14.446 -12.357  -3.174  1.00  0.00     0.007 A 
HETATM   45  C   UNL     1     -13.748 -12.908  -4.253  1.00  0.00     0.001 A 
HETATM   46  C   UNL     1     -13.897 -12.368  -5.528  1.00  0.00     0.000 A 
HETATM   47  C   UNL     1     -14.698 -11.243  -5.713  1.00  0.00     0.001 A 
HETATM   48  C   UNL     1     -15.399 -10.698  -4.637  1.00  0.00     0.007 A 
ENDBRANCH  42  43
ENDBRANCH   7  42
TORSDOF 11
ENDMDL
MODEL 5
REMARK VINA RESULT:      -9.7      2.751      8.916
REMARK  11 active torsions:
REMARK  status: ('A' for Active; 'I' for Inactive)
REMARK    1  A    between atoms: C_2  and  C_4 
REMARK    2  A    between atoms: C_10  and  C_11 
REMARK    3  A    between atoms: C_11  and  C_12 
REMARK    4  A    between atoms: C_22  and  C_23 
REMARK    5  A    between atoms: C_23  and  O_24 
REMARK    6  A    between atoms: O_24  and  C_25 
REMARK    7  A    between atoms: C_25  and  C_27 
REMARK    8  A    between atoms: C_27  and  C_28 
REMARK    9  A    between atoms: C_31  and  O_32 
REMARK   10  A    between atoms: C_33  and  O_34 
REMARK   11  A    between atoms: C_38  and  O_39 
ROOT
HETATM    1  C   UNL     1     -21.013  -8.738  -2.373  1.00  0.00     0.116 C 
HETATM    2  C   UNL     1     -21.034 -10.193  -1.925  1.00  0.00     0.053 C 
HETATM    3  C   UNL     1     -21.300 -11.056  -3.131  1.00  0.00     0.020 C 
HETATM    4  C   UNL     1     -22.797 -11.082  -3.532  1.00  0.00     0.013 C 
HETATM    5  C   UNL     1     -20.310 -10.667  -4.312  1.00  0.00     0.083 C 
HETATM    6  O   UNL     1     -20.959  -9.742  -5.226  1.00  0.00    -0.320 OA
HETATM    7  C   UNL     1     -21.181  -8.386  -4.642  1.00  0.00     0.288 C 
HETATM    8  O   UNL     1     -19.995  -7.712  -4.208  1.00  0.00    -0.323 OA
HETATM    9  C   UNL     1     -19.616  -8.541  -3.112  1.00  0.00     0.173 C 
HETATM   10  C   UNL     1     -19.050  -9.846  -3.872  1.00  0.00     0.054 C 
HETATM   11  C   UNL     1     -18.190  -9.444  -5.162  1.00  0.00     0.017 C 
HETATM   12  C   UNL     1     -17.584 -10.346  -5.967  1.00  0.00     0.014 C 
HETATM   13  C   UNL     1     -18.384 -11.355  -6.772  1.00  0.00     0.053 C 
HETATM   14  C   UNL     1     -18.809 -12.449  -5.821  1.00  0.00     0.125 C 
HETATM   15  C   UNL     1     -19.374 -13.704  -6.469  1.00  0.00     0.165 C 
HETATM   16  O   UNL     1     -18.829 -14.348  -7.356  1.00  0.00    -0.294 OA
HETATM   17  C   UNL     1     -20.589 -14.199  -5.736  1.00  0.00     0.055 C 
HETATM   18  C   UNL     1     -20.165 -15.251  -4.723  1.00  0.00     0.018 C 
HETATM   19  C   UNL     1     -21.065 -13.007  -5.317  1.00  0.00     0.023 C 
HETATM   20  C   UNL     1     -19.926 -12.104  -4.840  1.00  0.00     0.064 C 
HETATM   21  O   UNL     1     -21.961  -8.541  -3.479  1.00  0.00    -0.314 OA
ENDROOT
BRANCH  12  22
HETATM   22  C   UNL     1     -16.123 -10.670  -5.801  1.00  0.00     0.183 C 
BRANCH  22  23
HETATM   23  O   UNL     1     -15.651 -10.133  -4.567  1.00  0.00    -0.321 OA
BRANCH  23  24
HETATM   24  C   UNL     1     -15.373 -11.040  -3.600  1.00  0.00     0.263 C 
HETATM   25  O   UNL     1     -14.961 -12.189  -3.760  1.00  0.00    -0.265 OA
BRANCH  24  26
HETATM   26  C   UNL     1     -15.693 -10.472  -2.236  1.00  0.00     0.149 C 
BRANCH  26  27
HETATM   27  C   UNL     1     -16.429 -11.469  -1.382  1.00  0.00    -0.046 A 
HETATM   28  C   UNL     1     -17.605 -12.063  -1.855  1.00  0.00     0.010 A 
HETATM   29  C   UNL     1     -18.282 -13.001  -1.074  1.00  0.00     0.040 A 
HETATM   30  C   UNL     1     -17.799 -13.344   0.192  1.00  0.00     0.099 A 
HETATM   31  C   UNL     1     -16.629 -12.749   0.684  1.00  0.00     0.101 A 
HETATM   32  C   UNL     1     -15.964 -11.804  -0.105  1.00  0.00     0.047 A 
BRANCH  30  33
HETATM   33  O   UNL     1     -18.496 -14.252   0.935  1.00  0.00    -0.358 OA
HETATM   34  H   UNL     1     -18.317 -15.142   0.593  1.00  0.00     0.217 HD
ENDBRANCH  30  33
BRANCH  31  35
HETATM   35  O   UNL     1     -16.053 -12.958   1.911  1.00  0.00    -0.353 OA
HETATM   36  C   UNL     1     -15.052 -13.967   1.961  1.00  0.00     0.210 C 
ENDBRANCH  31  35
ENDBRANCH  26  27
ENDBRANCH  24  26
ENDBRANCH  23  24
ENDBRANCH  22  23
ENDBRANCH  12  22
BRANCH  14  37
HETATM   37  O   UNL     1     -17.671 -12.965  -5.077  1.00  0.00    -0.382 OA
HETATM   38  H   UNL     1     -17.735 -12.585  -4.181  1.00  0.00     0.211 HD
ENDBRANCH  14  37
BRANCH   1  39
HETATM   39  C   UNL     1     -21.683  -7.998  -1.192  1.00  0.00    -0.056 C 
HETATM   40  C   UNL     1     -21.475  -8.433   0.076  1.00  0.00     0.017 C 
HETATM   41  C   UNL     1     -22.262  -6.616  -1.329  1.00  0.00     0.046 C 
ENDBRANCH   1  39
BRANCH   7  42
HETATM   42  C   UNL     1     -21.798  -7.538  -5.766  1.00  0.00     0.140 C 
BRANCH  42  43
HETATM   43  C   UNL     1     -21.156  -6.239  -6.213  1.00  0.00    -0.051 A 
HETATM   44  C   UNL     1     -19.842  -6.241  -6.710  1.00  0.00     0.007 A 
HETATM   45  C   UNL     1     -19.349  -5.144  -7.424  1.00  0.00     0.001 A 
HETATM   46  C   UNL     1     -20.154  -4.026  -7.626  1.00  0.00     0.000 A 
HETATM   47  C   UNL     1     -21.428  -3.981  -7.065  1.00  0.00     0.001 A 
HETATM   48  C   UNL     1     -21.921  -5.078  -6.358  1.00  0.00     0.007 A 
ENDBRANCH  42  43
ENDBRANCH   7  42
TORSDOF 11
ENDMDL
MODEL 6
REMARK VINA RESULT:      -9.6      2.893      8.531
REMARK  11 active torsions:
REMARK  status: ('A' for Active; 'I' for Inactive)
REMARK    1  A    between atoms: C_2  and  C_4 
REMARK    2  A    between atoms: C_10  and  C_11 
REMARK    3  A    between atoms: C_11  and  C_12 
REMARK    4  A    between atoms: C_22  and  C_23 
REMARK    5  A    between atoms: C_23  and  O_24 
REMARK    6  A    between atoms: O_24  and  C_25 
REMARK    7  A    between atoms: C_25  and  C_27 
REMARK    8  A    between atoms: C_27  and  C_28 
REMARK    9  A    between atoms: C_31  and  O_32 
REMARK   10  A    between atoms: C_33  and  O_34 
REMARK   11  A    between atoms: C_38  and  O_39 
ROOT
HETATM    1  C   UNL     1     -21.131 -10.008  -1.474  1.00  0.00     0.116 C 
HETATM    2  C   UNL     1     -21.303 -11.452  -1.923  1.00  0.00     0.053 C 
HETATM    3  C   UNL     1     -21.449 -11.468  -3.423  1.00  0.00     0.020 C 
HETATM    4  C   UNL     1     -22.873 -11.077  -3.891  1.00  0.00     0.013 C 
HETATM    5  C   UNL     1     -20.281 -10.625  -4.095  1.00  0.00     0.083 C 
HETATM    6  O   UNL     1     -20.739  -9.276  -4.383  1.00  0.00    -0.320 OA
HETATM    7  C   UNL     1     -20.959  -8.449  -3.159  1.00  0.00     0.288 C 
HETATM    8  O   UNL     1     -19.807  -8.283  -2.327  1.00  0.00    -0.323 OA
HETATM    9  C   UNL     1     -19.635  -9.618  -1.857  1.00  0.00     0.173 C 
HETATM   10  C   UNL     1     -19.049 -10.351  -3.169  1.00  0.00     0.054 C 
HETATM   11  C   UNL     1     -17.993  -9.420  -3.935  1.00  0.00     0.017 C 
HETATM   12  C   UNL     1     -17.336  -9.801  -5.054  1.00  0.00     0.014 C 
HETATM   13  C   UNL     1     -18.075 -10.089  -6.349  1.00  0.00     0.053 C 
HETATM   14  C   UNL     1     -18.695 -11.460  -6.215  1.00  0.00     0.125 C 
HETATM   15  C   UNL     1     -19.238 -12.068  -7.499  1.00  0.00     0.165 C 
HETATM   16  O   UNL     1     -18.614 -12.182  -8.546  1.00  0.00    -0.294 OA
HETATM   17  C   UNL     1     -20.572 -12.723  -7.273  1.00  0.00     0.055 C 
HETATM   18  C   UNL     1     -20.358 -14.203  -6.993  1.00  0.00     0.018 C 
HETATM   19  C   UNL     1     -21.029 -11.908  -6.298  1.00  0.00     0.023 C 
HETATM   20  C   UNL     1     -19.915 -11.571  -5.304  1.00  0.00     0.064 C 
HETATM   21  O   UNL     1     -21.902  -9.116  -2.353  1.00  0.00    -0.314 OA
ENDROOT
BRANCH  12  22
HETATM   22  C   UNL     1     -15.935 -10.346  -4.979  1.00  0.00     0.183 C 
BRANCH  22  23
HETATM   23  O   UNL     1     -15.749 -11.015  -3.733  1.00  0.00    -0.321 OA
BRANCH  23  24
HETATM   24  C   UNL     1     -15.082 -12.194  -3.793  1.00  0.00     0.263 C 
HETATM   25  O   UNL     1     -14.715 -12.785  -4.809  1.00  0.00    -0.265 OA
BRANCH  24  26
HETATM   26  C   UNL     1     -14.876 -12.754  -2.405  1.00  0.00     0.149 C 
BRANCH  26  27
HETATM   27  C   UNL     1     -16.173 -12.842  -1.648  1.00  0.00    -0.046 A 
HETATM   28  C   UNL     1     -16.337 -12.126  -0.456  1.00  0.00     0.010 A 
HETATM   29  C   UNL     1     -17.544 -12.190   0.242  1.00  0.00     0.040 A 
HETATM   30  C   UNL     1     -18.593 -12.981  -0.234  1.00  0.00     0.099 A 
HETATM   31  C   UNL     1     -18.440 -13.713  -1.420  1.00  0.00     0.101 A 
HETATM   32  C   UNL     1     -17.221 -13.647  -2.107  1.00  0.00     0.047 A 
BRANCH  30  33
HETATM   33  O   UNL     1     -19.752 -13.033   0.483  1.00  0.00    -0.358 OA
HETATM   34  H   UNL     1     -19.587 -13.503   1.315  1.00  0.00     0.217 HD
ENDBRANCH  30  33
BRANCH  31  35
HETATM   35  O   UNL     1     -19.360 -14.553  -1.993  1.00  0.00    -0.353 OA
HETATM   36  C   UNL     1     -19.254 -14.716  -3.403  1.00  0.00     0.210 C 
ENDBRANCH  31  35
ENDBRANCH  26  27
ENDBRANCH  24  26
ENDBRANCH  23  24
ENDBRANCH  22  23
ENDBRANCH  12  22
BRANCH  14  37
HETATM   37  O   UNL     1     -17.705 -12.441  -5.798  1.00  0.00    -0.382 OA
HETATM   38  H   UNL     1     -17.660 -13.103  -6.512  1.00  0.00     0.211 HD
ENDBRANCH  14  37
BRANCH   1  39
HETATM   39  C   UNL     1     -21.914  -9.960  -0.141  1.00  0.00    -0.056 C 
HETATM   40  C   UNL     1     -21.322  -9.443   0.965  1.00  0.00     0.017 C 
HETATM   41  C   UNL     1     -23.409 -10.122  -0.076  1.00  0.00     0.046 C 
ENDBRANCH   1  39
BRANCH   7  42
HETATM   42  C   UNL     1     -21.360  -7.053  -3.660  1.00  0.00     0.140 C 
BRANCH  42  43
HETATM   43  C   UNL     1     -21.168  -6.654  -5.111  1.00  0.00    -0.051 A 
HETATM   44  C   UNL     1     -22.143  -5.879  -5.761  1.00  0.00     0.007 A 
HETATM   45  C   UNL     1     -21.852  -5.229  -6.964  1.00  0.00     0.001 A 
HETATM   46  C   UNL     1     -20.592  -5.367  -7.542  1.00  0.00     0.000 A 
HETATM   47  C   UNL     1     -19.647  -6.200  -6.949  1.00  0.00     0.001 A 
HETATM   48  C   UNL     1     -19.936  -6.843  -5.746  1.00  0.00     0.007 A 
ENDBRANCH  42  43
ENDBRANCH   7  42
TORSDOF 11
ENDMDL
MODEL 7
REMARK VINA RESULT:      -9.5      4.414      8.032
REMARK  11 active torsions:
REMARK  status: ('A' for Active; 'I' for Inactive)
REMARK    1  A    between atoms: C_2  and  C_4 
REMARK    2  A    between atoms: C_10  and  C_11 
REMARK    3  A    between atoms: C_11  and  C_12 
REMARK    4  A    between atoms: C_22  and  C_23 
REMARK    5  A    between atoms: C_23  and  O_24 
REMARK    6  A    between atoms: O_24  and  C_25 
REMARK    7  A    between atoms: C_25  and  C_27 
REMARK    8  A    between atoms: C_27  and  C_28 
REMARK    9  A    between atoms: C_31  and  O_32 
REMARK   10  A    between atoms: C_33  and  O_34 
REMARK   11  A    between atoms: C_38  and  O_39 
ROOT
HETATM    1  C   UNL     1     -21.268  -9.277  -1.458  1.00  0.00     0.116 C 
HETATM    2  C   UNL     1     -21.460  -9.597   0.018  1.00  0.00     0.053 C 
HETATM    3  C   UNL     1     -22.158 -10.928   0.128  1.00  0.00     0.020 C 
HETATM    4  C   UNL     1     -23.684 -10.828  -0.124  1.00  0.00     0.013 C 
HETATM    5  C   UNL     1     -21.414 -12.012  -0.766  1.00  0.00     0.083 C 
HETATM    6  O   UNL     1     -22.070 -12.132  -2.057  1.00  0.00    -0.320 OA
HETATM    7  C   UNL     1     -21.889 -10.934  -2.930  1.00  0.00     0.288 C 
HETATM    8  O   UNL     1     -20.529 -10.605  -3.231  1.00  0.00    -0.323 OA
HETATM    9  C   UNL     1     -20.070 -10.208  -1.942  1.00  0.00     0.173 C 
HETATM   10  C   UNL     1     -19.954 -11.628  -1.187  1.00  0.00     0.054 C 
HETATM   11  C   UNL     1     -19.357 -12.757  -2.154  1.00  0.00     0.017 C 
HETATM   12  C   UNL     1     -19.137 -14.034  -1.766  1.00  0.00     0.014 C 
HETATM   13  C   UNL     1     -20.279 -14.945  -1.350  1.00  0.00     0.053 C 
HETATM   14  C   UNL     1     -20.671 -14.556   0.057  1.00  0.00     0.125 C 
HETATM   15  C   UNL     1     -21.599 -15.526   0.775  1.00  0.00     0.165 C 
HETATM   16  O   UNL     1     -21.406 -16.728   0.896  1.00  0.00    -0.294 OA
HETATM   17  C   UNL     1     -22.681 -14.796   1.519  1.00  0.00     0.055 C 
HETATM   18  C   UNL     1     -22.240 -14.588   2.960  1.00  0.00     0.018 C 
HETATM   19  C   UNL     1     -22.812 -13.738   0.691  1.00  0.00     0.023 C 
HETATM   20  C   UNL     1     -21.442 -13.249   0.213  1.00  0.00     0.064 C 
HETATM   21  O   UNL     1     -22.392  -9.816  -2.236  1.00  0.00    -0.314 OA
ENDROOT
BRANCH  12  22
HETATM   22  C   UNL     1     -17.766 -14.486  -1.337  1.00  0.00     0.183 C 
BRANCH  22  23
HETATM   23  O   UNL     1     -17.245 -13.577  -0.370  1.00  0.00    -0.321 OA
BRANCH  23  24
HETATM   24  C   UNL     1     -15.935 -13.257  -0.511  1.00  0.00     0.263 C 
HETATM   25  O   UNL     1     -14.978 -14.032  -0.496  1.00  0.00    -0.265 OA
BRANCH  24  26
HETATM   26  C   UNL     1     -15.769 -11.761  -0.642  1.00  0.00     0.149 C 
BRANCH  26  27
HETATM   27  C   UNL     1     -15.829 -11.323  -2.081  1.00  0.00    -0.046 A 
HETATM   28  C   UNL     1     -16.389 -10.083  -2.412  1.00  0.00     0.010 A 
HETATM   29  C   UNL     1     -16.432  -9.665  -3.743  1.00  0.00     0.040 A 
HETATM   30  C   UNL     1     -15.930 -10.486  -4.757  1.00  0.00     0.099 A 
HETATM   31  C   UNL     1     -15.377 -11.735  -4.442  1.00  0.00     0.101 A 
HETATM   32  C   UNL     1     -15.348 -12.147  -3.104  1.00  0.00     0.047 A 
BRANCH  30  33
HETATM   33  O   UNL     1     -16.004 -10.052  -6.048  1.00  0.00    -0.358 OA
HETATM   34  H   UNL     1     -16.877  -9.657  -6.198  1.00  0.00     0.217 HD
ENDBRANCH  30  33
BRANCH  31  35
HETATM   35  O   UNL     1     -14.878 -12.660  -5.323  1.00  0.00    -0.353 OA
HETATM   36  C   UNL     1     -13.510 -12.498  -5.680  1.00  0.00     0.210 C 
ENDBRANCH  31  35
ENDBRANCH  26  27
ENDBRANCH  24  26
ENDBRANCH  23  24
ENDBRANCH  22  23
ENDBRANCH  12  22
BRANCH  14  37
HETATM   37  O   UNL     1     -19.510 -14.526   0.932  1.00  0.00    -0.382 OA
HETATM   38  H   UNL     1     -19.172 -15.441   0.969  1.00  0.00     0.211 HD
ENDBRANCH  14  37
BRANCH   1  39
HETATM   39  C   UNL     1     -21.492  -7.748  -1.517  1.00  0.00    -0.056 C 
HETATM   40  C   UNL     1     -21.122  -7.060  -2.626  1.00  0.00     0.017 C 
HETATM   41  C   UNL     1     -22.416  -7.031  -0.570  1.00  0.00     0.046 C 
ENDBRANCH   1  39
BRANCH   7  42
HETATM   42  C   UNL     1     -22.579 -11.274  -4.261  1.00  0.00     0.140 C 
BRANCH  42  43
HETATM   43  C   UNL     1     -21.939 -12.224  -5.256  1.00  0.00    -0.051 A 
HETATM   44  C   UNL     1     -21.383 -11.724  -6.445  1.00  0.00     0.007 A 
HETATM   45  C   UNL     1     -20.513 -12.508  -7.209  1.00  0.00     0.001 A 
HETATM   46  C   UNL     1     -20.209 -13.806  -6.806  1.00  0.00     0.000 A 
HETATM   47  C   UNL     1     -20.821 -14.339  -5.674  1.00  0.00     0.001 A 
HETATM   48  C   UNL     1     -21.685 -13.555  -4.910  1.00  0.00     0.007 A 
ENDBRANCH  42  43
ENDBRANCH   7  42
TORSDOF 11
ENDMDL
MODEL 8
REMARK VINA RESULT:      -9.5      1.781      4.101
REMARK  11 active torsions:
REMARK  status: ('A' for Active; 'I' for Inactive)
REMARK    1  A    between atoms: C_2  and  C_4 
REMARK    2  A    between atoms: C_10  and  C_11 
REMARK    3  A    between atoms: C_11  and  C_12 
REMARK    4  A    between atoms: C_22  and  C_23 
REMARK    5  A    between atoms: C_23  and  O_24 
REMARK    6  A    between atoms: O_24  and  C_25 
REMARK    7  A    between atoms: C_25  and  C_27 
REMARK    8  A    between atoms: C_27  and  C_28 
REMARK    9  A    between atoms: C_31  and  O_32 
REMARK   10  A    between atoms: C_33  and  O_34 
REMARK   11  A    between atoms: C_38  and  O_39 
ROOT
HETATM    1  C   UNL     1     -22.332 -13.367  -3.023  1.00  0.00     0.116 C 
HETATM    2  C   UNL     1     -21.310 -13.181  -1.910  1.00  0.00     0.053 C 
HETATM    3  C   UNL     1     -19.939 -13.114  -2.531  1.00  0.00     0.020 C 
HETATM    4  C   UNL     1     -19.382 -14.511  -2.908  1.00  0.00     0.013 C 
HETATM    5  C   UNL     1     -19.927 -12.059  -3.720  1.00  0.00     0.083 C 
HETATM    6  O   UNL     1     -20.123 -12.735  -4.991  1.00  0.00    -0.320 OA
HETATM    7  C   UNL     1     -21.501 -13.282  -5.169  1.00  0.00     0.288 C 
HETATM    8  O   UNL     1     -22.550 -12.312  -5.096  1.00  0.00    -0.323 OA
HETATM    9  C   UNL     1     -22.463 -11.941  -3.722  1.00  0.00     0.173 C 
HETATM   10  C   UNL     1     -21.122 -11.046  -3.713  1.00  0.00     0.054 C 
HETATM   11  C   UNL     1     -21.039 -10.104  -5.007  1.00  0.00     0.017 C 
HETATM   12  C   UNL     1     -20.026  -9.237  -5.236  1.00  0.00     0.014 C 
HETATM   13  C   UNL     1     -18.602  -9.719  -5.452  1.00  0.00     0.053 C 
HETATM   14  C   UNL     1     -18.036 -10.062  -4.094  1.00  0.00     0.125 C 
HETATM   15  C   UNL     1     -16.532 -10.292  -4.045  1.00  0.00     0.165 C 
HETATM   16  O   UNL     1     -15.686  -9.519  -4.477  1.00  0.00    -0.294 OA
HETATM   17  C   UNL     1     -16.189 -11.484  -3.198  1.00  0.00     0.055 C 
HETATM   18  C   UNL     1     -15.882 -11.017  -1.783  1.00  0.00     0.018 C 
HETATM   19  C   UNL     1     -17.290 -12.224  -3.443  1.00  0.00     0.023 C 
HETATM   20  C   UNL     1     -18.545 -11.348  -3.449  1.00  0.00     0.064 C 
HETATM   21  O   UNL     1     -21.750 -14.173  -4.106  1.00  0.00    -0.314 OA
ENDROOT
BRANCH  12  22
HETATM   22  C   UNL     1     -20.166  -7.779  -4.890  1.00  0.00     0.183 C 
BRANCH  22  23
HETATM   23  O   UNL     1     -20.530  -7.043  -6.056  1.00  0.00    -0.321 OA
BRANCH  23  24
HETATM   24  C   UNL     1     -21.294  -5.944  -5.843  1.00  0.00     0.263 C 
HETATM   25  O   UNL     1     -22.374  -5.898  -5.254  1.00  0.00    -0.265 OA
BRANCH  24  26
HETATM   26  C   UNL     1     -20.665  -4.731  -6.487  1.00  0.00     0.149 C 
BRANCH  26  27
HETATM   27  C   UNL     1     -21.016  -4.637  -7.948  1.00  0.00    -0.046 A 
HETATM   28  C   UNL     1     -20.001  -4.505  -8.904  1.00  0.00     0.010 A 
HETATM   29  C   UNL     1     -20.320  -4.435 -10.261  1.00  0.00     0.040 A 
HETATM   30  C   UNL     1     -21.654  -4.481 -10.675  1.00  0.00     0.099 A 
HETATM   31  C   UNL     1     -22.681  -4.601  -9.728  1.00  0.00     0.101 A 
HETATM   32  C   UNL     1     -22.349  -4.662  -8.370  1.00  0.00     0.047 A 
BRANCH  30  33
HETATM   33  O   UNL     1     -21.929  -4.392 -12.008  1.00  0.00    -0.358 OA
HETATM   34  H   UNL     1     -21.743  -3.489 -12.309  1.00  0.00     0.217 HD
ENDBRANCH  30  33
BRANCH  31  35
HETATM   35  O   UNL     1     -24.030  -4.626  -9.976  1.00  0.00    -0.353 OA
HETATM   36  C   UNL     1     -24.678  -3.360  -9.998  1.00  0.00     0.210 C 
ENDBRANCH  31  35
ENDBRANCH  26  27
ENDBRANCH  24  26
ENDBRANCH  23  24
ENDBRANCH  22  23
ENDBRANCH  12  22
BRANCH  14  37
HETATM   37  O   UNL     1     -18.217  -8.962  -3.160  1.00  0.00    -0.382 OA
HETATM   38  H   UNL     1     -17.322  -8.692  -2.881  1.00  0.00     0.211 HD
ENDBRANCH  14  37
BRANCH   1  39
HETATM   39  C   UNL     1     -23.373 -14.318  -2.389  1.00  0.00    -0.056 C 
HETATM   40  C   UNL     1     -23.994 -13.959  -1.237  1.00  0.00     0.017 C 
HETATM   41  C   UNL     1     -24.000 -15.453  -3.152  1.00  0.00     0.046 C 
ENDBRANCH   1  39
BRANCH   7  42
HETATM   42  C   UNL     1     -21.537 -13.884  -6.583  1.00  0.00     0.140 C 
BRANCH  42  43
HETATM   43  C   UNL     1     -20.265 -14.088  -7.382  1.00  0.00    -0.051 A 
HETATM   44  C   UNL     1     -19.657 -15.354  -7.424  1.00  0.00     0.007 A 
HETATM   45  C   UNL     1     -18.696 -15.652  -8.394  1.00  0.00     0.001 A 
HETATM   46  C   UNL     1     -18.313 -14.680  -9.316  1.00  0.00     0.000 A 
HETATM   47  C   UNL     1     -18.848 -13.397  -9.230  1.00  0.00     0.001 A 
HETATM   48  C   UNL     1     -19.812 -13.102  -8.265  1.00  0.00     0.007 A 
ENDBRANCH  42  43
ENDBRANCH   7  42
TORSDOF 11
ENDMDL
MODEL 9
REMARK VINA RESULT:      -9.3      3.354      7.685
REMARK  11 active torsions:
REMARK  status: ('A' for Active; 'I' for Inactive)
REMARK    1  A    between atoms: C_2  and  C_4 
REMARK    2  A    between atoms: C_10  and  C_11 
REMARK    3  A    between atoms: C_11  and  C_12 
REMARK    4  A    between atoms: C_22  and  C_23 
REMARK    5  A    between atoms: C_23  and  O_24 
REMARK    6  A    between atoms: O_24  and  C_25 
REMARK    7  A    between atoms: C_25  and  C_27 
REMARK    8  A    between atoms: C_27  and  C_28 
REMARK    9  A    between atoms: C_31  and  O_32 
REMARK   10  A    between atoms: C_33  and  O_34 
REMARK   11  A    between atoms: C_38  and  O_39 
ROOT
HETATM    1  C   UNL     1     -21.564  -9.093  -0.925  1.00  0.00     0.116 C 
HETATM    2  C   UNL     1     -22.120 -10.189  -0.027  1.00  0.00     0.053 C 
HETATM    3  C   UNL     1     -22.306 -11.433  -0.856  1.00  0.00     0.020 C 
HETATM    4  C   UNL     1     -23.590 -11.391  -1.721  1.00  0.00     0.013 C 
HETATM    5  C   UNL     1     -20.977 -11.754  -1.667  1.00  0.00     0.083 C 
HETATM    6  O   UNL     1     -21.073 -11.223  -3.017  1.00  0.00    -0.320 OA
HETATM    7  C   UNL     1     -21.036  -9.731  -3.073  1.00  0.00     0.288 C 
HETATM    8  O   UNL     1     -19.858  -9.134  -2.520  1.00  0.00    -0.323 OA
HETATM    9  C   UNL     1     -20.029  -9.458  -1.142  1.00  0.00     0.173 C 
HETATM   10  C   UNL     1     -19.691 -11.035  -1.135  1.00  0.00     0.054 C 
HETATM   11  C   UNL     1     -18.450 -11.370  -2.092  1.00  0.00     0.017 C 
HETATM   12  C   UNL     1     -17.946 -12.615  -2.253  1.00  0.00     0.014 C 
HETATM   13  C   UNL     1     -18.769 -13.731  -2.872  1.00  0.00     0.053 C 
HETATM   14  C   UNL     1     -19.722 -14.226  -1.808  1.00  0.00     0.125 C 
HETATM   15  C   UNL     1     -20.440 -15.530  -2.121  1.00  0.00     0.165 C 
HETATM   16  O   UNL     1     -19.896 -16.570  -2.467  1.00  0.00    -0.294 OA
HETATM   17  C   UNL     1     -21.892 -15.460  -1.739  1.00  0.00     0.055 C 
HETATM   18  C   UNL     1     -22.065 -16.026  -0.337  1.00  0.00     0.018 C 
HETATM   19  C   UNL     1     -22.093 -14.145  -1.969  1.00  0.00     0.023 C 
HETATM   20  C   UNL     1     -20.903 -13.318  -1.476  1.00  0.00     0.064 C 
HETATM   21  O   UNL     1     -22.098  -9.244  -2.286  1.00  0.00    -0.314 OA
ENDROOT
BRANCH  12  22
HETATM   22  C   UNL     1     -16.734 -13.064  -1.479  1.00  0.00     0.183 C 
BRANCH  22  23
HETATM   23  O   UNL     1     -15.590 -12.336  -1.920  1.00  0.00    -0.321 OA
BRANCH  23  24
HETATM   24  C   UNL     1     -14.630 -13.068  -2.538  1.00  0.00     0.263 C 
HETATM   25  O   UNL     1     -14.126 -14.117  -2.136  1.00  0.00    -0.265 OA
BRANCH  24  26
HETATM   26  C   UNL     1     -14.190 -12.389  -3.814  1.00  0.00     0.149 C 
BRANCH  26  27
HETATM   27  C   UNL     1     -15.368 -11.903  -4.615  1.00  0.00    -0.046 A 
HETATM   28  C   UNL     1     -15.706 -10.544  -4.607  1.00  0.00     0.010 A 
HETATM   29  C   UNL     1     -16.786 -10.084  -5.362  1.00  0.00     0.040 A 
HETATM   30  C   UNL     1     -17.549 -10.978  -6.119  1.00  0.00     0.099 A 
HETATM   31  C   UNL     1     -17.230 -12.344  -6.127  1.00  0.00     0.101 A 
HETATM   32  C   UNL     1     -16.149 -12.794  -5.359  1.00  0.00     0.047 A 
BRANCH  30  33
HETATM   33  O   UNL     1     -18.608 -10.497  -6.830  1.00  0.00    -0.358 OA
HETATM   34  H   UNL     1     -18.287  -9.836  -7.464  1.00  0.00     0.217 HD
ENDBRANCH  30  33
BRANCH  31  35
HETATM   35  O   UNL     1     -17.899 -13.341  -6.789  1.00  0.00    -0.353 OA
HETATM   36  C   UNL     1     -17.459 -13.604  -8.116  1.00  0.00     0.210 C 
ENDBRANCH  31  35
ENDBRANCH  26  27
ENDBRANCH  24  26
ENDBRANCH  23  24
ENDBRANCH  22  23
ENDBRANCH  12  22
BRANCH  14  37
HETATM   37  O   UNL     1     -19.012 -14.545  -0.580  1.00  0.00    -0.382 OA
HETATM   38  H   UNL     1     -18.065 -14.574  -0.812  1.00  0.00     0.211 HD
ENDBRANCH  14  37
BRANCH   1  39
HETATM   39  C   UNL     1     -22.271  -7.820  -0.403  1.00  0.00    -0.056 C 
HETATM   40  C   UNL     1     -22.313  -6.710  -1.182  1.00  0.00     0.017 C 
HETATM   41  C   UNL     1     -23.220  -7.845   0.764  1.00  0.00     0.046 C 
ENDBRANCH   1  39
BRANCH   7  42
HETATM   42  C   UNL     1     -21.071  -9.364  -4.565  1.00  0.00     0.140 C 
BRANCH  42  43
HETATM   43  C   UNL     1     -20.998  -7.919  -5.021  1.00  0.00    -0.051 A 
HETATM   44  C   UNL     1     -19.862  -7.457  -5.706  1.00  0.00     0.007 A 
HETATM   45  C   UNL     1     -19.899  -6.252  -6.415  1.00  0.00     0.001 A 
HETATM   46  C   UNL     1     -21.063  -5.487  -6.427  1.00  0.00     0.000 A 
HETATM   47  C   UNL     1     -22.166  -5.895  -5.682  1.00  0.00     0.001 A 
HETATM   48  C   UNL     1     -22.130  -7.100  -4.979  1.00  0.00     0.007 A 
ENDBRANCH  42  43
ENDBRANCH   7  42
TORSDOF 11
ENDMDL
