MODEL 1
REMARK VINA RESULT:     -10.5      0.000      0.000
REMARK  11 active torsions:
REMARK  status: ('A' for Active; 'I' for Inactive)
REMARK    1  A    between atoms: C_2  and  C_4 
REMARK    2  A    between atoms: C_10  and  C_11 
REMARK    3  A    between atoms: C_11  and  C_12 
REMARK    4  A    between atoms: C_22  and  C_23 
REMARK    5  A    between atoms: C_23  and  O_24 
REMARK    6  A    between atoms: O_24  and  C_25 
REMARK    7  A    between atoms: C_25  and  C_27 
REMARK    8  A    between atoms: C_27  and  C_28 
REMARK    9  A    between atoms: C_31  and  O_32 
REMARK   10  A    between atoms: C_33  and  O_34 
REMARK   11  A    between atoms: C_38  and  O_39 
ROOT
HETATM    1  C   UNL     1     -18.989 -12.619  -5.463  1.00  0.00     0.116 C 
HETATM    2  C   UNL     1     -19.982 -13.438  -4.720  1.00  0.00     0.053 C 
HETATM    3  C   UNL     1     -19.941 -12.835  -3.313  1.00  0.00     0.021 C 
HETATM    4  C   UNL     1     -18.717 -13.391  -2.468  1.00  0.00     0.013 C 
HETATM    5  C   UNL     1     -19.785 -11.282  -3.348  1.00  0.00     0.086 C 
HETATM    6  O   UNL     1     -18.335 -11.202  -3.923  1.00  0.00    -0.319 OA
HETATM    7  C   UNL     1     -17.963 -11.103  -5.693  1.00  0.00     0.288 C 
HETATM    8  O   UNL     1     -18.753 -10.202  -6.399  1.00  0.00    -0.323 OA
HETATM    9  C   UNL     1     -19.797 -10.842  -5.642  1.00  0.00     0.177 C 
HETATM   10  C   UNL     1     -20.363 -10.288  -4.291  1.00  0.00     0.077 C 
HETATM   11  C   UNL     1     -19.605  -8.869  -3.680  1.00  0.00    -0.011 C 
HETATM   12  C   UNL     1     -20.305  -7.940  -3.019  1.00  0.00    -0.056 C 
HETATM   13  C   UNL     1     -20.225  -8.158  -1.528  1.00  0.00     0.082 C 
HETATM   14  C   UNL     1     -20.979  -9.468  -1.288  1.00  0.00     0.128 C 
HETATM   15  C   UNL     1     -21.026  -9.767   0.205  1.00  0.00     0.165 C 
HETATM   16  O   UNL     1     -21.391  -8.988   1.076  1.00  0.00    -0.294 OA
HETATM   17  C   UNL     1     -20.739 -11.208   0.479  1.00  0.00     0.055 C 
HETATM   18  C   UNL     1     -22.062 -11.919   0.693  1.00  0.00     0.018 C 
HETATM   19  C   UNL     1     -19.927 -11.485  -0.568  1.00  0.00     0.023 C 
HETATM   20  C   UNL     1     -20.421 -10.845  -1.855  1.00  0.00     0.065 C 
HETATM   21  O   UNL     1     -18.344 -12.166  -6.550  1.00  0.00    -0.314 OA
ENDROOT
BRANCH  12  22
HETATM   22  C   UNL     1     -21.603  -7.407  -3.541  1.00  0.00     0.212 C 
BRANCH  22  23
HETATM   23  O   UNL     1     -21.359  -6.152  -4.159  1.00  0.00    -0.317 OA
BRANCH  23  24
HETATM   24  C   UNL     1     -21.080  -6.198  -5.498  1.00  0.00     0.263 C 
HETATM   25  O   UNL     1     -21.221  -7.175  -6.220  1.00  0.00    -0.265 OA
BRANCH  24  26
HETATM   26  C   UNL     1     -20.555  -4.858  -5.920  1.00  0.00     0.149 C 
BRANCH  26  27
HETATM   27  C   UNL     1     -20.818  -4.548  -7.368  1.00  0.00    -0.046 A 
HETATM   28  C   UNL     1     -19.828  -4.732  -8.337  1.00  0.00     0.010 A 
HETATM   29  C   UNL     1     -20.100  -4.439  -9.671  1.00  0.00     0.040 A 
HETATM   30  C   UNL     1     -21.358  -3.966 -10.060  1.00  0.00     0.099 A 
HETATM   31  C   UNL     1     -22.371  -3.816  -9.108  1.00  0.00     0.101 A 
HETATM   32  C   UNL     1     -22.087  -4.087  -7.774  1.00  0.00     0.047 A 
BRANCH  30  33
HETATM   33  O   UNL     1     -21.555  -3.642 -11.369  1.00  0.00    -0.358 OA
HETATM   34  H   UNL     1     -20.887  -2.997 -11.652  1.00  0.00     0.217 HD
ENDBRANCH  30  33
BRANCH  31  35
HETATM   35  O   UNL     1     -23.644  -3.360  -9.326  1.00  0.00    -0.353 OA
HETATM   36  C   UNL     1     -24.576  -4.316  -9.816  1.00  0.00     0.210 C 
ENDBRANCH  31  35
ENDBRANCH  26  27
ENDBRANCH  24  26
ENDBRANCH  23  24
ENDBRANCH  22  23
ENDBRANCH  12  22
BRANCH  14  37
HETATM   37  O   UNL     1     -22.381  -9.321  -1.639  1.00  0.00    -0.381 OA
HETATM   38  H   UNL     1     -22.883  -9.330  -0.797  1.00  0.00     0.211 HD
ENDBRANCH  14  37
BRANCH   1  39
HETATM   39  C   UNL     1     -17.871 -13.841  -5.944  1.00  0.00    -0.056 C 
HETATM   40  C   UNL     1     -17.243 -14.557  -5.025  1.00  0.00     0.017 C 
HETATM   41  C   UNL     1     -17.798 -14.622  -7.314  1.00  0.00     0.046 C 
ENDBRANCH   1  39
BRANCH   7  42
HETATM   42  C   UNL     1     -16.633 -10.829  -5.260  1.00  0.00     0.140 C 
BRANCH  42  43
HETATM   43  C   UNL     1     -15.418 -11.550  -5.360  1.00  0.00    -0.051 A 
HETATM   44  C   UNL     1     -14.808 -11.897  -6.531  1.00  0.00     0.007 A 
HETATM   45  C   UNL     1     -13.662 -12.631  -6.410  1.00  0.00     0.001 A 
HETATM   46  C   UNL     1     -13.169 -12.944  -5.114  1.00  0.00     0.000 A 
HETATM   47  C   UNL     1     -13.846 -12.525  -3.965  1.00  0.00     0.001 A 
HETATM   48  C   UNL     1     -14.975 -11.849  -4.057  1.00  0.00     0.007 A 
ENDBRANCH  42  43
ENDBRANCH   7  42
TORSDOF 11
ENDMDL
MODEL 2
REMARK VINA RESULT:     -10.3      1.539      2.602
REMARK  11 active torsions:
REMARK  status: ('A' for Active; 'I' for Inactive)
REMARK    1  A    between atoms: C_2  and  C_4 
REMARK    2  A    between atoms: C_10  and  C_11 
REMARK    3  A    between atoms: C_11  and  C_12 
REMARK    4  A    between atoms: C_22  and  C_23 
REMARK    5  A    between atoms: C_23  and  O_24 
REMARK    6  A    between atoms: O_24  and  C_25 
REMARK    7  A    between atoms: C_25  and  C_27 
REMARK    8  A    between atoms: C_27  and  C_28 
REMARK    9  A    between atoms: C_31  and  O_32 
REMARK   10  A    between atoms: C_33  and  O_34 
REMARK   11  A    between atoms: C_38  and  O_39 
ROOT
HETATM    1  C   UNL     1     -19.557 -12.313  -4.665  1.00  0.00     0.116 C 
HETATM    2  C   UNL     1     -20.719 -12.512  -3.759  1.00  0.00     0.053 C 
HETATM    3  C   UNL     1     -20.703 -11.248  -2.896  1.00  0.00     0.021 C 
HETATM    4  C   UNL     1     -19.649 -11.353  -1.713  1.00  0.00     0.013 C 
HETATM    5  C   UNL     1     -20.314  -9.981  -3.723  1.00  0.00     0.086 C 
HETATM    6  O   UNL     1     -18.827 -10.346  -4.029  1.00  0.00    -0.319 OA
HETATM    7  C   UNL     1     -18.300 -11.255  -5.506  1.00  0.00     0.288 C 
HETATM    8  O   UNL     1     -18.888 -10.822  -6.690  1.00  0.00    -0.323 OA
HETATM    9  C   UNL     1     -20.074 -10.860  -5.874  1.00  0.00     0.177 C 
HETATM   10  C   UNL     1     -20.658  -9.616  -5.123  1.00  0.00     0.077 C 
HETATM   11  C   UNL     1     -19.749  -8.161  -5.249  1.00  0.00    -0.011 C 
HETATM   12  C   UNL     1     -20.353  -6.968  -5.293  1.00  0.00    -0.056 C 
HETATM   13  C   UNL     1     -20.428  -6.347  -3.920  1.00  0.00     0.082 C 
HETATM   14  C   UNL     1     -21.387  -7.249  -3.139  1.00  0.00     0.128 C 
HETATM   15  C   UNL     1     -21.599  -6.684  -1.741  1.00  0.00     0.165 C 
HETATM   16  O   UNL     1     -21.914  -5.530  -1.479  1.00  0.00    -0.294 OA
HETATM   17  C   UNL     1     -21.554  -7.763  -0.707  1.00  0.00     0.055 C 
HETATM   18  C   UNL     1     -22.982  -8.132  -0.350  1.00  0.00     0.018 C 
HETATM   19  C   UNL     1     -20.711  -8.630  -1.314  1.00  0.00     0.023 C 
HETATM   20  C   UNL     1     -20.997  -8.754  -2.801  1.00  0.00     0.065 C 
HETATM   21  O   UNL     1     -18.766 -12.578  -5.716  1.00  0.00    -0.314 OA
ENDROOT
BRANCH  12  22
HETATM   22  C   UNL     1     -21.510  -6.700  -6.205  1.00  0.00     0.212 C 
BRANCH  22  23
HETATM   23  O   UNL     1     -21.005  -6.260  -7.457  1.00  0.00    -0.317 OA
BRANCH  23  24
HETATM   24  C   UNL     1     -20.947  -4.903  -7.625  1.00  0.00     0.263 C 
HETATM   25  O   UNL     1     -21.096  -4.071  -6.741  1.00  0.00    -0.265 OA
BRANCH  24  26
HETATM   26  C   UNL     1     -20.692  -4.614  -9.074  1.00  0.00     0.149 C 
BRANCH  26  27
HETATM   27  C   UNL     1     -21.924  -4.179  -9.817  1.00  0.00    -0.046 A 
HETATM   28  C   UNL     1     -23.202  -4.489  -9.341  1.00  0.00     0.010 A 
HETATM   29  C   UNL     1     -24.326  -4.071 -10.049  1.00  0.00     0.040 A 
HETATM   30  C   UNL     1     -24.197  -3.335 -11.232  1.00  0.00     0.099 A 
HETATM   31  C   UNL     1     -22.927  -2.982 -11.698  1.00  0.00     0.101 A 
HETATM   32  C   UNL     1     -21.807  -3.423 -11.001  1.00  0.00     0.047 A 
BRANCH  30  33
HETATM   33  O   UNL     1     -25.328  -2.999 -11.914  1.00  0.00    -0.358 OA
HETATM   34  H   UNL     1     -25.442  -3.592 -12.674  1.00  0.00     0.217 HD
ENDBRANCH  30  33
BRANCH  31  35
HETATM   35  O   UNL     1     -22.635  -2.277 -12.836  1.00  0.00    -0.353 OA
HETATM   36  C   UNL     1     -22.923  -2.929 -14.066  1.00  0.00     0.210 C 
ENDBRANCH  31  35
ENDBRANCH  26  27
ENDBRANCH  24  26
ENDBRANCH  23  24
ENDBRANCH  22  23
ENDBRANCH  12  22
BRANCH  14  37
HETATM   37  O   UNL     1     -22.718  -7.202  -3.720  1.00  0.00    -0.381 OA
HETATM   38  H   UNL     1     -23.316  -6.862  -3.021  1.00  0.00     0.211 HD
ENDBRANCH  14  37
BRANCH   1  39
HETATM   39  C   UNL     1     -18.599 -13.687  -4.254  1.00  0.00    -0.056 C 
HETATM   40  C   UNL     1     -17.971 -13.727  -3.089  1.00  0.00     0.017 C 
HETATM   41  C   UNL     1     -18.707 -15.162  -4.808  1.00  0.00     0.046 C 
ENDBRANCH   1  39
BRANCH   7  42
HETATM   42  C   UNL     1     -16.984 -10.901  -5.090  1.00  0.00     0.140 C 
BRANCH  42  43
HETATM   43  C   UNL     1     -15.718 -11.505  -5.276  1.00  0.00    -0.051 A 
HETATM   44  C   UNL     1     -15.173 -11.822  -6.488  1.00  0.00     0.007 A 
HETATM   45  C   UNL     1     -13.955 -12.441  -6.448  1.00  0.00     0.001 A 
HETATM   46  C   UNL     1     -13.332 -12.673  -5.193  1.00  0.00     0.000 A 
HETATM   47  C   UNL     1     -13.952 -12.291  -3.999  1.00  0.00     0.001 A 
HETATM   48  C   UNL     1     -15.144 -11.728  -4.010  1.00  0.00     0.007 A 
ENDBRANCH  42  43
ENDBRANCH   7  42
TORSDOF 11
ENDMDL
MODEL 3
REMARK VINA RESULT:      -9.8      2.522      6.098
REMARK  11 active torsions:
REMARK  status: ('A' for Active; 'I' for Inactive)
REMARK    1  A    between atoms: C_2  and  C_4 
REMARK    2  A    between atoms: C_10  and  C_11 
REMARK    3  A    between atoms: C_11  and  C_12 
REMARK    4  A    between atoms: C_22  and  C_23 
REMARK    5  A    between atoms: C_23  and  O_24 
REMARK    6  A    between atoms: O_24  and  C_25 
REMARK    7  A    between atoms: C_25  and  C_27 
REMARK    8  A    between atoms: C_27  and  C_28 
REMARK    9  A    between atoms: C_31  and  O_32 
REMARK   10  A    between atoms: C_33  and  O_34 
REMARK   11  A    between atoms: C_38  and  O_39 
ROOT
HETATM    1  C   UNL     1     -22.051 -11.945   0.153  1.00  0.00     0.116 C 
HETATM    2  C   UNL     1     -20.792 -11.389   0.715  1.00  0.00     0.053 C 
HETATM    3  C   UNL     1     -19.841 -11.412  -0.485  1.00  0.00     0.021 C 
HETATM    4  C   UNL     1     -19.210 -12.852  -0.713  1.00  0.00     0.013 C 
HETATM    5  C   UNL     1     -20.569 -11.034  -1.814  1.00  0.00     0.086 C 
HETATM    6  O   UNL     1     -21.496 -12.285  -1.940  1.00  0.00    -0.319 OA
HETATM    7  C   UNL     1     -23.170 -12.366  -1.252  1.00  0.00     0.288 C 
HETATM    8  O   UNL     1     -23.945 -11.234  -1.484  1.00  0.00    -0.323 OA
HETATM    9  C   UNL     1     -22.735 -10.573  -1.069  1.00  0.00     0.177 C 
HETATM   10  C   UNL     1     -21.647 -10.039  -2.059  1.00  0.00     0.077 C 
HETATM   11  C   UNL     1     -21.924 -10.352  -3.728  1.00  0.00    -0.011 C 
HETATM   12  C   UNL     1     -21.554  -9.476  -4.669  1.00  0.00    -0.056 C 
HETATM   13  C   UNL     1     -20.195  -9.820  -5.227  1.00  0.00     0.082 C 
HETATM   14  C   UNL     1     -19.228  -9.585  -4.064  1.00  0.00     0.128 C 
HETATM   15  C   UNL     1     -17.799  -9.838  -4.525  1.00  0.00     0.165 C 
HETATM   16  O   UNL     1     -17.275  -9.352  -5.519  1.00  0.00    -0.294 OA
HETATM   17  C   UNL     1     -17.033 -10.623  -3.510  1.00  0.00     0.055 C 
HETATM   18  C   UNL     1     -16.186  -9.654  -2.707  1.00  0.00     0.018 C 
HETATM   19  C   UNL     1     -18.042 -11.336  -2.958  1.00  0.00     0.023 C 
HETATM   20  C   UNL     1     -19.290 -10.491  -2.758  1.00  0.00     0.065 C 
HETATM   21  O   UNL     1     -23.358 -12.253   0.149  1.00  0.00    -0.314 OA
ENDROOT
BRANCH  12  22
HETATM   22  C   UNL     1     -21.876  -8.017  -4.562  1.00  0.00     0.212 C 
BRANCH  22  23
HETATM   23  O   UNL     1     -21.356  -7.356  -5.706  1.00  0.00    -0.317 OA
BRANCH  23  24
HETATM   24  C   UNL     1     -21.757  -6.057  -5.868  1.00  0.00     0.263 C 
HETATM   25  O   UNL     1     -22.878  -5.626  -5.637  1.00  0.00    -0.265 OA
BRANCH  24  26
HETATM   26  C   UNL     1     -20.599  -5.265  -6.397  1.00  0.00     0.149 C 
BRANCH  26  27
HETATM   27  C   UNL     1     -20.769  -4.853  -7.833  1.00  0.00    -0.046 A 
HETATM   28  C   UNL     1     -19.749  -5.052  -8.767  1.00  0.00     0.010 A 
HETATM   29  C   UNL     1     -19.935  -4.663 -10.091  1.00  0.00     0.040 A 
HETATM   30  C   UNL     1     -21.137  -4.079 -10.506  1.00  0.00     0.099 A 
HETATM   31  C   UNL     1     -22.182  -3.911  -9.592  1.00  0.00     0.101 A 
HETATM   32  C   UNL     1     -21.982  -4.279  -8.266  1.00  0.00     0.047 A 
BRANCH  30  33
HETATM   33  O   UNL     1     -21.246  -3.666 -11.800  1.00  0.00    -0.358 OA
HETATM   34  H   UNL     1     -20.654  -2.913 -11.956  1.00  0.00     0.217 HD
ENDBRANCH  30  33
BRANCH  31  35
HETATM   35  O   UNL     1     -23.408  -3.352  -9.838  1.00  0.00    -0.353 OA
HETATM   36  C   UNL     1     -24.513  -4.247  -9.844  1.00  0.00     0.210 C 
ENDBRANCH  31  35
ENDBRANCH  26  27
ENDBRANCH  24  26
ENDBRANCH  23  24
ENDBRANCH  22  23
ENDBRANCH  12  22
BRANCH  14  37
HETATM   37  O   UNL     1     -19.211  -8.181  -3.691  1.00  0.00    -0.381 OA
HETATM   38  H   UNL     1     -20.132  -7.857  -3.780  1.00  0.00     0.211 HD
ENDBRANCH  14  37
BRANCH   1  39
HETATM   39  C   UNL     1     -22.257 -13.334   1.156  1.00  0.00    -0.056 C 
HETATM   40  C   UNL     1     -23.339 -13.446   1.910  1.00  0.00     0.017 C 
HETATM   41  C   UNL     1     -21.618 -14.768   0.992  1.00  0.00     0.046 C 
ENDBRANCH   1  39
BRANCH   7  42
HETATM   42  C   UNL     1     -23.275 -13.573  -2.003  1.00  0.00     0.140 C 
BRANCH  42  43
HETATM   43  C   UNL     1     -24.127 -14.700  -1.904  1.00  0.00    -0.051 A 
HETATM   44  C   UNL     1     -24.921 -14.989  -0.833  1.00  0.00     0.007 A 
HETATM   45  C   UNL     1     -25.637 -16.150  -0.919  1.00  0.00     0.001 A 
HETATM   46  C   UNL     1     -25.544 -16.940  -2.096  1.00  0.00     0.000 A 
HETATM   47  C   UNL     1     -24.722 -16.554  -3.159  1.00  0.00     0.001 A 
HETATM   48  C   UNL     1     -23.993 -15.458  -3.084  1.00  0.00     0.007 A 
ENDBRANCH  42  43
ENDBRANCH   7  42
TORSDOF 11
ENDMDL
MODEL 4
REMARK VINA RESULT:      -9.8      1.708      2.418
REMARK  11 active torsions:
REMARK  status: ('A' for Active; 'I' for Inactive)
REMARK    1  A    between atoms: C_2  and  C_4 
REMARK    2  A    between atoms: C_10  and  C_11 
REMARK    3  A    between atoms: C_11  and  C_12 
REMARK    4  A    between atoms: C_22  and  C_23 
REMARK    5  A    between atoms: C_23  and  O_24 
REMARK    6  A    between atoms: O_24  and  C_25 
REMARK    7  A    between atoms: C_25  and  C_27 
REMARK    8  A    between atoms: C_27  and  C_28 
REMARK    9  A    between atoms: C_31  and  O_32 
REMARK   10  A    between atoms: C_33  and  O_34 
REMARK   11  A    between atoms: C_38  and  O_39 
ROOT
HETATM    1  C   UNL     1     -20.034 -12.111  -6.289  1.00  0.00     0.116 C 
HETATM    2  C   UNL     1     -21.385 -12.730  -6.310  1.00  0.00     0.053 C 
HETATM    3  C   UNL     1     -21.586 -13.164  -4.856  1.00  0.00     0.021 C 
HETATM    4  C   UNL     1     -20.861 -14.542  -4.545  1.00  0.00     0.013 C 
HETATM    5  C   UNL     1     -21.005 -12.122  -3.849  1.00  0.00     0.086 C 
HETATM    6  O   UNL     1     -19.487 -12.300  -4.175  1.00  0.00    -0.319 OA
HETATM    7  C   UNL     1     -18.607 -11.324  -5.422  1.00  0.00     0.288 C 
HETATM    8  O   UNL     1     -18.880  -9.960  -5.385  1.00  0.00    -0.323 OA
HETATM    9  C   UNL     1     -20.233 -10.443  -5.279  1.00  0.00     0.177 C 
HETATM   10  C   UNL     1     -20.987 -10.637  -3.921  1.00  0.00     0.077 C 
HETATM   11  C   UNL     1     -20.077 -10.312  -2.497  1.00  0.00    -0.011 C 
HETATM   12  C   UNL     1     -20.653  -9.779  -1.413  1.00  0.00    -0.056 C 
HETATM   13  C   UNL     1     -21.069 -10.851  -0.437  1.00  0.00     0.082 C 
HETATM   14  C   UNL     1     -22.192 -11.609  -1.150  1.00  0.00     0.128 C 
HETATM   15  C   UNL     1     -22.748 -12.688  -0.231  1.00  0.00     0.165 C 
HETATM   16  O   UNL     1     -23.119 -12.518   0.923  1.00  0.00    -0.294 OA
HETATM   17  C   UNL     1     -22.962 -13.971  -0.968  1.00  0.00     0.055 C 
HETATM   18  C   UNL     1     -24.433 -14.068  -1.325  1.00  0.00     0.018 C 
HETATM   19  C   UNL     1     -21.992 -13.863  -1.906  1.00  0.00     0.023 C 
HETATM   20  C   UNL     1     -21.897 -12.454  -2.465  1.00  0.00     0.065 C 
HETATM   21  O   UNL     1     -19.004 -11.404  -6.781  1.00  0.00    -0.314 OA
ENDROOT
BRANCH  12  22
HETATM   22  C   UNL     1     -21.545  -8.580  -1.500  1.00  0.00     0.212 C 
BRANCH  22  23
HETATM   23  O   UNL     1     -20.898  -7.593  -2.291  1.00  0.00    -0.317 OA
BRANCH  23  24
HETATM   24  C   UNL     1     -21.729  -6.716  -2.935  1.00  0.00     0.263 C 
HETATM   25  O   UNL     1     -22.147  -5.665  -2.474  1.00  0.00    -0.265 OA
BRANCH  24  26
HETATM   26  C   UNL     1     -22.053  -7.276  -4.288  1.00  0.00     0.149 C 
BRANCH  26  27
HETATM   27  C   UNL     1     -21.446  -6.488  -5.416  1.00  0.00    -0.046 A 
HETATM   28  C   UNL     1     -20.132  -6.716  -5.832  1.00  0.00     0.010 A 
HETATM   29  C   UNL     1     -19.597  -5.973  -6.881  1.00  0.00     0.040 A 
HETATM   30  C   UNL     1     -20.361  -4.999  -7.533  1.00  0.00     0.099 A 
HETATM   31  C   UNL     1     -21.690  -4.787  -7.155  1.00  0.00     0.101 A 
HETATM   32  C   UNL     1     -22.212  -5.515  -6.091  1.00  0.00     0.047 A 
BRANCH  30  33
HETATM   33  O   UNL     1     -19.771  -4.261  -8.516  1.00  0.00    -0.358 OA
HETATM   34  H   UNL     1     -20.071  -3.340  -8.460  1.00  0.00     0.217 HD
ENDBRANCH  30  33
BRANCH  31  35
HETATM   35  O   UNL     1     -22.560  -3.872  -7.686  1.00  0.00    -0.353 OA
HETATM   36  C   UNL     1     -23.186  -4.240  -8.908  1.00  0.00     0.210 C 
ENDBRANCH  31  35
ENDBRANCH  26  27
ENDBRANCH  24  26
ENDBRANCH  23  24
ENDBRANCH  22  23
ENDBRANCH  12  22
BRANCH  14  37
HETATM   37  O   UNL     1     -23.335 -10.739  -1.368  1.00  0.00    -0.381 OA
HETATM   38  H   UNL     1     -23.952 -11.228  -1.952  1.00  0.00     0.211 HD
ENDBRANCH  14  37
BRANCH   1  39
HETATM   39  C   UNL     1     -19.207 -13.121  -7.417  1.00  0.00    -0.056 C 
HETATM   40  C   UNL     1     -18.817 -14.333  -7.052  1.00  0.00     0.017 C 
HETATM   41  C   UNL     1     -19.242 -13.068  -8.994  1.00  0.00     0.046 C 
ENDBRANCH   1  39
BRANCH   7  42
HETATM   42  C   UNL     1     -17.438 -11.920  -4.868  1.00  0.00     0.140 C 
BRANCH  42  43
HETATM   43  C   UNL     1     -16.103 -12.036  -5.328  1.00  0.00    -0.051 A 
HETATM   44  C   UNL     1     -15.724 -12.014  -6.639  1.00  0.00     0.007 A 
HETATM   45  C   UNL     1     -14.388 -12.186  -6.874  1.00  0.00     0.001 A 
HETATM   46  C   UNL     1     -13.501 -12.331  -5.775  1.00  0.00     0.000 A 
HETATM   47  C   UNL     1     -13.975 -12.316  -4.459  1.00  0.00     0.001 A 
HETATM   48  C   UNL     1     -15.263 -12.191  -4.209  1.00  0.00     0.007 A 
ENDBRANCH  42  43
ENDBRANCH   7  42
TORSDOF 11
ENDMDL
MODEL 5
REMARK VINA RESULT:      -9.8      1.450      1.761
REMARK  11 active torsions:
REMARK  status: ('A' for Active; 'I' for Inactive)
REMARK    1  A    between atoms: C_2  and  C_4 
REMARK    2  A    between atoms: C_10  and  C_11 
REMARK    3  A    between atoms: C_11  and  C_12 
REMARK    4  A    between atoms: C_22  and  C_23 
REMARK    5  A    between atoms: C_23  and  O_24 
REMARK    6  A    between atoms: O_24  and  C_25 
REMARK    7  A    between atoms: C_25  and  C_27 
REMARK    8  A    between atoms: C_27  and  C_28 
REMARK    9  A    between atoms: C_31  and  O_32 
REMARK   10  A    between atoms: C_33  and  O_34 
REMARK   11  A    between atoms: C_38  and  O_39 
ROOT
HETATM    1  C   UNL     1     -21.257 -12.628  -5.519  1.00  0.00     0.116 C 
HETATM    2  C   UNL     1     -22.591 -12.752  -4.874  1.00  0.00     0.053 C 
HETATM    3  C   UNL     1     -22.353 -12.165  -3.480  1.00  0.00     0.021 C 
HETATM    4  C   UNL     1     -21.682 -13.220  -2.501  1.00  0.00     0.013 C 
HETATM    5  C   UNL     1     -21.398 -10.930  -3.521  1.00  0.00     0.086 C 
HETATM    6  O   UNL     1     -20.083 -11.662  -3.940  1.00  0.00    -0.319 OA
HETATM    7  C   UNL     1     -19.570 -11.894  -5.662  1.00  0.00     0.288 C 
HETATM    8  O   UNL     1     -19.704 -10.764  -6.462  1.00  0.00    -0.323 OA
HETATM    9  C   UNL     1     -20.987 -10.708  -5.810  1.00  0.00     0.177 C 
HETATM   10  C   UNL     1     -21.284  -9.849  -4.535  1.00  0.00     0.077 C 
HETATM   11  C   UNL     1     -19.944  -8.999  -3.868  1.00  0.00    -0.011 C 
HETATM   12  C   UNL     1     -20.099  -7.798  -3.299  1.00  0.00    -0.056 C 
HETATM   13  C   UNL     1     -20.269  -7.923  -1.805  1.00  0.00     0.082 C 
HETATM   14  C   UNL     1     -21.619  -8.623  -1.627  1.00  0.00     0.128 C 
HETATM   15  C   UNL     1     -21.939  -8.750  -0.144  1.00  0.00     0.165 C 
HETATM   16  O   UNL     1     -21.908  -7.837   0.672  1.00  0.00    -0.294 OA
HETATM   17  C   UNL     1     -22.481 -10.105   0.181  1.00  0.00     0.055 C 
HETATM   18  C   UNL     1     -23.991 -10.000   0.264  1.00  0.00     0.018 C 
HETATM   19  C   UNL     1     -21.855 -10.837  -0.770  1.00  0.00     0.023 C 
HETATM   20  C   UNL     1     -21.828 -10.124  -2.111  1.00  0.00     0.065 C 
HETATM   21  O   UNL     1     -20.383 -12.656  -6.538  1.00  0.00    -0.314 OA
ENDROOT
BRANCH  12  22
HETATM   22  C   UNL     1     -20.871  -6.702  -3.965  1.00  0.00     0.212 C 
BRANCH  22  23
HETATM   23  O   UNL     1     -20.101  -6.200  -5.047  1.00  0.00    -0.317 OA
BRANCH  23  24
HETATM   24  C   UNL     1     -20.733  -6.181  -6.261  1.00  0.00     0.263 C 
HETATM   25  O   UNL     1     -21.121  -7.164  -6.875  1.00  0.00    -0.265 OA
BRANCH  24  26
HETATM   26  C   UNL     1     -20.846  -4.756  -6.715  1.00  0.00     0.149 C 
BRANCH  26  27
HETATM   27  C   UNL     1     -21.109  -4.623  -8.189  1.00  0.00    -0.046 A 
HETATM   28  C   UNL     1     -20.059  -4.584  -9.110  1.00  0.00     0.010 A 
HETATM   29  C   UNL     1     -20.333  -4.463 -10.470  1.00  0.00     0.040 A 
HETATM   30  C   UNL     1     -21.651  -4.384 -10.933  1.00  0.00     0.099 A 
HETATM   31  C   UNL     1     -22.713  -4.462 -10.027  1.00  0.00     0.101 A 
HETATM   32  C   UNL     1     -22.434  -4.559  -8.668  1.00  0.00     0.047 A 
BRANCH  30  33
HETATM   33  O   UNL     1     -21.862  -4.210 -12.268  1.00  0.00    -0.358 OA
HETATM   34  H   UNL     1     -21.319  -4.838 -12.771  1.00  0.00     0.217 HD
ENDBRANCH  30  33
BRANCH  31  35
HETATM   35  O   UNL     1     -24.050  -4.392 -10.319  1.00  0.00    -0.353 OA
HETATM   36  C   UNL     1     -24.775  -3.349  -9.680  1.00  0.00     0.210 C 
ENDBRANCH  31  35
ENDBRANCH  26  27
ENDBRANCH  24  26
ENDBRANCH  23  24
ENDBRANCH  22  23
ENDBRANCH  12  22
BRANCH  14  37
HETATM   37  O   UNL     1     -22.697  -7.788  -2.127  1.00  0.00    -0.381 OA
HETATM   38  H   UNL     1     -22.912  -7.152  -1.413  1.00  0.00     0.211 HD
ENDBRANCH  14  37
BRANCH   1  39
HETATM   39  C   UNL     1     -20.918 -14.284  -5.861  1.00  0.00    -0.056 C 
HETATM   40  C   UNL     1     -20.276 -15.022  -4.968  1.00  0.00     0.017 C 
HETATM   41  C   UNL     1     -21.661 -15.254  -6.861  1.00  0.00     0.046 C 
ENDBRANCH   1  39
BRANCH   7  42
HETATM   42  C   UNL     1     -18.337 -12.329  -5.094  1.00  0.00     0.140 C 
BRANCH  42  43
HETATM   43  C   UNL     1     -16.985 -12.157  -5.476  1.00  0.00    -0.051 A 
HETATM   44  C   UNL     1     -16.516 -12.245  -6.755  1.00  0.00     0.007 A 
HETATM   45  C   UNL     1     -15.167 -12.089  -6.906  1.00  0.00     0.001 A 
HETATM   46  C   UNL     1     -14.366 -11.814  -5.766  1.00  0.00     0.000 A 
HETATM   47  C   UNL     1     -14.935 -11.715  -4.492  1.00  0.00     0.001 A 
HETATM   48  C   UNL     1     -16.228 -11.900  -4.316  1.00  0.00     0.007 A 
ENDBRANCH  42  43
ENDBRANCH   7  42
TORSDOF 11
ENDMDL
MODEL 6
REMARK VINA RESULT:      -9.7      1.668      2.356
REMARK  11 active torsions:
REMARK  status: ('A' for Active; 'I' for Inactive)
REMARK    1  A    between atoms: C_2  and  C_4 
REMARK    2  A    between atoms: C_10  and  C_11 
REMARK    3  A    between atoms: C_11  and  C_12 
REMARK    4  A    between atoms: C_22  and  C_23 
REMARK    5  A    between atoms: C_23  and  O_24 
REMARK    6  A    between atoms: O_24  and  C_25 
REMARK    7  A    between atoms: C_25  and  C_27 
REMARK    8  A    between atoms: C_27  and  C_28 
REMARK    9  A    between atoms: C_31  and  O_32 
REMARK   10  A    between atoms: C_33  and  O_34 
REMARK   11  A    between atoms: C_38  and  O_39 
ROOT
HETATM    1  C   UNL     1     -19.416 -13.455  -2.744  1.00  0.00     0.116 C 
HETATM    2  C   UNL     1     -20.747 -13.527  -2.086  1.00  0.00     0.053 C 
HETATM    3  C   UNL     1     -20.860 -12.169  -1.389  1.00  0.00     0.021 C 
HETATM    4  C   UNL     1     -20.078 -12.148  -0.006  1.00  0.00     0.013 C 
HETATM    5  C   UNL     1     -20.258 -11.016  -2.254  1.00  0.00     0.086 C 
HETATM    6  O   UNL     1     -18.755 -11.437  -2.197  1.00  0.00    -0.319 OA
HETATM    7  C   UNL     1     -17.972 -12.524  -3.416  1.00  0.00     0.288 C 
HETATM    8  O   UNL     1     -18.283 -12.227  -4.739  1.00  0.00    -0.323 OA
HETATM    9  C   UNL     1     -19.613 -12.149  -4.192  1.00  0.00     0.177 C 
HETATM   10  C   UNL     1     -20.290 -10.816  -3.727  1.00  0.00     0.077 C 
HETATM   11  C   UNL     1     -19.317  -9.400  -3.824  1.00  0.00    -0.011 C 
HETATM   12  C   UNL     1     -19.852  -8.211  -4.129  1.00  0.00    -0.056 C 
HETATM   13  C   UNL     1     -20.184  -7.430  -2.882  1.00  0.00     0.082 C 
HETATM   14  C   UNL     1     -21.319  -8.218  -2.223  1.00  0.00     0.128 C 
HETATM   15  C   UNL     1     -21.794  -7.487  -0.974  1.00  0.00     0.165 C 
HETATM   16  O   UNL     1     -22.109  -6.305  -0.917  1.00  0.00    -0.294 OA
HETATM   17  C   UNL     1     -22.006  -8.435   0.162  1.00  0.00     0.055 C 
HETATM   18  C   UNL     1     -23.490  -8.736   0.251  1.00  0.00     0.018 C 
HETATM   19  C   UNL     1     -21.091  -9.380  -0.152  1.00  0.00     0.023 C 
HETATM   20  C   UNL     1     -21.068  -9.677  -1.642  1.00  0.00     0.065 C 
HETATM   21  O   UNL     1     -18.435 -13.856  -3.568  1.00  0.00    -0.314 OA
ENDROOT
BRANCH  12  22
HETATM   22  C   UNL     1     -20.783  -8.038  -5.288  1.00  0.00     0.212 C 
BRANCH  22  23
HETATM   23  O   UNL     1     -20.479  -6.808  -5.931  1.00  0.00    -0.317 OA
BRANCH  23  24
HETATM   24  C   UNL     1     -21.433  -5.833  -5.821  1.00  0.00     0.263 C 
HETATM   25  O   UNL     1     -22.532  -5.970  -5.302  1.00  0.00    -0.265 OA
BRANCH  24  26
HETATM   26  C   UNL     1     -20.911  -4.583  -6.462  1.00  0.00     0.149 C 
BRANCH  26  27
HETATM   27  C   UNL     1     -21.153  -4.532  -7.945  1.00  0.00    -0.046 A 
HETATM   28  C   UNL     1     -20.089  -4.463  -8.849  1.00  0.00     0.010 A 
HETATM   29  C   UNL     1     -20.344  -4.420 -10.217  1.00  0.00     0.040 A 
HETATM   30  C   UNL     1     -21.654  -4.449 -10.706  1.00  0.00     0.099 A 
HETATM   31  C   UNL     1     -22.727  -4.559  -9.815  1.00  0.00     0.101 A 
HETATM   32  C   UNL     1     -22.469  -4.578  -8.449  1.00  0.00     0.047 A 
BRANCH  30  33
HETATM   33  O   UNL     1     -21.850  -4.348 -12.050  1.00  0.00    -0.358 OA
HETATM   34  H   UNL     1     -21.457  -3.523 -12.378  1.00  0.00     0.217 HD
ENDBRANCH  30  33
BRANCH  31  35
HETATM   35  O   UNL     1     -24.060  -4.591 -10.133  1.00  0.00    -0.353 OA
HETATM   36  C   UNL     1     -24.738  -3.342 -10.109  1.00  0.00     0.210 C 
ENDBRANCH  31  35
ENDBRANCH  26  27
ENDBRANCH  24  26
ENDBRANCH  23  24
ENDBRANCH  22  23
ENDBRANCH  12  22
BRANCH  14  37
HETATM   37  O   UNL     1     -22.498  -8.220  -3.072  1.00  0.00    -0.381 OA
HETATM   38  H   UNL     1     -23.255  -7.976  -2.499  1.00  0.00     0.211 HD
ENDBRANCH  14  37
BRANCH   1  39
HETATM   39  C   UNL     1     -18.619 -14.784  -1.987  1.00  0.00    -0.056 C 
HETATM   40  C   UNL     1     -18.260 -14.699  -0.716  1.00  0.00     0.017 C 
HETATM   41  C   UNL     1     -18.656 -16.310  -2.389  1.00  0.00     0.046 C 
ENDBRANCH   1  39
BRANCH   7  42
HETATM   42  C   UNL     1     -16.757 -12.142  -2.776  1.00  0.00     0.140 C 
BRANCH  42  43
HETATM   43  C   UNL     1     -15.407 -12.532  -2.956  1.00  0.00    -0.051 A 
HETATM   44  C   UNL     1     -14.613 -12.143  -3.995  1.00  0.00     0.007 A 
HETATM   45  C   UNL     1     -13.350 -12.667  -4.006  1.00  0.00     0.001 A 
HETATM   46  C   UNL     1     -12.942 -13.524  -2.949  1.00  0.00     0.000 A 
HETATM   47  C   UNL     1     -13.816 -13.849  -1.908  1.00  0.00     0.001 A 
HETATM   48  C   UNL     1     -15.051 -13.388  -1.895  1.00  0.00     0.007 A 
ENDBRANCH  42  43
ENDBRANCH   7  42
TORSDOF 11
ENDMDL
MODEL 7
REMARK VINA RESULT:      -9.6      2.433      3.470
REMARK  11 active torsions:
REMARK  status: ('A' for Active; 'I' for Inactive)
REMARK    1  A    between atoms: C_2  and  C_4 
REMARK    2  A    between atoms: C_10  and  C_11 
REMARK    3  A    between atoms: C_11  and  C_12 
REMARK    4  A    between atoms: C_22  and  C_23 
REMARK    5  A    between atoms: C_23  and  O_24 
REMARK    6  A    between atoms: O_24  and  C_25 
REMARK    7  A    between atoms: C_25  and  C_27 
REMARK    8  A    between atoms: C_27  and  C_28 
REMARK    9  A    between atoms: C_31  and  O_32 
REMARK   10  A    between atoms: C_33  and  O_34 
REMARK   11  A    between atoms: C_38  and  O_39 
ROOT
HETATM    1  C   UNL     1     -18.232 -14.085  -2.075  1.00  0.00     0.116 C 
HETATM    2  C   UNL     1     -19.664 -14.471  -1.976  1.00  0.00     0.053 C 
HETATM    3  C   UNL     1     -20.285 -13.295  -1.217  1.00  0.00     0.021 C 
HETATM    4  C   UNL     1     -20.051 -13.414   0.350  1.00  0.00     0.013 C 
HETATM    5  C   UNL     1     -19.669 -11.928  -1.653  1.00  0.00     0.086 C 
HETATM    6  O   UNL     1     -18.226 -12.127  -1.088  1.00  0.00    -0.319 OA
HETATM    7  C   UNL     1     -16.865 -12.845  -2.045  1.00  0.00     0.288 C 
HETATM    8  O   UNL     1     -16.753 -12.359  -3.343  1.00  0.00    -0.323 OA
HETATM    9  C   UNL     1     -18.177 -12.578  -3.328  1.00  0.00     0.177 C 
HETATM   10  C   UNL     1     -19.229 -11.467  -2.996  1.00  0.00     0.077 C 
HETATM   11  C   UNL     1     -18.592  -9.931  -2.556  1.00  0.00    -0.011 C 
HETATM   12  C   UNL     1     -19.218  -8.798  -2.897  1.00  0.00    -0.056 C 
HETATM   13  C   UNL     1     -20.113  -8.315  -1.782  1.00  0.00     0.082 C 
HETATM   14  C   UNL     1     -21.220  -9.369  -1.692  1.00  0.00     0.128 C 
HETATM   15  C   UNL     1     -22.235  -8.957  -0.635  1.00  0.00     0.165 C 
HETATM   16  O   UNL     1     -22.784  -7.865  -0.561  1.00  0.00    -0.294 OA
HETATM   17  C   UNL     1     -22.630 -10.118   0.220  1.00  0.00     0.055 C 
HETATM   18  C   UNL     1     -23.959 -10.645  -0.288  1.00  0.00     0.018 C 
HETATM   19  C   UNL     1     -21.491 -10.845   0.162  1.00  0.00     0.023 C 
HETATM   20  C   UNL     1     -20.894 -10.857  -1.235  1.00  0.00     0.065 C 
HETATM   21  O   UNL     1     -16.967 -14.180  -2.514  1.00  0.00    -0.314 OA
ENDROOT
BRANCH  12  22
HETATM   22  C   UNL     1     -19.705  -8.552  -4.291  1.00  0.00     0.212 C 
BRANCH  22  23
HETATM   23  O   UNL     1     -20.414  -7.322  -4.311  1.00  0.00    -0.317 OA
BRANCH  23  24
HETATM   24  C   UNL     1     -20.890  -6.936  -5.535  1.00  0.00     0.263 C 
HETATM   25  O   UNL     1     -21.279  -7.689  -6.415  1.00  0.00    -0.265 OA
BRANCH  24  26
HETATM   26  C   UNL     1     -20.832  -5.440  -5.616  1.00  0.00     0.149 C 
BRANCH  26  27
HETATM   27  C   UNL     1     -20.969  -4.917  -7.019  1.00  0.00    -0.046 A 
HETATM   28  C   UNL     1     -19.879  -4.905  -7.895  1.00  0.00     0.010 A 
HETATM   29  C   UNL     1     -20.035  -4.417  -9.189  1.00  0.00     0.040 A 
HETATM   30  C   UNL     1     -21.273  -3.942  -9.634  1.00  0.00     0.099 A 
HETATM   31  C   UNL     1     -22.382  -3.986  -8.783  1.00  0.00     0.101 A 
HETATM   32  C   UNL     1     -22.216  -4.451  -7.484  1.00  0.00     0.047 A 
BRANCH  30  33
HETATM   33  O   UNL     1     -21.358  -3.425 -10.892  1.00  0.00    -0.358 OA
HETATM   34  H   UNL     1     -22.237  -3.038 -11.030  1.00  0.00     0.217 HD
ENDBRANCH  30  33
BRANCH  31  35
HETATM   35  O   UNL     1     -23.652  -3.554  -9.064  1.00  0.00    -0.353 OA
HETATM   36  C   UNL     1     -24.456  -4.438  -9.834  1.00  0.00     0.210 C 
ENDBRANCH  31  35
ENDBRANCH  26  27
ENDBRANCH  24  26
ENDBRANCH  23  24
ENDBRANCH  22  23
ENDBRANCH  12  22
BRANCH  14  37
HETATM   37  O   UNL     1     -22.006  -9.388  -2.914  1.00  0.00    -0.381 OA
HETATM   38  H   UNL     1     -22.558  -8.578  -2.904  1.00  0.00     0.211 HD
ENDBRANCH  14  37
BRANCH   1  39
HETATM   39  C   UNL     1     -17.493 -15.399  -1.237  1.00  0.00    -0.056 C 
HETATM   40  C   UNL     1     -17.939 -15.751  -0.041  1.00  0.00     0.017 C 
HETATM   41  C   UNL     1     -16.674 -16.609  -1.834  1.00  0.00     0.046 C 
ENDBRANCH   1  39
BRANCH   7  42
HETATM   42  C   UNL     1     -16.052 -12.414  -0.957  1.00  0.00     0.140 C 
BRANCH  42  43
HETATM   43  C   UNL     1     -15.534 -13.075   0.183  1.00  0.00    -0.051 A 
HETATM   44  C   UNL     1     -16.057 -12.991   1.441  1.00  0.00     0.007 A 
HETATM   45  C   UNL     1     -15.381 -13.673   2.413  1.00  0.00     0.001 A 
HETATM   46  C   UNL     1     -14.236 -14.437   2.060  1.00  0.00     0.000 A 
HETATM   47  C   UNL     1     -13.784 -14.488   0.738  1.00  0.00     0.001 A 
HETATM   48  C   UNL     1     -14.397 -13.807  -0.211  1.00  0.00     0.007 A 
ENDBRANCH  42  43
ENDBRANCH   7  42
TORSDOF 11
ENDMDL
MODEL 8
REMARK VINA RESULT:      -9.4      2.923      8.505
REMARK  11 active torsions:
REMARK  status: ('A' for Active; 'I' for Inactive)
REMARK    1  A    between atoms: C_2  and  C_4 
REMARK    2  A    between atoms: C_10  and  C_11 
REMARK    3  A    between atoms: C_11  and  C_12 
REMARK    4  A    between atoms: C_22  and  C_23 
REMARK    5  A    between atoms: C_23  and  O_24 
REMARK    6  A    between atoms: O_24  and  C_25 
REMARK    7  A    between atoms: C_25  and  C_27 
REMARK    8  A    between atoms: C_27  and  C_28 
REMARK    9  A    between atoms: C_31  and  O_32 
REMARK   10  A    between atoms: C_33  and  O_34 
REMARK   11  A    between atoms: C_38  and  O_39 
ROOT
HETATM    1  C   UNL     1     -20.641  -9.847  -1.207  1.00  0.00     0.116 C 
HETATM    2  C   UNL     1     -21.018 -11.191  -0.697  1.00  0.00     0.053 C 
HETATM    3  C   UNL     1     -21.714 -11.833  -1.900  1.00  0.00     0.021 C 
HETATM    4  C   UNL     1     -23.224 -11.360  -2.030  1.00  0.00     0.013 C 
HETATM    5  C   UNL     1     -21.016 -11.458  -3.246  1.00  0.00     0.086 C 
HETATM    6  O   UNL     1     -21.361  -9.935  -3.276  1.00  0.00    -0.319 OA
HETATM    7  C   UNL     1     -20.295  -8.652  -2.570  1.00  0.00     0.288 C 
HETATM    8  O   UNL     1     -18.945  -8.791  -2.875  1.00  0.00    -0.323 OA
HETATM    9  C   UNL     1     -19.217 -10.159  -2.517  1.00  0.00     0.177 C 
HETATM   10  C   UNL     1     -19.572 -11.279  -3.552  1.00  0.00     0.077 C 
HETATM   11  C   UNL     1     -19.708 -10.777  -5.192  1.00  0.00    -0.011 C 
HETATM   12  C   UNL     1     -19.333 -11.579  -6.196  1.00  0.00    -0.056 C 
HETATM   13  C   UNL     1     -20.508 -12.353  -6.739  1.00  0.00     0.082 C 
HETATM   14  C   UNL     1     -20.907 -13.299  -5.603  1.00  0.00     0.128 C 
HETATM   15  C   UNL     1     -22.054 -14.192  -6.057  1.00  0.00     0.165 C 
HETATM   16  O   UNL     1     -22.077 -14.853  -7.088  1.00  0.00    -0.294 OA
HETATM   17  C   UNL     1     -23.100 -14.313  -4.996  1.00  0.00     0.055 C 
HETATM   18  C   UNL     1     -22.882 -15.628  -4.271  1.00  0.00     0.018 C 
HETATM   19  C   UNL     1     -22.951 -13.114  -4.387  1.00  0.00     0.023 C 
HETATM   20  C   UNL     1     -21.489 -12.731  -4.237  1.00  0.00     0.065 C 
HETATM   21  O   UNL     1     -20.020  -8.657  -1.179  1.00  0.00    -0.314 OA
ENDROOT
BRANCH  12  22
HETATM   22  C   UNL     1     -18.016 -12.291  -6.189  1.00  0.00     0.212 C 
BRANCH  22  23
HETATM   23  O   UNL     1     -16.995 -11.346  -5.906  1.00  0.00    -0.317 OA
BRANCH  23  24
HETATM   24  C   UNL     1     -15.865 -11.856  -5.323  1.00  0.00     0.263 C 
HETATM   25  O   UNL     1     -14.725 -11.460  -5.517  1.00  0.00    -0.265 OA
BRANCH  24  26
HETATM   26  C   UNL     1     -16.264 -12.992  -4.429  1.00  0.00     0.149 C 
BRANCH  26  27
HETATM   27  C   UNL     1     -16.256 -12.628  -2.970  1.00  0.00    -0.046 A 
HETATM   28  C   UNL     1     -15.729 -11.409  -2.533  1.00  0.00     0.010 A 
HETATM   29  C   UNL     1     -15.737 -11.098  -1.176  1.00  0.00     0.040 A 
HETATM   30  C   UNL     1     -16.274 -11.986  -0.238  1.00  0.00     0.099 A 
HETATM   31  C   UNL     1     -16.842 -13.191  -0.664  1.00  0.00     0.101 A 
HETATM   32  C   UNL     1     -16.809 -13.508  -2.018  1.00  0.00     0.047 A 
BRANCH  30  33
HETATM   33  O   UNL     1     -16.207 -11.657   1.083  1.00  0.00    -0.358 OA
HETATM   34  H   UNL     1     -16.830 -10.938   1.275  1.00  0.00     0.217 HD
ENDBRANCH  30  33
BRANCH  31  35
HETATM   35  O   UNL     1     -17.397 -14.164   0.124  1.00  0.00    -0.353 OA
HETATM   36  C   UNL     1     -18.808 -14.107   0.287  1.00  0.00     0.210 C 
ENDBRANCH  31  35
ENDBRANCH  26  27
ENDBRANCH  24  26
ENDBRANCH  23  24
ENDBRANCH  22  23
ENDBRANCH  12  22
BRANCH  14  37
HETATM   37  O   UNL     1     -19.840 -14.246  -5.331  1.00  0.00    -0.381 OA
HETATM   38  H   UNL     1     -19.242 -14.225  -6.107  1.00  0.00     0.211 HD
ENDBRANCH  14  37
BRANCH   1  39
HETATM   39  C   UNL     1     -21.507  -8.839  -0.107  1.00  0.00    -0.056 C 
HETATM   40  C   UNL     1     -22.792  -8.594  -0.311  1.00  0.00     0.017 C 
HETATM   41  C   UNL     1     -21.178  -8.524   1.405  1.00  0.00     0.046 C 
ENDBRANCH   1  39
BRANCH   7  42
HETATM   42  C   UNL     1     -21.175  -7.747  -3.232  1.00  0.00     0.140 C 
BRANCH  42  43
HETATM   43  C   UNL     1     -21.062  -6.989  -4.423  1.00  0.00    -0.051 A 
HETATM   44  C   UNL     1     -21.322  -7.461  -5.677  1.00  0.00     0.007 A 
HETATM   45  C   UNL     1     -21.110  -6.578  -6.700  1.00  0.00     0.001 A 
HETATM   46  C   UNL     1     -20.687  -5.255  -6.401  1.00  0.00     0.000 A 
HETATM   47  C   UNL     1     -20.469  -4.849  -5.081  1.00  0.00     0.001 A 
HETATM   48  C   UNL     1     -20.629  -5.693  -4.081  1.00  0.00     0.007 A 
ENDBRANCH  42  43
ENDBRANCH   7  42
TORSDOF 11
ENDMDL
MODEL 9
REMARK VINA RESULT:      -8.9      3.316      7.876
REMARK  11 active torsions:
REMARK  status: ('A' for Active; 'I' for Inactive)
REMARK    1  A    between atoms: C_2  and  C_4 
REMARK    2  A    between atoms: C_10  and  C_11 
REMARK    3  A    between atoms: C_11  and  C_12 
REMARK    4  A    between atoms: C_22  and  C_23 
REMARK    5  A    between atoms: C_23  and  O_24 
REMARK    6  A    between atoms: O_24  and  C_25 
REMARK    7  A    between atoms: C_25  and  C_27 
REMARK    8  A    between atoms: C_27  and  C_28 
REMARK    9  A    between atoms: C_31  and  O_32 
REMARK   10  A    between atoms: C_33  and  O_34 
REMARK   11  A    between atoms: C_38  and  O_39 
ROOT
HETATM    1  C   UNL     1     -20.898 -10.701  -0.214  1.00  0.00     0.116 C 
HETATM    2  C   UNL     1     -21.299 -11.680   0.830  1.00  0.00     0.053 C 
HETATM    3  C   UNL     1     -22.421 -12.468   0.148  1.00  0.00     0.021 C 
HETATM    4  C   UNL     1     -23.808 -11.696   0.212  1.00  0.00     0.013 C 
HETATM    5  C   UNL     1     -22.123 -12.718  -1.364  1.00  0.00     0.086 C 
HETATM    6  O   UNL     1     -22.224 -11.245  -1.872  1.00  0.00    -0.319 OA
HETATM    7  C   UNL     1     -20.810 -10.116  -1.962  1.00  0.00     0.288 C 
HETATM    8  O   UNL     1     -19.657 -10.677  -2.502  1.00  0.00    -0.323 OA
HETATM    9  C   UNL     1     -20.011 -11.752  -1.611  1.00  0.00     0.177 C 
HETATM   10  C   UNL     1     -20.834 -13.011  -2.045  1.00  0.00     0.077 C 
HETATM   11  C   UNL     1     -21.390 -13.027  -3.673  1.00  0.00    -0.011 C 
HETATM   12  C   UNL     1     -21.470 -14.168  -4.367  1.00  0.00    -0.056 C 
HETATM   13  C   UNL     1     -22.859 -14.753  -4.294  1.00  0.00     0.082 C 
HETATM   14  C   UNL     1     -23.028 -15.166  -2.829  1.00  0.00     0.128 C 
HETATM   15  C   UNL     1     -24.381 -15.838  -2.639  1.00  0.00     0.165 C 
HETATM   16  O   UNL     1     -24.821 -16.758  -3.315  1.00  0.00    -0.294 OA
HETATM   17  C   UNL     1     -25.055 -15.357  -1.394  1.00  0.00     0.055 C 
HETATM   18  C   UNL     1     -24.828 -16.391  -0.307  1.00  0.00     0.018 C 
HETATM   19  C   UNL     1     -24.544 -14.105  -1.324  1.00  0.00     0.023 C 
HETATM   20  C   UNL     1     -23.066 -14.074  -1.674  1.00  0.00     0.065 C 
HETATM   21  O   UNL     1     -20.123  -9.758  -0.774  1.00  0.00    -0.314 OA
ENDROOT
BRANCH  12  22
HETATM   22  C   UNL     1     -20.340 -15.150  -4.408  1.00  0.00     0.212 C 
BRANCH  22  23
HETATM   23  O   UNL     1     -19.420 -14.737  -5.408  1.00  0.00    -0.317 OA
BRANCH  23  24
HETATM   24  C   UNL     1     -19.783 -15.021  -6.697  1.00  0.00     0.263 C 
HETATM   25  O   UNL     1     -20.021 -16.136  -7.138  1.00  0.00    -0.265 OA
BRANCH  24  26
HETATM   26  C   UNL     1     -19.819 -13.739  -7.473  1.00  0.00     0.149 C 
BRANCH  26  27
HETATM   27  C   UNL     1     -18.862 -12.704  -6.951  1.00  0.00    -0.046 A 
HETATM   28  C   UNL     1     -19.323 -11.569  -6.278  1.00  0.00     0.010 A 
HETATM   29  C   UNL     1     -18.414 -10.627  -5.802  1.00  0.00     0.040 A 
HETATM   30  C   UNL     1     -17.038 -10.802  -5.982  1.00  0.00     0.099 A 
HETATM   31  C   UNL     1     -16.559 -11.953  -6.617  1.00  0.00     0.101 A 
HETATM   32  C   UNL     1     -17.472 -12.878  -7.112  1.00  0.00     0.047 A 
BRANCH  30  33
HETATM   33  O   UNL     1     -16.196  -9.824  -5.547  1.00  0.00    -0.358 OA
HETATM   34  H   UNL     1     -15.780  -9.385  -6.306  1.00  0.00     0.217 HD
ENDBRANCH  30  33
BRANCH  31  35
HETATM   35  O   UNL     1     -15.251 -12.265  -6.876  1.00  0.00    -0.353 OA
HETATM   36  C   UNL     1     -14.572 -12.999  -5.866  1.00  0.00     0.210 C 
ENDBRANCH  31  35
ENDBRANCH  26  27
ENDBRANCH  24  26
ENDBRANCH  23  24
ENDBRANCH  22  23
ENDBRANCH  12  22
BRANCH  14  37
HETATM   37  O   UNL     1     -22.086 -16.218  -2.485  1.00  0.00    -0.381 OA
HETATM   38  H   UNL     1     -21.767 -16.022  -1.580  1.00  0.00     0.211 HD
ENDBRANCH  14  37
BRANCH   1  39
HETATM   39  C   UNL     1     -21.218  -9.218   0.606  1.00  0.00    -0.056 C 
HETATM   40  C   UNL     1     -22.380  -8.607   0.431  1.00  0.00     0.017 C 
HETATM   41  C   UNL     1     -20.566  -8.668   1.935  1.00  0.00     0.046 C 
ENDBRANCH   1  39
BRANCH   7  42
HETATM   42  C   UNL     1     -21.701  -9.272  -2.685  1.00  0.00     0.140 C 
BRANCH  42  43
HETATM   43  C   UNL     1     -21.503  -8.132  -3.502  1.00  0.00    -0.051 A 
HETATM   44  C   UNL     1     -21.373  -6.854  -3.042  1.00  0.00     0.007 A 
HETATM   45  C   UNL     1     -21.231  -5.889  -4.000  1.00  0.00     0.001 A 
HETATM   46  C   UNL     1     -21.189  -6.267  -5.369  1.00  0.00     0.000 A 
HETATM   47  C   UNL     1     -21.304  -7.608  -5.749  1.00  0.00     0.001 A 
HETATM   48  C   UNL     1     -21.480  -8.552  -4.846  1.00  0.00     0.007 A 
ENDBRANCH  42  43
ENDBRANCH   7  42
TORSDOF 11
ENDMDL
