MODEL 1
REMARK VINA RESULT:     -10.1      0.000      0.000
REMARK  11 active torsions:
REMARK  status: ('A' for Active; 'I' for Inactive)
REMARK    1  A    between atoms: C_2  and  C_4 
REMARK    2  A    between atoms: C_10  and  C_11 
REMARK    3  A    between atoms: C_11  and  C_12 
REMARK    4  A    between atoms: C_22  and  C_23 
REMARK    5  A    between atoms: C_23  and  O_24 
REMARK    6  A    between atoms: O_24  and  C_25 
REMARK    7  A    between atoms: C_25  and  C_27 
REMARK    8  A    between atoms: C_27  and  C_28 
REMARK    9  A    between atoms: C_31  and  O_32 
REMARK   10  A    between atoms: C_33  and  O_34 
REMARK   11  A    between atoms: C_38  and  O_39 
ROOT
HETATM    1  C   UNL     1     -21.318 -13.424  -5.774  1.00  0.00     0.116 C 
HETATM    2  C   UNL     1     -22.503 -13.241  -4.842  1.00  0.00     0.053 C 
HETATM    3  C   UNL     1     -21.998 -12.718  -3.523  1.00  0.00     0.020 C 
HETATM    4  C   UNL     1     -21.386 -13.822  -2.623  1.00  0.00     0.013 C 
HETATM    5  C   UNL     1     -21.049 -11.466  -3.762  1.00  0.00     0.083 C 
HETATM    6  O   UNL     1     -19.660 -11.889  -3.768  1.00  0.00    -0.320 OA
HETATM    7  C   UNL     1     -19.291 -12.699  -4.968  1.00  0.00     0.288 C 
HETATM    8  O   UNL     1     -19.491 -12.043  -6.227  1.00  0.00    -0.323 OA
HETATM    9  C   UNL     1     -20.914 -11.957  -6.242  1.00  0.00     0.173 C 
HETATM   10  C   UNL     1     -21.178 -10.788  -5.164  1.00  0.00     0.054 C 
HETATM   11  C   UNL     1     -20.097  -9.608  -5.302  1.00  0.00     0.017 C 
HETATM   12  C   UNL     1     -20.089  -8.492  -4.536  1.00  0.00     0.014 C 
HETATM   13  C   UNL     1     -19.890  -8.568  -3.033  1.00  0.00     0.053 C 
HETATM   14  C   UNL     1     -21.191  -9.044  -2.438  1.00  0.00     0.125 C 
HETATM   15  C   UNL     1     -21.305  -8.898  -0.927  1.00  0.00     0.165 C 
HETATM   16  O   UNL     1     -21.094  -7.860  -0.298  1.00  0.00    -0.294 OA
HETATM   17  C   UNL     1     -21.922 -10.115  -0.297  1.00  0.00     0.055 C 
HETATM   18  C   UNL     1     -23.416  -9.883  -0.144  1.00  0.00     0.018 C 
HETATM   19  C   UNL     1     -21.461 -11.042  -1.174  1.00  0.00     0.023 C 
HETATM   20  C   UNL     1     -21.541 -10.513  -2.610  1.00  0.00     0.064 C 
HETATM   21  O   UNL     1     -20.133 -13.825  -5.001  1.00  0.00    -0.314 OA
ENDROOT
BRANCH  12  22
HETATM   22  C   UNL     1     -20.673  -7.201  -5.043  1.00  0.00     0.183 C 
BRANCH  22  23
HETATM   23  O   UNL     1     -20.039  -6.833  -6.270  1.00  0.00    -0.321 OA
BRANCH  23  24
HETATM   24  C   UNL     1     -20.038  -5.500  -6.558  1.00  0.00     0.263 C 
HETATM   25  O   UNL     1     -19.082  -4.744  -6.436  1.00  0.00    -0.265 OA
BRANCH  24  26
HETATM   26  C   UNL     1     -21.395  -5.092  -7.078  1.00  0.00     0.149 C 
BRANCH  26  27
HETATM   27  C   UNL     1     -21.396  -4.688  -8.532  1.00  0.00    -0.046 A 
HETATM   28  C   UNL     1     -20.261  -4.868  -9.331  1.00  0.00     0.010 A 
HETATM   29  C   UNL     1     -20.287  -4.523 -10.680  1.00  0.00     0.040 A 
HETATM   30  C   UNL     1     -21.444  -4.008 -11.261  1.00  0.00     0.099 A 
HETATM   31  C   UNL     1     -22.606  -3.823 -10.486  1.00  0.00     0.101 A 
HETATM   32  C   UNL     1     -22.554  -4.167  -9.125  1.00  0.00     0.047 A 
BRANCH  30  33
HETATM   33  O   UNL     1     -21.421  -3.692 -12.591  1.00  0.00    -0.358 OA
HETATM   34  H   UNL     1     -21.637  -2.750 -12.694  1.00  0.00     0.217 HD
ENDBRANCH  30  33
BRANCH  31  35
HETATM   35  O   UNL     1     -23.824  -3.362 -10.878  1.00  0.00    -0.353 OA
HETATM   36  C   UNL     1     -24.875  -3.327  -9.921  1.00  0.00     0.210 C 
ENDBRANCH  31  35
ENDBRANCH  26  27
ENDBRANCH  24  26
ENDBRANCH  23  24
ENDBRANCH  22  23
ENDBRANCH  12  22
BRANCH  14  37
HETATM   37  O   UNL     1     -22.303  -8.246  -2.919  1.00  0.00    -0.382 OA
HETATM   38  H   UNL     1     -22.641  -8.714  -3.710  1.00  0.00     0.211 HD
ENDBRANCH  14  37
BRANCH   1  39
HETATM   39  C   UNL     1     -21.669 -14.701  -6.569  1.00  0.00    -0.056 C 
HETATM   40  C   UNL     1     -20.684 -15.576  -6.893  1.00  0.00     0.017 C 
HETATM   41  C   UNL     1     -23.079 -15.194  -6.728  1.00  0.00     0.046 C 
ENDBRANCH   1  39
BRANCH   7  42
HETATM   42  C   UNL     1     -17.789 -12.977  -4.834  1.00  0.00     0.140 C 
BRANCH  42  43
HETATM   43  C   UNL     1     -16.860 -11.992  -4.153  1.00  0.00    -0.051 A 
HETATM   44  C   UNL     1     -16.561 -10.770  -4.781  1.00  0.00     0.007 A 
HETATM   45  C   UNL     1     -16.024  -9.708  -4.049  1.00  0.00     0.001 A 
HETATM   46  C   UNL     1     -15.760  -9.864  -2.691  1.00  0.00     0.000 A 
HETATM   47  C   UNL     1     -15.966 -11.099  -2.081  1.00  0.00     0.001 A 
HETATM   48  C   UNL     1     -16.501 -12.161  -2.812  1.00  0.00     0.007 A 
ENDBRANCH  42  43
ENDBRANCH   7  42
TORSDOF 11
ENDMDL
MODEL 2
REMARK VINA RESULT:     -10.0      1.596      2.232
REMARK  11 active torsions:
REMARK  status: ('A' for Active; 'I' for Inactive)
REMARK    1  A    between atoms: C_2  and  C_4 
REMARK    2  A    between atoms: C_10  and  C_11 
REMARK    3  A    between atoms: C_11  and  C_12 
REMARK    4  A    between atoms: C_22  and  C_23 
REMARK    5  A    between atoms: C_23  and  O_24 
REMARK    6  A    between atoms: O_24  and  C_25 
REMARK    7  A    between atoms: C_25  and  C_27 
REMARK    8  A    between atoms: C_27  and  C_28 
REMARK    9  A    between atoms: C_31  and  O_32 
REMARK   10  A    between atoms: C_33  and  O_34 
REMARK   11  A    between atoms: C_38  and  O_39 
ROOT
HETATM    1  C   UNL     1     -19.020 -12.565  -5.770  1.00  0.00     0.116 C 
HETATM    2  C   UNL     1     -20.097 -13.081  -4.832  1.00  0.00     0.053 C 
HETATM    3  C   UNL     1     -19.864 -12.495  -3.465  1.00  0.00     0.020 C 
HETATM    4  C   UNL     1     -18.745 -13.221  -2.673  1.00  0.00     0.013 C 
HETATM    5  C   UNL     1     -19.673 -10.921  -3.574  1.00  0.00     0.083 C 
HETATM    6  O   UNL     1     -18.259 -10.592  -3.612  1.00  0.00    -0.320 OA
HETATM    7  C   UNL     1     -17.589 -11.000  -4.882  1.00  0.00     0.288 C 
HETATM    8  O   UNL     1     -18.143 -10.424  -6.073  1.00  0.00    -0.323 OA
HETATM    9  C   UNL     1     -19.419 -11.058  -6.089  1.00  0.00     0.173 C 
HETATM   10  C   UNL     1     -20.183 -10.277  -4.904  1.00  0.00     0.054 C 
HETATM   11  C   UNL     1     -19.839  -8.708  -4.918  1.00  0.00     0.017 C 
HETATM   12  C   UNL     1     -20.353  -7.810  -4.047  1.00  0.00     0.014 C 
HETATM   13  C   UNL     1     -20.078  -7.908  -2.557  1.00  0.00     0.053 C 
HETATM   14  C   UNL     1     -20.943  -9.021  -2.020  1.00  0.00     0.125 C 
HETATM   15  C   UNL     1     -21.050  -9.084  -0.503  1.00  0.00     0.165 C 
HETATM   16  O   UNL     1     -21.356  -8.140   0.226  1.00  0.00    -0.294 OA
HETATM   17  C   UNL     1     -20.953 -10.497   0.001  1.00  0.00     0.055 C 
HETATM   18  C   UNL     1     -22.356 -11.056   0.166  1.00  0.00     0.018 C 
HETATM   19  C   UNL     1     -20.130 -10.989  -0.960  1.00  0.00     0.023 C 
HETATM   20  C   UNL     1     -20.524 -10.447  -2.338  1.00  0.00     0.064 C 
HETATM   21  O   UNL     1     -17.760 -12.389  -5.032  1.00  0.00    -0.314 OA
ENDROOT
BRANCH  12  22
HETATM   22  C   UNL     1     -21.523  -6.943  -4.428  1.00  0.00     0.183 C 
BRANCH  22  23
HETATM   23  O   UNL     1     -21.054  -5.744  -5.050  1.00  0.00    -0.321 OA
BRANCH  23  24
HETATM   24  C   UNL     1     -21.147  -5.707  -6.409  1.00  0.00     0.263 C 
HETATM   25  O   UNL     1     -21.200  -6.683  -7.149  1.00  0.00    -0.265 OA
BRANCH  24  26
HETATM   26  C   UNL     1     -21.202  -4.272  -6.875  1.00  0.00     0.149 C 
BRANCH  26  27
HETATM   27  C   UNL     1     -21.299  -4.120  -8.373  1.00  0.00    -0.046 A 
HETATM   28  C   UNL     1     -20.179  -4.311  -9.192  1.00  0.00     0.010 A 
HETATM   29  C   UNL     1     -20.292  -4.201 -10.576  1.00  0.00     0.040 A 
HETATM   30  C   UNL     1     -21.519  -3.916 -11.170  1.00  0.00     0.099 A 
HETATM   31  C   UNL     1     -22.666  -3.726 -10.374  1.00  0.00     0.101 A 
HETATM   32  C   UNL     1     -22.528  -3.830  -8.981  1.00  0.00     0.047 A 
BRANCH  30  33
HETATM   33  O   UNL     1     -21.578  -3.826 -12.534  1.00  0.00    -0.358 OA
HETATM   34  H   UNL     1     -20.672  -3.797 -12.886  1.00  0.00     0.217 HD
ENDBRANCH  30  33
BRANCH  31  35
HETATM   35  O   UNL     1     -23.942  -3.468 -10.771  1.00  0.00    -0.353 OA
HETATM   36  C   UNL     1     -24.942  -3.308  -9.774  1.00  0.00     0.210 C 
ENDBRANCH  31  35
ENDBRANCH  26  27
ENDBRANCH  24  26
ENDBRANCH  23  24
ENDBRANCH  22  23
ENDBRANCH  12  22
BRANCH  14  37
HETATM   37  O   UNL     1     -22.325  -8.845  -2.428  1.00  0.00    -0.382 OA
HETATM   38  H   UNL     1     -22.406  -9.305  -3.289  1.00  0.00     0.211 HD
ENDBRANCH  14  37
BRANCH   1  39
HETATM   39  C   UNL     1     -18.723 -13.772  -6.688  1.00  0.00    -0.056 C 
HETATM   40  C   UNL     1     -19.712 -14.272  -7.471  1.00  0.00     0.017 C 
HETATM   41  C   UNL     1     -17.327 -14.224  -7.005  1.00  0.00     0.046 C 
ENDBRANCH   1  39
BRANCH   7  42
HETATM   42  C   UNL     1     -16.143 -10.502  -4.766  1.00  0.00     0.140 C 
BRANCH  42  43
HETATM   43  C   UNL     1     -14.971 -11.463  -4.792  1.00  0.00    -0.051 A 
HETATM   44  C   UNL     1     -14.557 -12.086  -3.601  1.00  0.00     0.007 A 
HETATM   45  C   UNL     1     -13.747 -13.223  -3.640  1.00  0.00     0.001 A 
HETATM   46  C   UNL     1     -13.325 -13.735  -4.864  1.00  0.00     0.000 A 
HETATM   47  C   UNL     1     -13.653 -13.071  -6.043  1.00  0.00     0.001 A 
HETATM   48  C   UNL     1     -14.462 -11.933  -6.006  1.00  0.00     0.007 A 
ENDBRANCH  42  43
ENDBRANCH   7  42
TORSDOF 11
ENDMDL
MODEL 3
REMARK VINA RESULT:     -10.0      1.810      5.128
REMARK  11 active torsions:
REMARK  status: ('A' for Active; 'I' for Inactive)
REMARK    1  A    between atoms: C_2  and  C_4 
REMARK    2  A    between atoms: C_10  and  C_11 
REMARK    3  A    between atoms: C_11  and  C_12 
REMARK    4  A    between atoms: C_22  and  C_23 
REMARK    5  A    between atoms: C_23  and  O_24 
REMARK    6  A    between atoms: O_24  and  C_25 
REMARK    7  A    between atoms: C_25  and  C_27 
REMARK    8  A    between atoms: C_27  and  C_28 
REMARK    9  A    between atoms: C_31  and  O_32 
REMARK   10  A    between atoms: C_33  and  O_34 
REMARK   11  A    between atoms: C_38  and  O_39 
ROOT
HETATM    1  C   UNL     1     -16.978 -12.482  -1.352  1.00  0.00     0.116 C 
HETATM    2  C   UNL     1     -16.722 -13.180  -2.676  1.00  0.00     0.053 C 
HETATM    3  C   UNL     1     -18.048 -13.525  -3.301  1.00  0.00     0.020 C 
HETATM    4  C   UNL     1     -18.697 -14.794  -2.690  1.00  0.00     0.013 C 
HETATM    5  C   UNL     1     -18.992 -12.247  -3.312  1.00  0.00     0.083 C 
HETATM    6  O   UNL     1     -19.880 -12.274  -2.163  1.00  0.00    -0.320 OA
HETATM    7  C   UNL     1     -19.180 -12.040  -0.866  1.00  0.00     0.288 C 
HETATM    8  O   UNL     1     -18.479 -10.793  -0.770  1.00  0.00    -0.323 OA
HETATM    9  C   UNL     1     -17.449 -11.010  -1.731  1.00  0.00     0.173 C 
HETATM   10  C   UNL     1     -18.264 -10.878  -3.115  1.00  0.00     0.054 C 
HETATM   11  C   UNL     1     -19.344  -9.690  -3.048  1.00  0.00     0.017 C 
HETATM   12  C   UNL     1     -20.156  -9.344  -4.074  1.00  0.00     0.014 C 
HETATM   13  C   UNL     1     -21.182 -10.314  -4.630  1.00  0.00     0.053 C 
HETATM   14  C   UNL     1     -20.434 -11.313  -5.477  1.00  0.00     0.125 C 
HETATM   15  C   UNL     1     -21.303 -12.186  -6.370  1.00  0.00     0.165 C 
HETATM   16  O   UNL     1     -22.158 -11.769  -7.153  1.00  0.00    -0.294 OA
HETATM   17  C   UNL     1     -20.850 -13.619  -6.355  1.00  0.00     0.055 C 
HETATM   18  C   UNL     1     -19.912 -13.849  -7.529  1.00  0.00     0.018 C 
HETATM   19  C   UNL     1     -20.375 -13.659  -5.084  1.00  0.00     0.023 C 
HETATM   20  C   UNL     1     -19.617 -12.369  -4.751  1.00  0.00     0.064 C 
HETATM   21  O   UNL     1     -18.190 -13.031  -0.727  1.00  0.00    -0.314 OA
ENDROOT
BRANCH  12  22
HETATM   22  C   UNL     1     -19.822  -8.179  -4.967  1.00  0.00     0.183 C 
BRANCH  22  23
HETATM   23  O   UNL     1     -20.970  -7.815  -5.736  1.00  0.00    -0.321 OA
BRANCH  23  24
HETATM   24  C   UNL     1     -21.593  -6.663  -5.358  1.00  0.00     0.263 C 
HETATM   25  O   UNL     1     -22.690  -6.587  -4.816  1.00  0.00    -0.265 OA
BRANCH  24  26
HETATM   26  C   UNL     1     -20.714  -5.479  -5.685  1.00  0.00     0.149 C 
BRANCH  26  27
HETATM   27  C   UNL     1     -20.886  -4.961  -7.091  1.00  0.00    -0.046 A 
HETATM   28  C   UNL     1     -19.843  -5.041  -8.022  1.00  0.00     0.010 A 
HETATM   29  C   UNL     1     -20.028  -4.590  -9.327  1.00  0.00     0.040 A 
HETATM   30  C   UNL     1     -21.253  -4.067  -9.733  1.00  0.00     0.099 A 
HETATM   31  C   UNL     1     -22.325  -3.981  -8.822  1.00  0.00     0.101 A 
HETATM   32  C   UNL     1     -22.114  -4.430  -7.509  1.00  0.00     0.047 A 
BRANCH  30  33
HETATM   33  O   UNL     1     -21.386  -3.645 -11.027  1.00  0.00    -0.358 OA
HETATM   34  H   UNL     1     -22.239  -3.957 -11.373  1.00  0.00     0.217 HD
ENDBRANCH  30  33
BRANCH  31  35
HETATM   35  O   UNL     1     -23.590  -3.528  -9.040  1.00  0.00    -0.353 OA
HETATM   36  C   UNL     1     -24.473  -4.330  -9.812  1.00  0.00     0.210 C 
ENDBRANCH  31  35
ENDBRANCH  26  27
ENDBRANCH  24  26
ENDBRANCH  23  24
ENDBRANCH  22  23
ENDBRANCH  12  22
BRANCH  14  37
HETATM   37  O   UNL     1     -19.572 -10.640  -6.431  1.00  0.00    -0.382 OA
HETATM   38  H   UNL     1     -18.991 -11.336  -6.799  1.00  0.00     0.211 HD
ENDBRANCH  14  37
BRANCH   1  39
HETATM   39  C   UNL     1     -15.845 -13.001  -0.438  1.00  0.00    -0.056 C 
HETATM   40  C   UNL     1     -15.024 -13.984  -0.887  1.00  0.00     0.017 C 
HETATM   41  C   UNL     1     -15.396 -12.266   0.792  1.00  0.00     0.046 C 
ENDBRANCH   1  39
BRANCH   7  42
HETATM   42  C   UNL     1     -20.281 -12.025   0.202  1.00  0.00     0.140 C 
BRANCH  42  43
HETATM   43  C   UNL     1     -21.122 -10.790   0.454  1.00  0.00    -0.051 A 
HETATM   44  C   UNL     1     -20.695  -9.838   1.396  1.00  0.00     0.007 A 
HETATM   45  C   UNL     1     -21.228  -8.547   1.394  1.00  0.00     0.001 A 
HETATM   46  C   UNL     1     -22.207  -8.202   0.467  1.00  0.00     0.000 A 
HETATM   47  C   UNL     1     -22.703  -9.163  -0.410  1.00  0.00     0.001 A 
HETATM   48  C   UNL     1     -22.172 -10.455  -0.407  1.00  0.00     0.007 A 
ENDBRANCH  42  43
ENDBRANCH   7  42
TORSDOF 11
ENDMDL
MODEL 4
REMARK VINA RESULT:      -9.7      1.739      4.268
REMARK  11 active torsions:
REMARK  status: ('A' for Active; 'I' for Inactive)
REMARK    1  A    between atoms: C_2  and  C_4 
REMARK    2  A    between atoms: C_10  and  C_11 
REMARK    3  A    between atoms: C_11  and  C_12 
REMARK    4  A    between atoms: C_22  and  C_23 
REMARK    5  A    between atoms: C_23  and  O_24 
REMARK    6  A    between atoms: O_24  and  C_25 
REMARK    7  A    between atoms: C_25  and  C_27 
REMARK    8  A    between atoms: C_27  and  C_28 
REMARK    9  A    between atoms: C_31  and  O_32 
REMARK   10  A    between atoms: C_33  and  O_34 
REMARK   11  A    between atoms: C_38  and  O_39 
ROOT
HETATM    1  C   UNL     1     -22.541 -12.313  -1.776  1.00  0.00     0.116 C 
HETATM    2  C   UNL     1     -21.312 -12.113  -0.907  1.00  0.00     0.053 C 
HETATM    3  C   UNL     1     -20.088 -12.422  -1.729  1.00  0.00     0.020 C 
HETATM    4  C   UNL     1     -19.816 -13.942  -1.869  1.00  0.00     0.013 C 
HETATM    5  C   UNL     1     -20.150 -11.638  -3.110  1.00  0.00     0.083 C 
HETATM    6  O   UNL     1     -20.682 -12.501  -4.149  1.00  0.00    -0.320 OA
HETATM    7  C   UNL     1     -22.134 -12.804  -3.984  1.00  0.00     0.288 C 
HETATM    8  O   UNL     1     -22.996 -11.657  -3.969  1.00  0.00    -0.323 OA
HETATM    9  C   UNL     1     -22.586 -11.051  -2.746  1.00  0.00     0.173 C 
HETATM   10  C   UNL     1     -21.151 -10.439  -3.153  1.00  0.00     0.054 C 
HETATM   11  C   UNL     1     -21.182  -9.805  -4.629  1.00  0.00     0.017 C 
HETATM   12  C   UNL     1     -20.122  -9.207  -5.220  1.00  0.00     0.014 C 
HETATM   13  C   UNL     1     -18.848  -9.975  -5.521  1.00  0.00     0.053 C 
HETATM   14  C   UNL     1     -18.110 -10.137  -4.216  1.00  0.00     0.125 C 
HETATM   15  C   UNL     1     -16.668 -10.609  -4.341  1.00  0.00     0.165 C 
HETATM   16  O   UNL     1     -15.814 -10.092  -5.062  1.00  0.00    -0.294 OA
HETATM   17  C   UNL     1     -16.335 -11.652  -3.312  1.00  0.00     0.055 C 
HETATM   18  C   UNL     1     -15.706 -10.970  -2.108  1.00  0.00     0.018 C 
HETATM   19  C   UNL     1     -17.562 -12.222  -3.209  1.00  0.00     0.023 C 
HETATM   20  C   UNL     1     -18.658 -11.151  -3.225  1.00  0.00     0.064 C 
HETATM   21  O   UNL     1     -22.307 -13.410  -2.726  1.00  0.00    -0.314 OA
ENDROOT
BRANCH  12  22
HETATM   22  C   UNL     1     -19.986  -7.708  -5.231  1.00  0.00     0.183 C 
BRANCH  22  23
HETATM   23  O   UNL     1     -20.807  -7.156  -6.264  1.00  0.00    -0.321 OA
BRANCH  23  24
HETATM   24  C   UNL     1     -21.482  -6.017  -5.937  1.00  0.00     0.263 C 
HETATM   25  O   UNL     1     -22.487  -5.958  -5.240  1.00  0.00    -0.265 OA
BRANCH  24  26
HETATM   26  C   UNL     1     -20.787  -4.823  -6.547  1.00  0.00     0.149 C 
BRANCH  26  27
HETATM   27  C   UNL     1     -21.040  -4.658  -8.025  1.00  0.00    -0.046 A 
HETATM   28  C   UNL     1     -19.983  -4.664  -8.943  1.00  0.00     0.010 A 
HETATM   29  C   UNL     1     -20.235  -4.545 -10.308  1.00  0.00     0.040 A 
HETATM   30  C   UNL     1     -21.539  -4.434 -10.784  1.00  0.00     0.099 A 
HETATM   31  C   UNL     1     -22.625  -4.432  -9.886  1.00  0.00     0.101 A 
HETATM   32  C   UNL     1     -22.349  -4.541  -8.515  1.00  0.00     0.047 A 
BRANCH  30  33
HETATM   33  O   UNL     1     -21.734  -4.327 -12.134  1.00  0.00    -0.358 OA
HETATM   34  H   UNL     1     -22.639  -4.013 -12.297  1.00  0.00     0.217 HD
ENDBRANCH  30  33
BRANCH  31  35
HETATM   35  O   UNL     1     -23.956  -4.358 -10.163  1.00  0.00    -0.353 OA
HETATM   36  C   UNL     1     -24.729  -3.364  -9.506  1.00  0.00     0.210 C 
ENDBRANCH  31  35
ENDBRANCH  26  27
ENDBRANCH  24  26
ENDBRANCH  23  24
ENDBRANCH  22  23
ENDBRANCH  12  22
BRANCH  14  37
HETATM   37  O   UNL     1     -17.969  -8.861  -3.539  1.00  0.00    -0.382 OA
HETATM   38  H   UNL     1     -17.842  -8.198  -4.248  1.00  0.00     0.211 HD
ENDBRANCH  14  37
BRANCH   1  39
HETATM   39  C   UNL     1     -23.586 -12.906  -0.804  1.00  0.00    -0.056 C 
HETATM   40  C   UNL     1     -24.308 -13.990  -1.183  1.00  0.00     0.017 C 
HETATM   41  C   UNL     1     -23.626 -12.554   0.655  1.00  0.00     0.046 C 
ENDBRANCH   1  39
BRANCH   7  42
HETATM   42  C   UNL     1     -22.523 -13.648  -5.204  1.00  0.00     0.140 C 
BRANCH  42  43
HETATM   43  C   UNL     1     -21.563 -13.860  -6.357  1.00  0.00    -0.051 A 
HETATM   44  C   UNL     1     -21.119 -12.755  -7.105  1.00  0.00     0.007 A 
HETATM   45  C   UNL     1     -19.984 -12.854  -7.913  1.00  0.00     0.001 A 
HETATM   46  C   UNL     1     -19.296 -14.061  -8.000  1.00  0.00     0.000 A 
HETATM   47  C   UNL     1     -19.781 -15.185  -7.336  1.00  0.00     0.001 A 
HETATM   48  C   UNL     1     -20.916 -15.088  -6.529  1.00  0.00     0.007 A 
ENDBRANCH  42  43
ENDBRANCH   7  42
TORSDOF 11
ENDMDL
MODEL 5
REMARK VINA RESULT:      -9.6      2.983      8.968
REMARK  11 active torsions:
REMARK  status: ('A' for Active; 'I' for Inactive)
REMARK    1  A    between atoms: C_2  and  C_4 
REMARK    2  A    between atoms: C_10  and  C_11 
REMARK    3  A    between atoms: C_11  and  C_12 
REMARK    4  A    between atoms: C_22  and  C_23 
REMARK    5  A    between atoms: C_23  and  O_24 
REMARK    6  A    between atoms: O_24  and  C_25 
REMARK    7  A    between atoms: C_25  and  C_27 
REMARK    8  A    between atoms: C_27  and  C_28 
REMARK    9  A    between atoms: C_31  and  O_32 
REMARK   10  A    between atoms: C_33  and  O_34 
REMARK   11  A    between atoms: C_38  and  O_39 
ROOT
HETATM    1  C   UNL     1     -21.029  -9.084  -1.069  1.00  0.00     0.116 C 
HETATM    2  C   UNL     1     -21.132 -10.591  -0.915  1.00  0.00     0.053 C 
HETATM    3  C   UNL     1     -21.555 -11.181  -2.235  1.00  0.00     0.020 C 
HETATM    4  C   UNL     1     -23.076 -11.045  -2.504  1.00  0.00     0.013 C 
HETATM    5  C   UNL     1     -20.632 -10.620  -3.401  1.00  0.00     0.083 C 
HETATM    6  O   UNL     1     -21.279  -9.496  -4.052  1.00  0.00    -0.320 OA
HETATM    7  C   UNL     1     -21.348  -8.274  -3.196  1.00  0.00     0.288 C 
HETATM    8  O   UNL     1     -20.081  -7.772  -2.751  1.00  0.00    -0.323 OA
HETATM    9  C   UNL     1     -19.684  -8.830  -1.881  1.00  0.00     0.173 C 
HETATM   10  C   UNL     1     -19.283  -9.982  -2.935  1.00  0.00     0.054 C 
HETATM   11  C   UNL     1     -18.502  -9.372  -4.200  1.00  0.00     0.017 C 
HETATM   12  C   UNL     1     -18.032 -10.113  -5.231  1.00  0.00     0.014 C 
HETATM   13  C   UNL     1     -18.968 -10.904  -6.126  1.00  0.00     0.053 C 
HETATM   14  C   UNL     1     -19.388 -12.130  -5.354  1.00  0.00     0.125 C 
HETATM   15  C   UNL     1     -20.080 -13.208  -6.175  1.00  0.00     0.165 C 
HETATM   16  O   UNL     1     -19.642 -13.694  -7.219  1.00  0.00    -0.294 OA
HETATM   17  C   UNL     1     -21.267 -13.780  -5.452  1.00  0.00     0.055 C 
HETATM   18  C   UNL     1     -20.830 -15.031  -4.707  1.00  0.00     0.018 C 
HETATM   19  C   UNL     1     -21.629 -12.668  -4.764  1.00  0.00     0.023 C 
HETATM   20  C   UNL     1     -20.393 -11.936  -4.230  1.00  0.00     0.064 C 
HETATM   21  O   UNL     1     -22.045  -8.611  -2.021  1.00  0.00    -0.314 OA
ENDROOT
BRANCH  12  22
HETATM   22  C   UNL     1     -16.585 -10.520  -5.295  1.00  0.00     0.183 C 
BRANCH  22  23
HETATM   23  O   UNL     1     -15.898 -10.050  -4.133  1.00  0.00    -0.321 OA
BRANCH  23  24
HETATM   24  C   UNL     1     -15.450 -11.014  -3.281  1.00  0.00     0.263 C 
HETATM   25  O   UNL     1     -14.868 -12.043  -3.606  1.00  0.00    -0.265 OA
BRANCH  24  26
HETATM   26  C   UNL     1     -15.756 -10.615  -1.857  1.00  0.00     0.149 C 
BRANCH  26  27
HETATM   27  C   UNL     1     -16.470 -11.681  -1.064  1.00  0.00    -0.046 A 
HETATM   28  C   UNL     1     -17.519 -12.419  -1.627  1.00  0.00     0.010 A 
HETATM   29  C   UNL     1     -18.146 -13.424  -0.894  1.00  0.00     0.040 A 
HETATM   30  C   UNL     1     -17.733 -13.723   0.402  1.00  0.00     0.099 A 
HETATM   31  C   UNL     1     -16.676 -13.005   0.994  1.00  0.00     0.101 A 
HETATM   32  C   UNL     1     -16.065 -11.989   0.243  1.00  0.00     0.047 A 
BRANCH  30  33
HETATM   33  O   UNL     1     -18.377 -14.724   1.076  1.00  0.00    -0.358 OA
HETATM   34  H   UNL     1     -17.872 -14.937   1.880  1.00  0.00     0.217 HD
ENDBRANCH  30  33
BRANCH  31  35
HETATM   35  O   UNL     1     -16.123 -13.169   2.226  1.00  0.00    -0.353 OA
HETATM   36  C   UNL     1     -15.149 -14.190   2.401  1.00  0.00     0.210 C 
ENDBRANCH  31  35
ENDBRANCH  26  27
ENDBRANCH  24  26
ENDBRANCH  23  24
ENDBRANCH  22  23
ENDBRANCH  12  22
BRANCH  14  37
HETATM   37  O   UNL     1     -18.232 -12.828  -4.823  1.00  0.00    -0.382 OA
HETATM   38  H   UNL     1     -17.453 -12.397  -5.230  1.00  0.00     0.211 HD
ENDBRANCH  14  37
BRANCH   1  39
HETATM   39  C   UNL     1     -21.536  -8.541   0.285  1.00  0.00    -0.056 C 
HETATM   40  C   UNL     1     -22.767  -7.975   0.357  1.00  0.00     0.017 C 
HETATM   41  C   UNL     1     -20.883  -8.887   1.592  1.00  0.00     0.046 C 
ENDBRANCH   1  39
BRANCH   7  42
HETATM   42  C   UNL     1     -21.982  -7.188  -4.075  1.00  0.00     0.140 C 
BRANCH  42  43
HETATM   43  C   UNL     1     -21.173  -6.439  -5.114  1.00  0.00    -0.051 A 
HETATM   44  C   UNL     1     -21.250  -6.823  -6.465  1.00  0.00     0.007 A 
HETATM   45  C   UNL     1     -20.825  -5.957  -7.475  1.00  0.00     0.001 A 
HETATM   46  C   UNL     1     -20.298  -4.711  -7.146  1.00  0.00     0.000 A 
HETATM   47  C   UNL     1     -20.132  -4.360  -5.808  1.00  0.00     0.001 A 
HETATM   48  C   UNL     1     -20.555  -5.225  -4.798  1.00  0.00     0.007 A 
ENDBRANCH  42  43
ENDBRANCH   7  42
TORSDOF 11
ENDMDL
MODEL 6
REMARK VINA RESULT:      -9.5      2.929      8.500
REMARK  11 active torsions:
REMARK  status: ('A' for Active; 'I' for Inactive)
REMARK    1  A    between atoms: C_2  and  C_4 
REMARK    2  A    between atoms: C_10  and  C_11 
REMARK    3  A    between atoms: C_11  and  C_12 
REMARK    4  A    between atoms: C_22  and  C_23 
REMARK    5  A    between atoms: C_23  and  O_24 
REMARK    6  A    between atoms: O_24  and  C_25 
REMARK    7  A    between atoms: C_25  and  C_27 
REMARK    8  A    between atoms: C_27  and  C_28 
REMARK    9  A    between atoms: C_31  and  O_32 
REMARK   10  A    between atoms: C_33  and  O_34 
REMARK   11  A    between atoms: C_38  and  O_39 
ROOT
HETATM    1  C   UNL     1     -21.053 -10.108  -1.492  1.00  0.00     0.116 C 
HETATM    2  C   UNL     1     -21.232 -11.544  -1.950  1.00  0.00     0.053 C 
HETATM    3  C   UNL     1     -21.401 -11.553  -3.446  1.00  0.00     0.020 C 
HETATM    4  C   UNL     1     -22.833 -11.168  -3.900  1.00  0.00     0.013 C 
HETATM    5  C   UNL     1     -20.246 -10.701  -4.128  1.00  0.00     0.083 C 
HETATM    6  O   UNL     1     -20.715  -9.353  -4.397  1.00  0.00    -0.320 OA
HETATM    7  C   UNL     1     -20.915  -8.537  -3.163  1.00  0.00     0.288 C 
HETATM    8  O   UNL     1     -19.748  -8.373  -2.347  1.00  0.00    -0.323 OA
HETATM    9  C   UNL     1     -19.566  -9.713  -1.898  1.00  0.00     0.173 C 
HETATM   10  C   UNL     1     -18.998 -10.426  -3.227  1.00  0.00     0.054 C 
HETATM   11  C   UNL     1     -17.962  -9.476  -4.005  1.00  0.00     0.017 C 
HETATM   12  C   UNL     1     -17.319  -9.826  -5.143  1.00  0.00     0.014 C 
HETATM   13  C   UNL     1     -18.082 -10.125  -6.421  1.00  0.00     0.053 C 
HETATM   14  C   UNL     1     -18.686 -11.498  -6.265  1.00  0.00     0.125 C 
HETATM   15  C   UNL     1     -19.233 -12.115  -7.545  1.00  0.00     0.165 C 
HETATM   16  O   UNL     1     -18.611 -12.221  -8.602  1.00  0.00    -0.294 OA
HETATM   17  C   UNL     1     -20.558 -12.786  -7.314  1.00  0.00     0.055 C 
HETATM   18  C   UNL     1     -20.318 -14.263  -7.044  1.00  0.00     0.018 C 
HETATM   19  C   UNL     1     -21.015 -11.978  -6.324  1.00  0.00     0.023 C 
HETATM   20  C   UNL     1     -19.888 -11.631  -5.345  1.00  0.00     0.064 C 
HETATM   21  O   UNL     1     -21.843  -9.210  -2.348  1.00  0.00    -0.314 OA
ENDROOT
BRANCH  12  22
HETATM   22  C   UNL     1     -15.902 -10.330  -5.108  1.00  0.00     0.183 C 
BRANCH  22  23
HETATM   23  O   UNL     1     -15.694 -11.110  -3.928  1.00  0.00    -0.321 OA
BRANCH  23  24
HETATM   24  C   UNL     1     -14.780 -12.115  -4.037  1.00  0.00     0.263 C 
HETATM   25  O   UNL     1     -14.187 -12.434  -5.060  1.00  0.00    -0.265 OA
BRANCH  24  26
HETATM   26  C   UNL     1     -14.584 -12.771  -2.691  1.00  0.00     0.149 C 
BRANCH  26  27
HETATM   27  C   UNL     1     -15.829 -12.802  -1.840  1.00  0.00    -0.046 A 
HETATM   28  C   UNL     1     -15.932 -12.019  -0.683  1.00  0.00     0.010 A 
HETATM   29  C   UNL     1     -17.101 -12.031   0.075  1.00  0.00     0.040 A 
HETATM   30  C   UNL     1     -18.192 -12.807  -0.311  1.00  0.00     0.099 A 
HETATM   31  C   UNL     1     -18.123 -13.599  -1.475  1.00  0.00     0.101 A 
HETATM   32  C   UNL     1     -16.932 -13.581  -2.217  1.00  0.00     0.047 A 
BRANCH  30  33
HETATM   33  O   UNL     1     -19.319 -12.778   0.462  1.00  0.00    -0.358 OA
HETATM   34  H   UNL     1     -19.860 -13.560   0.259  1.00  0.00     0.217 HD
ENDBRANCH  30  33
BRANCH  31  35
HETATM   35  O   UNL     1     -19.084 -14.394  -2.019  1.00  0.00    -0.353 OA
HETATM   36  C   UNL     1     -19.046 -14.641  -3.418  1.00  0.00     0.210 C 
ENDBRANCH  31  35
ENDBRANCH  26  27
ENDBRANCH  24  26
ENDBRANCH  23  24
ENDBRANCH  22  23
ENDBRANCH  12  22
BRANCH  14  37
HETATM   37  O   UNL     1     -17.681 -12.461  -5.852  1.00  0.00    -0.382 OA
HETATM   38  H   UNL     1     -17.088 -11.979  -5.242  1.00  0.00     0.211 HD
ENDBRANCH  14  37
BRANCH   1  39
HETATM   39  C   UNL     1     -21.804 -10.056  -0.142  1.00  0.00    -0.056 C 
HETATM   40  C   UNL     1     -21.130  -9.703   0.982  1.00  0.00     0.017 C 
HETATM   41  C   UNL     1     -23.302 -10.062  -0.048  1.00  0.00     0.046 C 
ENDBRANCH   1  39
BRANCH   7  42
HETATM   42  C   UNL     1     -21.327  -7.142  -3.652  1.00  0.00     0.140 C 
BRANCH  42  43
HETATM   43  C   UNL     1     -21.165  -6.732  -5.102  1.00  0.00    -0.051 A 
HETATM   44  C   UNL     1     -22.157  -5.950  -5.719  1.00  0.00     0.007 A 
HETATM   45  C   UNL     1     -21.884  -5.260  -6.901  1.00  0.00     0.001 A 
HETATM   46  C   UNL     1     -20.628  -5.361  -7.491  1.00  0.00     0.000 A 
HETATM   47  C   UNL     1     -19.669  -6.206  -6.939  1.00  0.00     0.001 A 
HETATM   48  C   UNL     1     -19.940  -6.898  -5.757  1.00  0.00     0.007 A 
ENDBRANCH  42  43
ENDBRANCH   7  42
TORSDOF 11
ENDMDL
MODEL 7
REMARK VINA RESULT:      -9.5      4.445      8.098
REMARK  11 active torsions:
REMARK  status: ('A' for Active; 'I' for Inactive)
REMARK    1  A    between atoms: C_2  and  C_4 
REMARK    2  A    between atoms: C_10  and  C_11 
REMARK    3  A    between atoms: C_11  and  C_12 
REMARK    4  A    between atoms: C_22  and  C_23 
REMARK    5  A    between atoms: C_23  and  O_24 
REMARK    6  A    between atoms: O_24  and  C_25 
REMARK    7  A    between atoms: C_25  and  C_27 
REMARK    8  A    between atoms: C_27  and  C_28 
REMARK    9  A    between atoms: C_31  and  O_32 
REMARK   10  A    between atoms: C_33  and  O_34 
REMARK   11  A    between atoms: C_38  and  O_39 
ROOT
HETATM    1  C   UNL     1     -21.287  -9.250  -1.345  1.00  0.00     0.116 C 
HETATM    2  C   UNL     1     -21.559  -9.589   0.110  1.00  0.00     0.053 C 
HETATM    3  C   UNL     1     -22.231 -10.936   0.171  1.00  0.00     0.020 C 
HETATM    4  C   UNL     1     -23.745 -10.876  -0.160  1.00  0.00     0.013 C 
HETATM    5  C   UNL     1     -21.414 -11.991  -0.691  1.00  0.00     0.083 C 
HETATM    6  O   UNL     1     -21.996 -12.109  -2.016  1.00  0.00    -0.320 OA
HETATM    7  C   UNL     1     -21.789 -10.899  -2.866  1.00  0.00     0.288 C 
HETATM    8  O   UNL     1     -20.419 -10.539  -3.087  1.00  0.00    -0.323 OA
HETATM    9  C   UNL     1     -20.045 -10.152  -1.767  1.00  0.00     0.173 C 
HETATM   10  C   UNL     1     -19.943 -11.581  -1.028  1.00  0.00     0.054 C 
HETATM   11  C   UNL     1     -19.272 -12.687  -1.981  1.00  0.00     0.017 C 
HETATM   12  C   UNL     1     -19.048 -13.970  -1.613  1.00  0.00     0.014 C 
HETATM   13  C   UNL     1     -20.192 -14.900  -1.253  1.00  0.00     0.053 C 
HETATM   14  C   UNL     1     -20.654 -14.518   0.131  1.00  0.00     0.125 C 
HETATM   15  C   UNL     1     -21.585 -15.517   0.803  1.00  0.00     0.165 C 
HETATM   16  O   UNL     1     -21.361 -16.722   0.926  1.00  0.00    -0.294 OA
HETATM   17  C   UNL     1     -22.724 -14.831   1.503  1.00  0.00     0.055 C 
HETATM   18  C   UNL     1     -22.352 -14.630   2.963  1.00  0.00     0.018 C 
HETATM   19  C   UNL     1     -22.843 -13.761   0.676  1.00  0.00     0.023 C 
HETATM   20  C   UNL     1     -21.462 -13.237   0.268  1.00  0.00     0.064 C 
HETATM   21  O   UNL     1     -22.355  -9.800  -2.193  1.00  0.00    -0.314 OA
ENDROOT
BRANCH  12  22
HETATM   22  C   UNL     1     -17.687 -14.415  -1.149  1.00  0.00     0.183 C 
BRANCH  22  23
HETATM   23  O   UNL     1     -17.159 -13.467  -0.219  1.00  0.00    -0.321 OA
BRANCH  23  24
HETATM   24  C   UNL     1     -15.838 -13.166  -0.367  1.00  0.00     0.263 C 
HETATM   25  O   UNL     1     -14.913 -13.969  -0.328  1.00  0.00    -0.265 OA
BRANCH  24  26
HETATM   26  C   UNL     1     -15.679 -11.685  -0.614  1.00  0.00     0.149 C 
BRANCH  26  27
HETATM   27  C   UNL     1     -15.815 -11.290  -2.063  1.00  0.00    -0.046 A 
HETATM   28  C   UNL     1     -16.385 -10.063  -2.426  1.00  0.00     0.010 A 
HETATM   29  C   UNL     1     -16.472  -9.697  -3.767  1.00  0.00     0.040 A 
HETATM   30  C   UNL     1     -15.982 -10.532  -4.768  1.00  0.00     0.099 A 
HETATM   31  C   UNL     1     -15.395 -11.769  -4.435  1.00  0.00     0.101 A 
HETATM   32  C   UNL     1     -15.327 -12.125  -3.079  1.00  0.00     0.047 A 
BRANCH  30  33
HETATM   33  O   UNL     1     -16.085 -10.122  -6.068  1.00  0.00    -0.358 OA
HETATM   34  H   UNL     1     -15.674 -10.792  -6.642  1.00  0.00     0.217 HD
ENDBRANCH  30  33
BRANCH  31  35
HETATM   35  O   UNL     1     -14.844 -12.698  -5.263  1.00  0.00    -0.353 OA
HETATM   36  C   UNL     1     -13.505 -12.506  -5.699  1.00  0.00     0.210 C 
ENDBRANCH  31  35
ENDBRANCH  26  27
ENDBRANCH  24  26
ENDBRANCH  23  24
ENDBRANCH  22  23
ENDBRANCH  12  22
BRANCH  14  37
HETATM   37  O   UNL     1     -19.535 -14.457   1.052  1.00  0.00    -0.382 OA
HETATM   38  H   UNL     1     -19.530 -13.543   1.403  1.00  0.00     0.211 HD
ENDBRANCH  14  37
BRANCH   1  39
HETATM   39  C   UNL     1     -21.529  -7.726  -1.419  1.00  0.00    -0.056 C 
HETATM   40  C   UNL     1     -21.155  -7.045  -2.531  1.00  0.00     0.017 C 
HETATM   41  C   UNL     1     -22.441  -7.004  -0.469  1.00  0.00     0.046 C 
ENDBRANCH   1  39
BRANCH   7  42
HETATM   42  C   UNL     1     -22.395 -11.244  -4.232  1.00  0.00     0.140 C 
BRANCH  42  43
HETATM   43  C   UNL     1     -21.718 -12.221  -5.173  1.00  0.00    -0.051 A 
HETATM   44  C   UNL     1     -21.873 -13.604  -4.968  1.00  0.00     0.007 A 
HETATM   45  C   UNL     1     -21.584 -14.509  -5.991  1.00  0.00     0.001 A 
HETATM   46  C   UNL     1     -21.117 -14.046  -7.218  1.00  0.00     0.000 A 
HETATM   47  C   UNL     1     -20.872 -12.687  -7.399  1.00  0.00     0.001 A 
HETATM   48  C   UNL     1     -21.159 -11.780  -6.377  1.00  0.00     0.007 A 
ENDBRANCH  42  43
ENDBRANCH   7  42
TORSDOF 11
ENDMDL
MODEL 8
REMARK VINA RESULT:      -9.3      2.983      9.273
REMARK  11 active torsions:
REMARK  status: ('A' for Active; 'I' for Inactive)
REMARK    1  A    between atoms: C_2  and  C_4 
REMARK    2  A    between atoms: C_10  and  C_11 
REMARK    3  A    between atoms: C_11  and  C_12 
REMARK    4  A    between atoms: C_22  and  C_23 
REMARK    5  A    between atoms: C_23  and  O_24 
REMARK    6  A    between atoms: O_24  and  C_25 
REMARK    7  A    between atoms: C_25  and  C_27 
REMARK    8  A    between atoms: C_27  and  C_28 
REMARK    9  A    between atoms: C_31  and  O_32 
REMARK   10  A    between atoms: C_33  and  O_34 
REMARK   11  A    between atoms: C_38  and  O_39 
ROOT
HETATM    1  C   UNL     1     -20.793 -10.310  -1.421  1.00  0.00     0.116 C 
HETATM    2  C   UNL     1     -21.008 -11.729  -1.918  1.00  0.00     0.053 C 
HETATM    3  C   UNL     1     -21.233 -11.686  -3.407  1.00  0.00     0.020 C 
HETATM    4  C   UNL     1     -22.676 -11.269  -3.793  1.00  0.00     0.013 C 
HETATM    5  C   UNL     1     -20.094 -10.825  -4.104  1.00  0.00     0.083 C 
HETATM    6  O   UNL     1     -20.555  -9.463  -4.311  1.00  0.00    -0.320 OA
HETATM    7  C   UNL     1     -20.698  -8.686  -3.044  1.00  0.00     0.288 C 
HETATM    8  O   UNL     1     -19.498  -8.563  -2.268  1.00  0.00    -0.323 OA
HETATM    9  C   UNL     1     -19.317  -9.920  -1.870  1.00  0.00     0.173 C 
HETATM   10  C   UNL     1     -18.810 -10.595  -3.243  1.00  0.00     0.054 C 
HETATM   11  C   UNL     1     -17.790  -9.632  -4.028  1.00  0.00     0.017 C 
HETATM   12  C   UNL     1     -17.196  -9.951  -5.201  1.00  0.00     0.014 C 
HETATM   13  C   UNL     1     -18.010 -10.198  -6.458  1.00  0.00     0.053 C 
HETATM   14  C   UNL     1     -18.626 -11.569  -6.324  1.00  0.00     0.125 C 
HETATM   15  C   UNL     1     -19.229 -12.136  -7.601  1.00  0.00     0.165 C 
HETATM   16  O   UNL     1     -18.649 -12.215  -8.685  1.00  0.00    -0.294 OA
HETATM   17  C   UNL     1     -20.553 -12.799  -7.342  1.00  0.00     0.055 C 
HETATM   18  C   UNL     1     -20.322 -14.287  -7.131  1.00  0.00     0.018 C 
HETATM   19  C   UNL     1     -20.962 -12.019  -6.310  1.00  0.00     0.023 C 
HETATM   20  C   UNL     1     -19.794 -11.718  -5.364  1.00  0.00     0.064 C 
HETATM   21  O   UNL     1     -21.603  -9.376  -2.216  1.00  0.00    -0.314 OA
ENDROOT
BRANCH  12  22
HETATM   22  C   UNL     1     -15.785 -10.473  -5.237  1.00  0.00     0.183 C 
BRANCH  22  23
HETATM   23  O   UNL     1     -15.402 -10.921  -3.934  1.00  0.00    -0.321 OA
BRANCH  23  24
HETATM   24  C   UNL     1     -14.778 -12.132  -3.886  1.00  0.00     0.263 C 
HETATM   25  O   UNL     1     -13.665 -12.382  -4.334  1.00  0.00    -0.265 OA
BRANCH  24  26
HETATM   26  C   UNL     1     -15.658 -13.127  -3.168  1.00  0.00     0.149 C 
BRANCH  26  27
HETATM   27  C   UNL     1     -15.617 -13.007  -1.665  1.00  0.00    -0.046 A 
HETATM   28  C   UNL     1     -16.420 -12.078  -0.993  1.00  0.00     0.010 A 
HETATM   29  C   UNL     1     -16.397 -12.002   0.398  1.00  0.00     0.040 A 
HETATM   30  C   UNL     1     -15.589 -12.857   1.144  1.00  0.00     0.099 A 
HETATM   31  C   UNL     1     -14.776 -13.809   0.498  1.00  0.00     0.101 A 
HETATM   32  C   UNL     1     -14.805 -13.860  -0.904  1.00  0.00     0.047 A 
BRANCH  30  33
HETATM   33  O   UNL     1     -15.608 -12.747   2.507  1.00  0.00    -0.358 OA
HETATM   34  H   UNL     1     -14.708 -12.552   2.819  1.00  0.00     0.217 HD
ENDBRANCH  30  33
BRANCH  31  35
HETATM   35  O   UNL     1     -13.948 -14.735   1.053  1.00  0.00    -0.353 OA
HETATM   36  C   UNL     1     -12.581 -14.396   1.241  1.00  0.00     0.210 C 
ENDBRANCH  31  35
ENDBRANCH  26  27
ENDBRANCH  24  26
ENDBRANCH  23  24
ENDBRANCH  22  23
ENDBRANCH  12  22
BRANCH  14  37
HETATM   37  O   UNL     1     -17.619 -12.557  -5.982  1.00  0.00    -0.382 OA
HETATM   38  H   UNL     1     -16.772 -12.068  -5.942  1.00  0.00     0.211 HD
ENDBRANCH  14  37
BRANCH   1  39
HETATM   39  C   UNL     1     -21.491 -10.295  -0.042  1.00  0.00    -0.056 C 
HETATM   40  C   UNL     1     -21.548 -11.437   0.689  1.00  0.00     0.017 C 
HETATM   41  C   UNL     1     -21.830  -9.023   0.680  1.00  0.00     0.046 C 
ENDBRANCH   1  39
BRANCH   7  42
HETATM   42  C   UNL     1     -21.109  -7.271  -3.471  1.00  0.00     0.140 C 
BRANCH  42  43
HETATM   43  C   UNL     1     -21.093  -6.848  -4.925  1.00  0.00    -0.051 A 
HETATM   44  C   UNL     1     -22.152  -6.076  -5.437  1.00  0.00     0.007 A 
HETATM   45  C   UNL     1     -22.004  -5.372  -6.634  1.00  0.00     0.001 A 
HETATM   46  C   UNL     1     -20.809  -5.450  -7.343  1.00  0.00     0.000 A 
HETATM   47  C   UNL     1     -19.789  -6.285  -6.893  1.00  0.00     0.001 A 
HETATM   48  C   UNL     1     -19.936  -6.990  -5.697  1.00  0.00     0.007 A 
ENDBRANCH  42  43
ENDBRANCH   7  42
TORSDOF 11
ENDMDL
MODEL 9
REMARK VINA RESULT:      -9.2      3.941      7.101
REMARK  11 active torsions:
REMARK  status: ('A' for Active; 'I' for Inactive)
REMARK    1  A    between atoms: C_2  and  C_4 
REMARK    2  A    between atoms: C_10  and  C_11 
REMARK    3  A    between atoms: C_11  and  C_12 
REMARK    4  A    between atoms: C_22  and  C_23 
REMARK    5  A    between atoms: C_23  and  O_24 
REMARK    6  A    between atoms: O_24  and  C_25 
REMARK    7  A    between atoms: C_25  and  C_27 
REMARK    8  A    between atoms: C_27  and  C_28 
REMARK    9  A    between atoms: C_31  and  O_32 
REMARK   10  A    between atoms: C_33  and  O_34 
REMARK   11  A    between atoms: C_38  and  O_39 
ROOT
HETATM    1  C   UNL     1     -22.284 -13.705  -3.370  1.00  0.00     0.116 C 
HETATM    2  C   UNL     1     -21.238 -13.786  -2.272  1.00  0.00     0.053 C 
HETATM    3  C   UNL     1     -19.893 -13.459  -2.866  1.00  0.00     0.020 C 
HETATM    4  C   UNL     1     -19.263 -14.649  -3.636  1.00  0.00     0.013 C 
HETATM    5  C   UNL     1     -19.981 -12.111  -3.702  1.00  0.00     0.083 C 
HETATM    6  O   UNL     1     -20.181 -12.410  -5.109  1.00  0.00    -0.320 OA
HETATM    7  C   UNL     1     -21.533 -12.965  -5.412  1.00  0.00     0.288 C 
HETATM    8  O   UNL     1     -22.633 -12.120  -5.047  1.00  0.00    -0.323 OA
HETATM    9  C   UNL     1     -22.512 -12.150  -3.627  1.00  0.00     0.173 C 
HETATM   10  C   UNL     1     -21.222 -11.213  -3.391  1.00  0.00     0.054 C 
HETATM   11  C   UNL     1     -21.236  -9.940  -4.372  1.00  0.00     0.017 C 
HETATM   12  C   UNL     1     -20.284  -8.978  -4.380  1.00  0.00     0.014 C 
HETATM   13  C   UNL     1     -18.842  -9.297  -4.730  1.00  0.00     0.053 C 
HETATM   14  C   UNL     1     -18.235  -9.976  -3.528  1.00  0.00     0.125 C 
HETATM   15  C   UNL     1     -16.718 -10.104  -3.552  1.00  0.00     0.165 C 
HETATM   16  O   UNL     1     -15.932  -9.177  -3.753  1.00  0.00    -0.294 OA
HETATM   17  C   UNL     1     -16.268 -11.459  -3.082  1.00  0.00     0.055 C 
HETATM   18  C   UNL     1     -15.951 -11.383  -1.598  1.00  0.00     0.018 C 
HETATM   19  C   UNL     1     -17.334 -12.178  -3.516  1.00  0.00     0.023 C 
HETATM   20  C   UNL     1     -18.640 -11.417  -3.262  1.00  0.00     0.064 C 
HETATM   21  O   UNL     1     -21.699 -14.135  -4.648  1.00  0.00    -0.314 OA
ENDROOT
BRANCH  12  22
HETATM   22  C   UNL     1     -20.498  -7.672  -3.665  1.00  0.00     0.183 C 
BRANCH  22  23
HETATM   23  O   UNL     1     -21.036  -7.915  -2.363  1.00  0.00    -0.321 OA
BRANCH  23  24
HETATM   24  C   UNL     1     -21.904  -6.973  -1.896  1.00  0.00     0.263 C 
HETATM   25  O   UNL     1     -22.359  -6.037  -2.543  1.00  0.00    -0.265 OA
BRANCH  24  26
HETATM   26  C   UNL     1     -22.246  -7.268  -0.456  1.00  0.00     0.149 C 
BRANCH  26  27
HETATM   27  C   UNL     1     -22.243  -8.738  -0.116  1.00  0.00    -0.046 A 
HETATM   28  C   UNL     1     -23.368  -9.536  -0.354  1.00  0.00     0.010 A 
HETATM   29  C   UNL     1     -23.338 -10.899  -0.067  1.00  0.00     0.040 A 
HETATM   30  C   UNL     1     -22.188 -11.494   0.446  1.00  0.00     0.099 A 
HETATM   31  C   UNL     1     -21.036 -10.719   0.688  1.00  0.00     0.101 A 
HETATM   32  C   UNL     1     -21.091  -9.346   0.404  1.00  0.00     0.047 A 
BRANCH  30  33
HETATM   33  O   UNL     1     -22.207 -12.837   0.703  1.00  0.00    -0.358 OA
HETATM   34  H   UNL     1     -21.294 -13.146   0.829  1.00  0.00     0.217 HD
ENDBRANCH  30  33
BRANCH  31  35
HETATM   35  O   UNL     1     -19.824 -11.123   1.157  1.00  0.00    -0.353 OA
HETATM   36  C   UNL     1     -18.978 -11.870   0.293  1.00  0.00     0.210 C 
ENDBRANCH  31  35
ENDBRANCH  26  27
ENDBRANCH  24  26
ENDBRANCH  23  24
ENDBRANCH  22  23
ENDBRANCH  12  22
BRANCH  14  37
HETATM   37  O   UNL     1     -18.469  -9.202  -2.323  1.00  0.00    -0.382 OA
HETATM   38  H   UNL     1     -18.325  -9.821  -1.579  1.00  0.00     0.211 HD
ENDBRANCH  14  37
BRANCH   1  39
HETATM   39  C   UNL     1     -23.264 -14.850  -3.029  1.00  0.00    -0.056 C 
HETATM   40  C   UNL     1     -23.820 -14.905  -1.792  1.00  0.00     0.017 C 
HETATM   41  C   UNL     1     -23.887 -15.722  -4.080  1.00  0.00     0.046 C 
ENDBRANCH   1  39
BRANCH   7  42
HETATM   42  C   UNL     1     -21.579 -13.136  -6.936  1.00  0.00     0.140 C 
BRANCH  42  43
HETATM   43  C   UNL     1     -20.465 -13.837  -7.686  1.00  0.00    -0.051 A 
HETATM   44  C   UNL     1     -19.640 -13.100  -8.555  1.00  0.00     0.007 A 
HETATM   45  C   UNL     1     -18.409 -13.612  -8.970  1.00  0.00     0.001 A 
HETATM   46  C   UNL     1     -18.000 -14.872  -8.541  1.00  0.00     0.000 A 
HETATM   47  C   UNL     1     -18.849 -15.647  -7.756  1.00  0.00     0.001 A 
HETATM   48  C   UNL     1     -20.082 -15.137  -7.342  1.00  0.00     0.007 A 
ENDBRANCH  42  43
ENDBRANCH   7  42
TORSDOF 11
ENDMDL
