MODEL 1
REMARK VINA RESULT:     -10.5      0.000      0.000
REMARK  11 active torsions:
REMARK  status: ('A' for Active; 'I' for Inactive)
REMARK    1  A    between atoms: C_2  and  C_4 
REMARK    2  A    between atoms: C_10  and  C_11 
REMARK    3  A    between atoms: C_11  and  C_12 
REMARK    4  A    between atoms: C_22  and  C_23 
REMARK    5  A    between atoms: C_23  and  O_24 
REMARK    6  A    between atoms: O_24  and  C_25 
REMARK    7  A    between atoms: C_25  and  C_27 
REMARK    8  A    between atoms: C_27  and  C_28 
REMARK    9  A    between atoms: C_31  and  O_32 
REMARK   10  A    between atoms: C_33  and  O_34 
REMARK   11  A    between atoms: C_38  and  O_39 
ROOT
HETATM    1  C   UNL     1     -14.983 -11.221  -5.380  1.00  0.00     0.116 C 
HETATM    2  C   UNL     1     -15.875 -11.861  -6.438  1.00  0.00     0.053 C 
HETATM    3  C   UNL     1     -17.074 -12.516  -5.800  1.00  0.00     0.020 C 
HETATM    4  C   UNL     1     -16.845 -13.864  -5.077  1.00  0.00     0.013 C 
HETATM    5  C   UNL     1     -17.846 -11.496  -4.881  1.00  0.00     0.083 C 
HETATM    6  O   UNL     1     -17.328 -11.586  -3.513  1.00  0.00    -0.320 OA
HETATM    7  C   UNL     1     -15.992 -10.920  -3.301  1.00  0.00     0.288 C 
HETATM    8  O   UNL     1     -15.825  -9.577  -3.696  1.00  0.00    -0.323 OA
HETATM    9  C   UNL     1     -15.957  -9.782  -5.090  1.00  0.00     0.173 C 
HETATM   10  C   UNL     1     -17.601  -9.996  -5.163  1.00  0.00     0.054 C 
HETATM   11  C   UNL     1     -18.434  -9.292  -3.960  1.00  0.00     0.017 C 
HETATM   12  C   UNL     1     -19.731  -8.932  -4.058  1.00  0.00     0.014 C 
HETATM   13  C   UNL     1     -20.745 -10.044  -3.797  1.00  0.00     0.053 C 
HETATM   14  C   UNL     1     -20.647 -10.998  -4.979  1.00  0.00     0.125 C 
HETATM   15  C   UNL     1     -21.737 -12.059  -4.998  1.00  0.00     0.165 C 
HETATM   16  O   UNL     1     -22.932 -11.842  -4.846  1.00  0.00    -0.294 OA
HETATM   17  C   UNL     1     -21.201 -13.389  -5.463  1.00  0.00     0.055 C 
HETATM   18  C   UNL     1     -21.488 -13.499  -6.960  1.00  0.00     0.018 C 
HETATM   19  C   UNL     1     -19.932 -13.287  -5.007  1.00  0.00     0.023 C 
HETATM   20  C   UNL     1     -19.384 -11.868  -5.189  1.00  0.00     0.064 C 
HETATM   21  O   UNL     1     -15.177 -11.718  -4.053  1.00  0.00    -0.314 OA
ENDROOT
BRANCH  12  22
HETATM   22  C   UNL     1     -20.173  -7.807  -4.945  1.00  0.00     0.183 C 
BRANCH  22  23
HETATM   23  O   UNL     1     -21.593  -7.742  -4.978  1.00  0.00    -0.321 OA
BRANCH  23  24
HETATM   24  C   UNL     1     -22.143  -6.512  -5.149  1.00  0.00     0.263 C 
HETATM   25  O   UNL     1     -23.292  -6.171  -4.916  1.00  0.00    -0.265 OA
BRANCH  24  26
HETATM   26  C   UNL     1     -21.056  -5.537  -5.562  1.00  0.00     0.149 C 
BRANCH  26  27
HETATM   27  C   UNL     1     -21.157  -5.109  -6.978  1.00  0.00    -0.046 A 
HETATM   28  C   UNL     1     -20.075  -5.270  -7.840  1.00  0.00     0.010 A 
HETATM   29  C   UNL     1     -20.077  -4.767  -9.130  1.00  0.00     0.040 A 
HETATM   30  C   UNL     1     -21.259  -4.092  -9.589  1.00  0.00     0.099 A 
HETATM   31  C   UNL     1     -22.362  -3.969  -8.740  1.00  0.00     0.101 A 
HETATM   32  C   UNL     1     -22.304  -4.431  -7.426  1.00  0.00     0.047 A 
BRANCH  30  33
HETATM   33  O   UNL     1     -21.286  -3.570 -10.849  1.00  0.00    -0.358 OA
HETATM   34  H   UNL     1     -22.117  -3.815 -11.274  1.00  0.00     0.217 HD
ENDBRANCH  30  33
BRANCH  31  35
HETATM   35  O   UNL     1     -23.577  -3.433  -9.107  1.00  0.00    -0.353 OA
HETATM   36  C   UNL     1     -24.405  -4.376  -9.781  1.00  0.00     0.210 C 
ENDBRANCH  31  35
ENDBRANCH  26  27
ENDBRANCH  24  26
ENDBRANCH  23  24
ENDBRANCH  22  23
ENDBRANCH  12  22
BRANCH  14  37
HETATM   37  O   UNL     1     -20.911 -10.263  -6.208  1.00  0.00    -0.382 OA
HETATM   38  H   UNL     1     -20.708  -9.330  -6.013  1.00  0.00     0.211 HD
ENDBRANCH  14  37
BRANCH   1  39
HETATM   39  C   UNL     1     -13.653 -12.209  -5.273  1.00  0.00    -0.056 C 
HETATM   40  C   UNL     1     -13.160 -12.994  -6.283  1.00  0.00     0.017 C 
HETATM   41  C   UNL     1     -13.223 -12.831  -3.909  1.00  0.00     0.046 C 
ENDBRANCH   1  39
BRANCH   7  42
HETATM   42  C   UNL     1     -15.665 -11.111  -1.848  1.00  0.00     0.140 C 
BRANCH  42  43
HETATM   43  C   UNL     1     -15.689 -12.316  -0.897  1.00  0.00    -0.051 A 
HETATM   44  C   UNL     1     -15.026 -13.553  -0.943  1.00  0.00     0.007 A 
HETATM   45  C   UNL     1     -14.791 -14.265   0.249  1.00  0.00     0.001 A 
HETATM   46  C   UNL     1     -15.211 -13.756   1.494  1.00  0.00     0.000 A 
HETATM   47  C   UNL     1     -15.950 -12.590   1.527  1.00  0.00     0.001 A 
HETATM   48  C   UNL     1     -16.204 -11.896   0.355  1.00  0.00     0.007 A 
ENDBRANCH  42  43
ENDBRANCH   7  42
TORSDOF 11
ENDMDL
MODEL 2
REMARK VINA RESULT:     -10.1      2.158      3.999
REMARK  11 active torsions:
REMARK  status: ('A' for Active; 'I' for Inactive)
REMARK    1  A    between atoms: C_2  and  C_4 
REMARK    2  A    between atoms: C_10  and  C_11 
REMARK    3  A    between atoms: C_11  and  C_12 
REMARK    4  A    between atoms: C_22  and  C_23 
REMARK    5  A    between atoms: C_23  and  O_24 
REMARK    6  A    between atoms: O_24  and  C_25 
REMARK    7  A    between atoms: C_25  and  C_27 
REMARK    8  A    between atoms: C_27  and  C_28 
REMARK    9  A    between atoms: C_31  and  O_32 
REMARK   10  A    between atoms: C_33  and  O_34 
REMARK   11  A    between atoms: C_38  and  O_39 
ROOT
HETATM    1  C   UNL     1     -19.236 -12.563  -5.813  1.00  0.00     0.116 C 
HETATM    2  C   UNL     1     -20.338 -12.999  -4.855  1.00  0.00     0.053 C 
HETATM    3  C   UNL     1     -20.031 -12.550  -3.449  1.00  0.00     0.020 C 
HETATM    4  C   UNL     1     -18.950 -13.338  -2.673  1.00  0.00     0.013 C 
HETATM    5  C   UNL     1     -19.754 -11.000  -3.403  1.00  0.00     0.083 C 
HETATM    6  O   UNL     1     -18.318 -10.758  -3.573  1.00  0.00    -0.320 OA
HETATM    7  C   UNL     1     -17.819 -10.908  -4.988  1.00  0.00     0.288 C 
HETATM    8  O   UNL     1     -18.462 -10.196  -6.021  1.00  0.00    -0.323 OA
HETATM    9  C   UNL     1     -19.703 -10.871  -5.959  1.00  0.00     0.173 C 
HETATM   10  C   UNL     1     -20.308 -10.169  -4.582  1.00  0.00     0.054 C 
HETATM   11  C   UNL     1     -19.717  -8.692  -4.254  1.00  0.00     0.017 C 
HETATM   12  C   UNL     1     -20.367  -7.773  -3.511  1.00  0.00     0.014 C 
HETATM   13  C   UNL     1     -20.212  -7.917  -1.998  1.00  0.00     0.053 C 
HETATM   14  C   UNL     1     -20.986  -9.167  -1.606  1.00  0.00     0.125 C 
HETATM   15  C   UNL     1     -21.121  -9.354  -0.103  1.00  0.00     0.165 C 
HETATM   16  O   UNL     1     -21.474  -8.486   0.684  1.00  0.00    -0.294 OA
HETATM   17  C   UNL     1     -20.997 -10.806   0.284  1.00  0.00     0.055 C 
HETATM   18  C   UNL     1     -22.412 -11.372   0.392  1.00  0.00     0.018 C 
HETATM   19  C   UNL     1     -20.156 -11.222  -0.690  1.00  0.00     0.023 C 
HETATM   20  C   UNL     1     -20.490 -10.570  -2.034  1.00  0.00     0.064 C 
HETATM   21  O   UNL     1     -17.989 -12.248  -5.187  1.00  0.00    -0.314 OA
ENDROOT
BRANCH  12  22
HETATM   22  C   UNL     1     -21.615  -7.101  -4.003  1.00  0.00     0.183 C 
BRANCH  22  23
HETATM   23  O   UNL     1     -21.282  -5.911  -4.705  1.00  0.00    -0.321 OA
BRANCH  23  24
HETATM   24  C   UNL     1     -21.147  -6.014  -6.053  1.00  0.00     0.263 C 
HETATM   25  O   UNL     1     -21.216  -7.026  -6.732  1.00  0.00    -0.265 OA
BRANCH  24  26
HETATM   26  C   UNL     1     -21.029  -4.623  -6.646  1.00  0.00     0.149 C 
BRANCH  26  27
HETATM   27  C   UNL     1     -21.182  -4.598  -8.121  1.00  0.00    -0.046 A 
HETATM   28  C   UNL     1     -20.060  -4.603  -8.945  1.00  0.00     0.010 A 
HETATM   29  C   UNL     1     -20.151  -4.447 -10.318  1.00  0.00     0.040 A 
HETATM   30  C   UNL     1     -21.458  -4.316 -10.896  1.00  0.00     0.099 A 
HETATM   31  C   UNL     1     -22.588  -4.355 -10.076  1.00  0.00     0.101 A 
HETATM   32  C   UNL     1     -22.459  -4.449  -8.691  1.00  0.00     0.047 A 
BRANCH  30  33
HETATM   33  O   UNL     1     -21.580  -4.143 -12.245  1.00  0.00    -0.358 OA
HETATM   34  H   UNL     1     -22.137  -3.373 -12.415  1.00  0.00     0.217 HD
ENDBRANCH  30  33
BRANCH  31  35
HETATM   35  O   UNL     1     -23.888  -4.340 -10.532  1.00  0.00    -0.353 OA
HETATM   36  C   UNL     1     -24.713  -3.448  -9.788  1.00  0.00     0.210 C 
ENDBRANCH  31  35
ENDBRANCH  26  27
ENDBRANCH  24  26
ENDBRANCH  23  24
ENDBRANCH  22  23
ENDBRANCH  12  22
BRANCH  14  37
HETATM   37  O   UNL     1     -22.373  -9.021  -2.024  1.00  0.00    -0.382 OA
HETATM   38  H   UNL     1     -22.871  -9.713  -1.552  1.00  0.00     0.211 HD
ENDBRANCH  14  37
BRANCH   1  39
HETATM   39  C   UNL     1     -18.401 -13.952  -6.178  1.00  0.00    -0.056 C 
HETATM   40  C   UNL     1     -17.202 -14.010  -6.840  1.00  0.00     0.017 C 
HETATM   41  C   UNL     1     -19.147 -15.305  -6.386  1.00  0.00     0.046 C 
ENDBRANCH   1  39
BRANCH   7  42
HETATM   42  C   UNL     1     -16.350 -10.599  -4.937  1.00  0.00     0.140 C 
BRANCH  42  43
HETATM   43  C   UNL     1     -15.082 -11.455  -4.817  1.00  0.00    -0.051 A 
HETATM   44  C   UNL     1     -14.613 -12.286  -3.787  1.00  0.00     0.007 A 
HETATM   45  C   UNL     1     -13.732 -13.343  -4.087  1.00  0.00     0.001 A 
HETATM   46  C   UNL     1     -13.312 -13.585  -5.410  1.00  0.00     0.000 A 
HETATM   47  C   UNL     1     -13.695 -12.708  -6.406  1.00  0.00     0.001 A 
HETATM   48  C   UNL     1     -14.543 -11.652  -6.113  1.00  0.00     0.007 A 
ENDBRANCH  42  43
ENDBRANCH   7  42
TORSDOF 11
ENDMDL
MODEL 3
REMARK VINA RESULT:     -10.0      2.435      4.880
REMARK  11 active torsions:
REMARK  status: ('A' for Active; 'I' for Inactive)
REMARK    1  A    between atoms: C_2  and  C_4 
REMARK    2  A    between atoms: C_10  and  C_11 
REMARK    3  A    between atoms: C_11  and  C_12 
REMARK    4  A    between atoms: C_22  and  C_23 
REMARK    5  A    between atoms: C_23  and  O_24 
REMARK    6  A    between atoms: O_24  and  C_25 
REMARK    7  A    between atoms: C_25  and  C_27 
REMARK    8  A    between atoms: C_27  and  C_28 
REMARK    9  A    between atoms: C_31  and  O_32 
REMARK   10  A    between atoms: C_33  and  O_34 
REMARK   11  A    between atoms: C_38  and  O_39 
ROOT
HETATM    1  C   UNL     1     -21.661 -13.103  -6.326  1.00  0.00     0.116 C 
HETATM    2  C   UNL     1     -22.737 -12.808  -5.287  1.00  0.00     0.053 C 
HETATM    3  C   UNL     1     -22.116 -12.463  -3.958  1.00  0.00     0.020 C 
HETATM    4  C   UNL     1     -21.532 -13.628  -3.124  1.00  0.00     0.013 C 
HETATM    5  C   UNL     1     -21.075 -11.291  -4.114  1.00  0.00     0.083 C 
HETATM    6  O   UNL     1     -19.743 -11.853  -4.356  1.00  0.00    -0.320 OA
HETATM    7  C   UNL     1     -19.525 -12.369  -5.756  1.00  0.00     0.288 C 
HETATM    8  O   UNL     1     -19.798 -11.521  -6.850  1.00  0.00    -0.323 OA
HETATM    9  C   UNL     1     -21.198 -11.437  -6.666  1.00  0.00     0.173 C 
HETATM   10  C   UNL     1     -21.225 -10.402  -5.369  1.00  0.00     0.054 C 
HETATM   11  C   UNL     1     -19.929  -9.431  -5.245  1.00  0.00     0.017 C 
HETATM   12  C   UNL     1     -19.940  -8.246  -4.602  1.00  0.00     0.014 C 
HETATM   13  C   UNL     1     -19.744  -8.313  -3.088  1.00  0.00     0.053 C 
HETATM   14  C   UNL     1     -21.013  -8.933  -2.520  1.00  0.00     0.125 C 
HETATM   15  C   UNL     1     -21.087  -8.885  -1.002  1.00  0.00     0.165 C 
HETATM   16  O   UNL     1     -20.867  -7.894  -0.318  1.00  0.00    -0.294 OA
HETATM   17  C   UNL     1     -21.696 -10.146  -0.442  1.00  0.00     0.055 C 
HETATM   18  C   UNL     1     -23.183  -9.875  -0.221  1.00  0.00     0.018 C 
HETATM   19  C   UNL     1     -21.284 -11.026  -1.382  1.00  0.00     0.023 C 
HETATM   20  C   UNL     1     -21.354 -10.419  -2.786  1.00  0.00     0.064 C 
HETATM   21  O   UNL     1     -20.379 -13.433  -5.783  1.00  0.00    -0.314 OA
ENDROOT
BRANCH  12  22
HETATM   22  C   UNL     1     -20.700  -7.067  -5.134  1.00  0.00     0.183 C 
BRANCH  22  23
HETATM   23  O   UNL     1     -20.225  -6.727  -6.430  1.00  0.00    -0.321 OA
BRANCH  23  24
HETATM   24  C   UNL     1     -19.950  -5.416  -6.655  1.00  0.00     0.263 C 
HETATM   25  O   UNL     1     -18.858  -4.872  -6.644  1.00  0.00    -0.265 OA
BRANCH  24  26
HETATM   26  C   UNL     1     -21.225  -4.708  -7.073  1.00  0.00     0.149 C 
BRANCH  26  27
HETATM   27  C   UNL     1     -21.361  -4.561  -8.542  1.00  0.00    -0.046 A 
HETATM   28  C   UNL     1     -20.253  -4.721  -9.371  1.00  0.00     0.010 A 
HETATM   29  C   UNL     1     -20.304  -4.464 -10.730  1.00  0.00     0.040 A 
HETATM   30  C   UNL     1     -21.559  -4.055 -11.293  1.00  0.00     0.099 A 
HETATM   31  C   UNL     1     -22.683  -3.935 -10.471  1.00  0.00     0.101 A 
HETATM   32  C   UNL     1     -22.583  -4.140  -9.095  1.00  0.00     0.047 A 
BRANCH  30  33
HETATM   33  O   UNL     1     -21.638  -3.776 -12.626  1.00  0.00    -0.358 OA
HETATM   34  H   UNL     1     -21.149  -4.448 -13.118  1.00  0.00     0.217 HD
ENDBRANCH  30  33
BRANCH  31  35
HETATM   35  O   UNL     1     -23.953  -3.648 -10.918  1.00  0.00    -0.353 OA
HETATM   36  C   UNL     1     -24.856  -3.376  -9.851  1.00  0.00     0.210 C 
ENDBRANCH  31  35
ENDBRANCH  26  27
ENDBRANCH  24  26
ENDBRANCH  23  24
ENDBRANCH  22  23
ENDBRANCH  12  22
BRANCH  14  37
HETATM   37  O   UNL     1     -22.156  -8.119  -2.910  1.00  0.00    -0.382 OA
HETATM   38  H   UNL     1     -22.691  -8.676  -3.506  1.00  0.00     0.211 HD
ENDBRANCH  14  37
BRANCH   1  39
HETATM   39  C   UNL     1     -21.701 -14.749  -6.541  1.00  0.00    -0.056 C 
HETATM   40  C   UNL     1     -20.682 -15.510  -7.054  1.00  0.00     0.017 C 
HETATM   41  C   UNL     1     -23.048 -15.493  -6.789  1.00  0.00     0.046 C 
ENDBRANCH   1  39
BRANCH   7  42
HETATM   42  C   UNL     1     -18.109 -12.871  -5.790  1.00  0.00     0.140 C 
BRANCH  42  43
HETATM   43  C   UNL     1     -16.753 -12.270  -5.397  1.00  0.00    -0.051 A 
HETATM   44  C   UNL     1     -16.113 -12.147  -4.154  1.00  0.00     0.007 A 
HETATM   45  C   UNL     1     -14.710 -12.049  -4.095  1.00  0.00     0.001 A 
HETATM   46  C   UNL     1     -13.931 -12.074  -5.269  1.00  0.00     0.000 A 
HETATM   47  C   UNL     1     -14.566 -12.096  -6.495  1.00  0.00     0.001 A 
HETATM   48  C   UNL     1     -15.949 -12.168  -6.560  1.00  0.00     0.007 A 
ENDBRANCH  42  43
ENDBRANCH   7  42
TORSDOF 11
ENDMDL
MODEL 4
REMARK VINA RESULT:      -9.8      2.321      9.020
REMARK  11 active torsions:
REMARK  status: ('A' for Active; 'I' for Inactive)
REMARK    1  A    between atoms: C_2  and  C_4 
REMARK    2  A    between atoms: C_10  and  C_11 
REMARK    3  A    between atoms: C_11  and  C_12 
REMARK    4  A    between atoms: C_22  and  C_23 
REMARK    5  A    between atoms: C_23  and  O_24 
REMARK    6  A    between atoms: O_24  and  C_25 
REMARK    7  A    between atoms: C_25  and  C_27 
REMARK    8  A    between atoms: C_27  and  C_28 
REMARK    9  A    between atoms: C_31  and  O_32 
REMARK   10  A    between atoms: C_33  and  O_34 
REMARK   11  A    between atoms: C_38  and  O_39 
ROOT
HETATM    1  C   UNL     1     -20.804  -8.808  -2.100  1.00  0.00     0.116 C 
HETATM    2  C   UNL     1     -20.950 -10.288  -1.766  1.00  0.00     0.053 C 
HETATM    3  C   UNL     1     -21.522 -11.045  -2.938  1.00  0.00     0.020 C 
HETATM    4  C   UNL     1     -23.036 -10.887  -3.213  1.00  0.00     0.013 C 
HETATM    5  C   UNL     1     -20.673 -10.788  -4.239  1.00  0.00     0.083 C 
HETATM    6  O   UNL     1     -21.234  -9.648  -4.968  1.00  0.00    -0.320 OA
HETATM    7  C   UNL     1     -20.912  -8.301  -4.371  1.00  0.00     0.288 C 
HETATM    8  O   UNL     1     -19.566  -7.973  -4.104  1.00  0.00    -0.323 OA
HETATM    9  C   UNL     1     -19.349  -8.929  -3.084  1.00  0.00     0.173 C 
HETATM   10  C   UNL     1     -19.226 -10.289  -4.027  1.00  0.00     0.054 C 
HETATM   11  C   UNL     1     -18.742 -10.017  -5.554  1.00  0.00     0.017 C 
HETATM   12  C   UNL     1     -18.137 -10.945  -6.323  1.00  0.00     0.014 C 
HETATM   13  C   UNL     1     -19.070 -11.920  -7.039  1.00  0.00     0.053 C 
HETATM   14  C   UNL     1     -19.659 -12.817  -5.960  1.00  0.00     0.125 C 
HETATM   15  C   UNL     1     -20.453 -13.993  -6.511  1.00  0.00     0.165 C 
HETATM   16  O   UNL     1     -20.069 -14.746  -7.396  1.00  0.00    -0.294 OA
HETATM   17  C   UNL     1     -21.676 -14.269  -5.675  1.00  0.00     0.055 C 
HETATM   18  C   UNL     1     -21.312 -15.371  -4.682  1.00  0.00     0.018 C 
HETATM   19  C   UNL     1     -21.941 -13.013  -5.249  1.00  0.00     0.023 C 
HETATM   20  C   UNL     1     -20.654 -12.251  -4.918  1.00  0.00     0.064 C 
HETATM   21  O   UNL     1     -21.605  -8.360  -3.197  1.00  0.00    -0.314 OA
ENDROOT
BRANCH  12  22
HETATM   22  C   UNL     1     -16.748 -11.429  -6.030  1.00  0.00     0.183 C 
BRANCH  22  23
HETATM   23  O   UNL     1     -16.118 -10.562  -5.095  1.00  0.00    -0.321 OA
BRANCH  23  24
HETATM   24  C   UNL     1     -15.394 -11.151  -4.109  1.00  0.00     0.263 C 
HETATM   25  O   UNL     1     -14.467 -11.937  -4.232  1.00  0.00    -0.265 OA
BRANCH  24  26
HETATM   26  C   UNL     1     -15.820 -10.575  -2.772  1.00  0.00     0.149 C 
BRANCH  26  27
HETATM   27  C   UNL     1     -16.395 -11.585  -1.852  1.00  0.00    -0.046 A 
HETATM   28  C   UNL     1     -17.460 -12.384  -2.262  1.00  0.00     0.010 A 
HETATM   29  C   UNL     1     -18.113 -13.246  -1.397  1.00  0.00     0.040 A 
HETATM   30  C   UNL     1     -17.639 -13.331  -0.045  1.00  0.00     0.099 A 
HETATM   31  C   UNL     1     -16.543 -12.563   0.357  1.00  0.00     0.101 A 
HETATM   32  C   UNL     1     -15.948 -11.658  -0.521  1.00  0.00     0.047 A 
BRANCH  30  33
HETATM   33  O   UNL     1     -18.272 -14.158   0.837  1.00  0.00    -0.358 OA
HETATM   34  H   UNL     1     -19.180 -14.299   0.541  1.00  0.00     0.217 HD
ENDBRANCH  30  33
BRANCH  31  35
HETATM   35  O   UNL     1     -15.945 -12.640   1.595  1.00  0.00    -0.353 OA
HETATM   36  C   UNL     1     -14.827 -13.522   1.603  1.00  0.00     0.210 C 
ENDBRANCH  31  35
ENDBRANCH  26  27
ENDBRANCH  24  26
ENDBRANCH  23  24
ENDBRANCH  22  23
ENDBRANCH  12  22
BRANCH  14  37
HETATM   37  O   UNL     1     -18.576 -13.483  -5.249  1.00  0.00    -0.382 OA
HETATM   38  H   UNL     1     -18.272 -12.853  -4.570  1.00  0.00     0.211 HD
ENDBRANCH  14  37
BRANCH   1  39
HETATM   39  C   UNL     1     -22.012  -8.048  -1.250  1.00  0.00    -0.056 C 
HETATM   40  C   UNL     1     -22.270  -6.702  -1.263  1.00  0.00     0.017 C 
HETATM   41  C   UNL     1     -22.545  -8.641   0.090  1.00  0.00     0.046 C 
ENDBRANCH   1  39
BRANCH   7  42
HETATM   42  C   UNL     1     -21.556  -7.289  -5.275  1.00  0.00     0.140 C 
BRANCH  42  43
HETATM   43  C   UNL     1     -21.031  -6.102  -6.095  1.00  0.00    -0.051 A 
HETATM   44  C   UNL     1     -19.844  -5.926  -6.824  1.00  0.00     0.007 A 
HETATM   45  C   UNL     1     -19.807  -5.004  -7.888  1.00  0.00     0.001 A 
HETATM   46  C   UNL     1     -20.947  -4.253  -8.238  1.00  0.00     0.000 A 
HETATM   47  C   UNL     1     -22.083  -4.355  -7.459  1.00  0.00     0.001 A 
HETATM   48  C   UNL     1     -22.118  -5.243  -6.395  1.00  0.00     0.007 A 
ENDBRANCH  42  43
ENDBRANCH   7  42
TORSDOF 11
ENDMDL
MODEL 5
REMARK VINA RESULT:      -9.8      2.331      4.503
REMARK  11 active torsions:
REMARK  status: ('A' for Active; 'I' for Inactive)
REMARK    1  A    between atoms: C_2  and  C_4 
REMARK    2  A    between atoms: C_10  and  C_11 
REMARK    3  A    between atoms: C_11  and  C_12 
REMARK    4  A    between atoms: C_22  and  C_23 
REMARK    5  A    between atoms: C_23  and  O_24 
REMARK    6  A    between atoms: O_24  and  C_25 
REMARK    7  A    between atoms: C_25  and  C_27 
REMARK    8  A    between atoms: C_27  and  C_28 
REMARK    9  A    between atoms: C_31  and  O_32 
REMARK   10  A    between atoms: C_33  and  O_34 
REMARK   11  A    between atoms: C_38  and  O_39 
ROOT
HETATM    1  C   UNL     1     -19.328 -13.149  -2.774  1.00  0.00     0.116 C 
HETATM    2  C   UNL     1     -20.626 -12.900  -2.016  1.00  0.00     0.053 C 
HETATM    3  C   UNL     1     -20.536 -11.632  -1.205  1.00  0.00     0.020 C 
HETATM    4  C   UNL     1     -19.704 -11.681   0.097  1.00  0.00     0.013 C 
HETATM    5  C   UNL     1     -20.110 -10.417  -2.112  1.00  0.00     0.083 C 
HETATM    6  O   UNL     1     -18.651 -10.286  -2.096  1.00  0.00    -0.320 OA
HETATM    7  C   UNL     1     -17.920 -11.301  -2.938  1.00  0.00     0.288 C 
HETATM    8  O   UNL     1     -18.285 -11.459  -4.292  1.00  0.00    -0.323 OA
HETATM    9  C   UNL     1     -19.580 -11.981  -4.067  1.00  0.00     0.173 C 
HETATM   10  C   UNL     1     -20.350 -10.576  -3.631  1.00  0.00     0.054 C 
HETATM   11  C   UNL     1     -19.676  -9.220  -4.217  1.00  0.00     0.017 C 
HETATM   12  C   UNL     1     -20.351  -8.066  -4.397  1.00  0.00     0.014 C 
HETATM   13  C   UNL     1     -20.491  -7.183  -3.157  1.00  0.00     0.053 C 
HETATM   14  C   UNL     1     -21.450  -7.907  -2.223  1.00  0.00     0.125 C 
HETATM   15  C   UNL     1     -21.877  -7.075  -1.024  1.00  0.00     0.165 C 
HETATM   16  O   UNL     1     -22.274  -5.918  -1.076  1.00  0.00    -0.294 OA
HETATM   17  C   UNL     1     -21.978  -7.918   0.222  1.00  0.00     0.055 C 
HETATM   18  C   UNL     1     -23.440  -8.334   0.373  1.00  0.00     0.018 C 
HETATM   19  C   UNL     1     -21.022  -8.834  -0.054  1.00  0.00     0.023 C 
HETATM   20  C   UNL     1     -21.035  -9.229  -1.533  1.00  0.00     0.064 C 
HETATM   21  O   UNL     1     -18.190 -12.453  -2.258  1.00  0.00    -0.314 OA
ENDROOT
BRANCH  12  22
HETATM   22  C   UNL     1     -21.410  -7.926  -5.449  1.00  0.00     0.183 C 
BRANCH  22  23
HETATM   23  O   UNL     1     -21.546  -6.562  -5.826  1.00  0.00    -0.321 OA
BRANCH  23  24
HETATM   24  C   UNL     1     -20.605  -6.065  -6.670  1.00  0.00     0.263 C 
HETATM   25  O   UNL     1     -19.646  -6.652  -7.144  1.00  0.00    -0.265 OA
BRANCH  24  26
HETATM   26  C   UNL     1     -20.997  -4.656  -7.072  1.00  0.00     0.149 C 
BRANCH  26  27
HETATM   27  C   UNL     1     -21.198  -4.495  -8.532  1.00  0.00    -0.046 A 
HETATM   28  C   UNL     1     -20.149  -4.734  -9.417  1.00  0.00     0.010 A 
HETATM   29  C   UNL     1     -20.252  -4.471 -10.773  1.00  0.00     0.040 A 
HETATM   30  C   UNL     1     -21.502  -3.970 -11.269  1.00  0.00     0.099 A 
HETATM   31  C   UNL     1     -22.570  -3.771 -10.390  1.00  0.00     0.101 A 
HETATM   32  C   UNL     1     -22.414  -3.986  -9.021  1.00  0.00     0.047 A 
BRANCH  30  33
HETATM   33  O   UNL     1     -21.630  -3.684 -12.597  1.00  0.00    -0.358 OA
HETATM   34  H   UNL     1     -21.452  -2.745 -12.736  1.00  0.00     0.217 HD
ENDBRANCH  30  33
BRANCH  31  35
HETATM   35  O   UNL     1     -23.838  -3.393 -10.771  1.00  0.00    -0.353 OA
HETATM   36  C   UNL     1     -24.764  -3.430  -9.689  1.00  0.00     0.210 C 
ENDBRANCH  31  35
ENDBRANCH  26  27
ENDBRANCH  24  26
ENDBRANCH  23  24
ENDBRANCH  22  23
ENDBRANCH  12  22
BRANCH  14  37
HETATM   37  O   UNL     1     -22.714  -8.124  -2.913  1.00  0.00    -0.382 OA
HETATM   38  H   UNL     1     -22.892  -9.081  -2.853  1.00  0.00     0.211 HD
ENDBRANCH  14  37
BRANCH   1  39
HETATM   39  C   UNL     1     -18.591 -14.406  -1.976  1.00  0.00    -0.056 C 
HETATM   40  C   UNL     1     -19.233 -15.479  -1.415  1.00  0.00     0.017 C 
HETATM   41  C   UNL     1     -17.231 -14.201  -1.240  1.00  0.00     0.046 C 
ENDBRANCH   1  39
BRANCH   7  42
HETATM   42  C   UNL     1     -16.460 -10.974  -2.796  1.00  0.00     0.140 C 
BRANCH  42  43
HETATM   43  C   UNL     1     -15.177 -11.516  -3.441  1.00  0.00    -0.051 A 
HETATM   44  C   UNL     1     -14.291 -12.531  -3.044  1.00  0.00     0.007 A 
HETATM   45  C   UNL     1     -13.508 -13.193  -4.010  1.00  0.00     0.001 A 
HETATM   46  C   UNL     1     -13.600 -12.855  -5.374  1.00  0.00     0.000 A 
HETATM   47  C   UNL     1     -14.397 -11.792  -5.751  1.00  0.00     0.001 A 
HETATM   48  C   UNL     1     -15.152 -11.121  -4.802  1.00  0.00     0.007 A 
ENDBRANCH  42  43
ENDBRANCH   7  42
TORSDOF 11
ENDMDL
MODEL 6
REMARK VINA RESULT:      -9.7      2.538      9.061
REMARK  11 active torsions:
REMARK  status: ('A' for Active; 'I' for Inactive)
REMARK    1  A    between atoms: C_2  and  C_4 
REMARK    2  A    between atoms: C_10  and  C_11 
REMARK    3  A    between atoms: C_11  and  C_12 
REMARK    4  A    between atoms: C_22  and  C_23 
REMARK    5  A    between atoms: C_23  and  O_24 
REMARK    6  A    between atoms: O_24  and  C_25 
REMARK    7  A    between atoms: C_25  and  C_27 
REMARK    8  A    between atoms: C_27  and  C_28 
REMARK    9  A    between atoms: C_31  and  O_32 
REMARK   10  A    between atoms: C_33  and  O_34 
REMARK   11  A    between atoms: C_38  and  O_39 
ROOT
HETATM    1  C   UNL     1     -21.276 -10.157  -1.427  1.00  0.00     0.116 C 
HETATM    2  C   UNL     1     -21.541 -11.606  -1.821  1.00  0.00     0.053 C 
HETATM    3  C   UNL     1     -21.778 -11.721  -3.305  1.00  0.00     0.020 C 
HETATM    4  C   UNL     1     -23.151 -11.252  -3.842  1.00  0.00     0.013 C 
HETATM    5  C   UNL     1     -20.593 -11.071  -4.114  1.00  0.00     0.083 C 
HETATM    6  O   UNL     1     -20.903  -9.664  -4.383  1.00  0.00    -0.320 OA
HETATM    7  C   UNL     1     -20.732  -8.746  -3.199  1.00  0.00     0.288 C 
HETATM    8  O   UNL     1     -19.508  -8.752  -2.498  1.00  0.00    -0.323 OA
HETATM    9  C   UNL     1     -19.606 -10.064  -1.979  1.00  0.00     0.173 C 
HETATM   10  C   UNL     1     -19.253 -10.914  -3.360  1.00  0.00     0.054 C 
HETATM   11  C   UNL     1     -18.355 -10.106  -4.446  1.00  0.00     0.017 C 
HETATM   12  C   UNL     1     -17.578 -10.707  -5.371  1.00  0.00     0.014 C 
HETATM   13  C   UNL     1     -18.294 -11.156  -6.643  1.00  0.00     0.053 C 
HETATM   14  C   UNL     1     -19.181 -12.327  -6.244  1.00  0.00     0.125 C 
HETATM   15  C   UNL     1     -19.814 -13.043  -7.427  1.00  0.00     0.165 C 
HETATM   16  O   UNL     1     -19.215 -13.409  -8.430  1.00  0.00    -0.294 OA
HETATM   17  C   UNL     1     -21.229 -13.465  -7.121  1.00  0.00     0.055 C 
HETATM   18  C   UNL     1     -21.181 -14.919  -6.654  1.00  0.00     0.018 C 
HETATM   19  C   UNL     1     -21.575 -12.474  -6.268  1.00  0.00     0.023 C 
HETATM   20  C   UNL     1     -20.417 -12.108  -5.336  1.00  0.00     0.064 C 
HETATM   21  O   UNL     1     -21.728  -9.187  -2.376  1.00  0.00    -0.314 OA
ENDROOT
BRANCH  12  22
HETATM   22  C   UNL     1     -16.338 -11.460  -4.991  1.00  0.00     0.183 C 
BRANCH  22  23
HETATM   23  O   UNL     1     -15.677 -10.798  -3.920  1.00  0.00    -0.321 OA
BRANCH  23  24
HETATM   24  C   UNL     1     -15.348 -11.558  -2.843  1.00  0.00     0.263 C 
HETATM   25  O   UNL     1     -14.626 -12.543  -2.819  1.00  0.00    -0.265 OA
BRANCH  24  26
HETATM   26  C   UNL     1     -15.914 -10.914  -1.592  1.00  0.00     0.149 C 
BRANCH  26  27
HETATM   27  C   UNL     1     -16.281 -11.893  -0.541  1.00  0.00    -0.046 A 
HETATM   28  C   UNL     1     -15.507 -12.012   0.611  1.00  0.00     0.010 A 
HETATM   29  C   UNL     1     -15.734 -13.000   1.555  1.00  0.00     0.040 A 
HETATM   30  C   UNL     1     -16.832 -13.898   1.339  1.00  0.00     0.099 A 
HETATM   31  C   UNL     1     -17.637 -13.754   0.206  1.00  0.00     0.101 A 
HETATM   32  C   UNL     1     -17.343 -12.789  -0.757  1.00  0.00     0.047 A 
BRANCH  30  33
HETATM   33  O   UNL     1     -17.071 -14.894   2.242  1.00  0.00    -0.358 OA
HETATM   34  H   UNL     1     -17.797 -14.628   2.820  1.00  0.00     0.217 HD
ENDBRANCH  30  33
BRANCH  31  35
HETATM   35  O   UNL     1     -18.771 -14.492  -0.049  1.00  0.00    -0.353 OA
HETATM   36  C   UNL     1     -18.984 -14.697  -1.442  1.00  0.00     0.210 C 
ENDBRANCH  31  35
ENDBRANCH  26  27
ENDBRANCH  24  26
ENDBRANCH  23  24
ENDBRANCH  22  23
ENDBRANCH  12  22
BRANCH  14  37
HETATM   37  O   UNL     1     -18.356 -13.372  -5.656  1.00  0.00    -0.382 OA
HETATM   38  H   UNL     1     -18.799 -13.631  -4.827  1.00  0.00     0.211 HD
ENDBRANCH  14  37
BRANCH   1  39
HETATM   39  C   UNL     1     -22.656  -9.656  -0.653  1.00  0.00    -0.056 C 
HETATM   40  C   UNL     1     -22.763  -8.549   0.149  1.00  0.00     0.017 C 
HETATM   41  C   UNL     1     -23.759 -10.677  -0.236  1.00  0.00     0.046 C 
ENDBRANCH   1  39
BRANCH   7  42
HETATM   42  C   UNL     1     -21.075  -7.371  -3.696  1.00  0.00     0.140 C 
BRANCH  42  43
HETATM   43  C   UNL     1     -21.285  -6.760  -5.089  1.00  0.00    -0.051 A 
HETATM   44  C   UNL     1     -22.304  -5.942  -5.603  1.00  0.00     0.007 A 
HETATM   45  C   UNL     1     -22.038  -5.100  -6.701  1.00  0.00     0.001 A 
HETATM   46  C   UNL     1     -20.760  -5.063  -7.294  1.00  0.00     0.000 A 
HETATM   47  C   UNL     1     -19.789  -5.939  -6.851  1.00  0.00     0.001 A 
HETATM   48  C   UNL     1     -20.052  -6.787  -5.787  1.00  0.00     0.007 A 
ENDBRANCH  42  43
ENDBRANCH   7  42
TORSDOF 11
ENDMDL
MODEL 7
REMARK VINA RESULT:      -9.7      2.471      9.204
REMARK  11 active torsions:
REMARK  status: ('A' for Active; 'I' for Inactive)
REMARK    1  A    between atoms: C_2  and  C_4 
REMARK    2  A    between atoms: C_10  and  C_11 
REMARK    3  A    between atoms: C_11  and  C_12 
REMARK    4  A    between atoms: C_22  and  C_23 
REMARK    5  A    between atoms: C_23  and  O_24 
REMARK    6  A    between atoms: O_24  and  C_25 
REMARK    7  A    between atoms: C_25  and  C_27 
REMARK    8  A    between atoms: C_27  and  C_28 
REMARK    9  A    between atoms: C_31  and  O_32 
REMARK   10  A    between atoms: C_33  and  O_34 
REMARK   11  A    between atoms: C_38  and  O_39 
ROOT
HETATM    1  C   UNL     1     -21.356  -9.667  -1.220  1.00  0.00     0.116 C 
HETATM    2  C   UNL     1     -21.414 -11.151  -1.566  1.00  0.00     0.053 C 
HETATM    3  C   UNL     1     -21.618 -11.345  -3.047  1.00  0.00     0.020 C 
HETATM    4  C   UNL     1     -23.036 -11.088  -3.608  1.00  0.00     0.013 C 
HETATM    5  C   UNL     1     -20.525 -10.564  -3.870  1.00  0.00     0.083 C 
HETATM    6  O   UNL     1     -21.023  -9.223  -4.188  1.00  0.00    -0.320 OA
HETATM    7  C   UNL     1     -20.993  -8.252  -3.034  1.00  0.00     0.288 C 
HETATM    8  O   UNL     1     -19.788  -8.066  -2.326  1.00  0.00    -0.323 OA
HETATM    9  C   UNL     1     -19.709  -9.362  -1.763  1.00  0.00     0.173 C 
HETATM   10  C   UNL     1     -19.228 -10.199  -3.114  1.00  0.00     0.054 C 
HETATM   11  C   UNL     1     -18.438  -9.310  -4.220  1.00  0.00     0.017 C 
HETATM   12  C   UNL     1     -17.576  -9.828  -5.120  1.00  0.00     0.014 C 
HETATM   13  C   UNL     1     -18.210 -10.412  -6.381  1.00  0.00     0.053 C 
HETATM   14  C   UNL     1     -18.931 -11.680  -5.948  1.00  0.00     0.125 C 
HETATM   15  C   UNL     1     -19.446 -12.516  -7.111  1.00  0.00     0.165 C 
HETATM   16  O   UNL     1     -18.791 -12.827  -8.097  1.00  0.00    -0.294 OA
HETATM   17  C   UNL     1     -20.792 -13.119  -6.800  1.00  0.00     0.055 C 
HETATM   18  C   UNL     1     -20.549 -14.536  -6.284  1.00  0.00     0.018 C 
HETATM   19  C   UNL     1     -21.281 -12.158  -5.982  1.00  0.00     0.023 C 
HETATM   20  C   UNL     1     -20.194 -11.606  -5.056  1.00  0.00     0.064 C 
HETATM   21  O   UNL     1     -21.927  -8.800  -2.203  1.00  0.00    -0.314 OA
ENDROOT
BRANCH  12  22
HETATM   22  C   UNL     1     -16.248 -10.389  -4.707  1.00  0.00     0.183 C 
BRANCH  22  23
HETATM   23  O   UNL     1     -15.557 -10.890  -5.844  1.00  0.00    -0.321 OA
BRANCH  23  24
HETATM   24  C   UNL     1     -14.948 -12.097  -5.705  1.00  0.00     0.263 C 
HETATM   25  O   UNL     1     -15.225 -13.140  -6.274  1.00  0.00    -0.265 OA
BRANCH  24  26
HETATM   26  C   UNL     1     -13.736 -11.938  -4.807  1.00  0.00     0.149 C 
BRANCH  26  27
HETATM   27  C   UNL     1     -13.810 -12.750  -3.569  1.00  0.00    -0.046 A 
HETATM   28  C   UNL     1     -12.877 -13.756  -3.330  1.00  0.00     0.010 A 
HETATM   29  C   UNL     1     -12.985 -14.623  -2.256  1.00  0.00     0.040 A 
HETATM   30  C   UNL     1     -14.082 -14.440  -1.349  1.00  0.00     0.099 A 
HETATM   31  C   UNL     1     -14.995 -13.404  -1.563  1.00  0.00     0.101 A 
HETATM   32  C   UNL     1     -14.894 -12.588  -2.688  1.00  0.00     0.047 A 
BRANCH  30  33
HETATM   33  O   UNL     1     -14.226 -15.290  -0.291  1.00  0.00    -0.358 OA
HETATM   34  H   UNL     1     -14.994 -15.020   0.228  1.00  0.00     0.217 HD
ENDBRANCH  30  33
BRANCH  31  35
HETATM   35  O   UNL     1     -16.022 -13.076  -0.705  1.00  0.00    -0.353 OA
HETATM   36  C   UNL     1     -15.642 -12.082   0.241  1.00  0.00     0.210 C 
ENDBRANCH  31  35
ENDBRANCH  26  27
ENDBRANCH  24  26
ENDBRANCH  23  24
ENDBRANCH  22  23
ENDBRANCH  12  22
BRANCH  14  37
HETATM   37  O   UNL     1     -17.975 -12.583  -5.321  1.00  0.00    -0.382 OA
HETATM   38  H   UNL     1     -18.308 -12.742  -4.418  1.00  0.00     0.211 HD
ENDBRANCH  14  37
BRANCH   1  39
HETATM   39  C   UNL     1     -22.801  -9.337  -0.471  1.00  0.00    -0.056 C 
HETATM   40  C   UNL     1     -23.052  -8.256   0.334  1.00  0.00     0.017 C 
HETATM   41  C   UNL     1     -23.784 -10.483  -0.081  1.00  0.00     0.046 C 
ENDBRANCH   1  39
BRANCH   7  42
HETATM   42  C   UNL     1     -21.517  -6.954  -3.579  1.00  0.00     0.140 C 
BRANCH  42  43
HETATM   43  C   UNL     1     -21.491  -6.288  -4.962  1.00  0.00    -0.051 A 
HETATM   44  C   UNL     1     -22.525  -5.856  -5.808  1.00  0.00     0.007 A 
HETATM   45  C   UNL     1     -22.279  -4.837  -6.749  1.00  0.00     0.001 A 
HETATM   46  C   UNL     1     -21.008  -4.240  -6.856  1.00  0.00     0.000 A 
HETATM   47  C   UNL     1     -19.968  -4.733  -6.093  1.00  0.00     0.001 A 
HETATM   48  C   UNL     1     -20.198  -5.752  -5.182  1.00  0.00     0.007 A 
ENDBRANCH  42  43
ENDBRANCH   7  42
TORSDOF 11
ENDMDL
MODEL 8
REMARK VINA RESULT:      -9.6      3.053      8.580
REMARK  11 active torsions:
REMARK  status: ('A' for Active; 'I' for Inactive)
REMARK    1  A    between atoms: C_2  and  C_4 
REMARK    2  A    between atoms: C_10  and  C_11 
REMARK    3  A    between atoms: C_11  and  C_12 
REMARK    4  A    between atoms: C_22  and  C_23 
REMARK    5  A    between atoms: C_23  and  O_24 
REMARK    6  A    between atoms: O_24  and  C_25 
REMARK    7  A    between atoms: C_25  and  C_27 
REMARK    8  A    between atoms: C_27  and  C_28 
REMARK    9  A    between atoms: C_31  and  O_32 
REMARK   10  A    between atoms: C_33  and  O_34 
REMARK   11  A    between atoms: C_38  and  O_39 
ROOT
HETATM    1  C   UNL     1     -21.151  -9.175  -0.514  1.00  0.00     0.116 C 
HETATM    2  C   UNL     1     -21.659 -10.305   0.375  1.00  0.00     0.053 C 
HETATM    3  C   UNL     1     -22.460 -11.298  -0.429  1.00  0.00     0.020 C 
HETATM    4  C   UNL     1     -23.892 -10.885  -0.842  1.00  0.00     0.013 C 
HETATM    5  C   UNL     1     -21.633 -11.813  -1.666  1.00  0.00     0.083 C 
HETATM    6  O   UNL     1     -21.912 -10.962  -2.827  1.00  0.00    -0.320 OA
HETATM    7  C   UNL     1     -21.226  -9.620  -2.800  1.00  0.00     0.288 C 
HETATM    8  O   UNL     1     -19.831  -9.566  -2.600  1.00  0.00    -0.323 OA
HETATM    9  C   UNL     1     -19.822 -10.049  -1.270  1.00  0.00     0.173 C 
HETATM   10  C   UNL     1     -20.098 -11.656  -1.579  1.00  0.00     0.054 C 
HETATM   11  C   UNL     1     -19.629 -12.157  -3.052  1.00  0.00     0.017 C 
HETATM   12  C   UNL     1     -19.319 -13.437  -3.343  1.00  0.00     0.014 C 
HETATM   13  C   UNL     1     -20.503 -14.346  -3.667  1.00  0.00     0.053 C 
HETATM   14  C   UNL     1     -21.256 -14.549  -2.359  1.00  0.00     0.125 C 
HETATM   15  C   UNL     1     -22.350 -15.602  -2.443  1.00  0.00     0.165 C 
HETATM   16  O   UNL     1     -22.215 -16.719  -2.924  1.00  0.00    -0.294 OA
HETATM   17  C   UNL     1     -23.565 -15.197  -1.648  1.00  0.00     0.055 C 
HETATM   18  C   UNL     1     -23.453 -15.857  -0.275  1.00  0.00     0.018 C 
HETATM   19  C   UNL     1     -23.476 -13.854  -1.780  1.00  0.00     0.023 C 
HETATM   20  C   UNL     1     -22.023 -13.378  -1.699  1.00  0.00     0.064 C 
HETATM   21  O   UNL     1     -21.858  -9.021  -1.748  1.00  0.00    -0.314 OA
ENDROOT
BRANCH  12  22
HETATM   22  C   UNL     1     -18.091 -14.097  -2.791  1.00  0.00     0.183 C 
BRANCH  22  23
HETATM   23  O   UNL     1     -17.699 -13.462  -1.581  1.00  0.00    -0.321 OA
BRANCH  23  24
HETATM   24  C   UNL     1     -16.416 -13.653  -1.178  1.00  0.00     0.263 C 
HETATM   25  O   UNL     1     -15.831 -14.715  -1.037  1.00  0.00    -0.265 OA
BRANCH  24  26
HETATM   26  C   UNL     1     -15.732 -12.305  -1.050  1.00  0.00     0.149 C 
BRANCH  26  27
HETATM   27  C   UNL     1     -15.679 -11.549  -2.324  1.00  0.00    -0.046 A 
HETATM   28  C   UNL     1     -16.364 -10.344  -2.456  1.00  0.00     0.010 A 
HETATM   29  C   UNL     1     -16.451  -9.672  -3.664  1.00  0.00     0.040 A 
HETATM   30  C   UNL     1     -15.775 -10.234  -4.798  1.00  0.00     0.099 A 
HETATM   31  C   UNL     1     -15.050 -11.421  -4.658  1.00  0.00     0.101 A 
HETATM   32  C   UNL     1     -15.035 -12.106  -3.443  1.00  0.00     0.047 A 
BRANCH  30  33
HETATM   33  O   UNL     1     -15.856  -9.606  -6.007  1.00  0.00    -0.358 OA
HETATM   34  H   UNL     1     -16.678  -9.865  -6.443  1.00  0.00     0.217 HD
ENDBRANCH  30  33
BRANCH  31  35
HETATM   35  O   UNL     1     -14.284 -11.993  -5.649  1.00  0.00    -0.353 OA
HETATM   36  C   UNL     1     -14.961 -13.055  -6.313  1.00  0.00     0.210 C 
ENDBRANCH  31  35
ENDBRANCH  26  27
ENDBRANCH  24  26
ENDBRANCH  23  24
ENDBRANCH  22  23
ENDBRANCH  12  22
BRANCH  14  37
HETATM   37  O   UNL     1     -20.351 -15.122  -1.373  1.00  0.00    -0.382 OA
HETATM   38  H   UNL     1     -19.473 -15.150  -1.797  1.00  0.00     0.211 HD
ENDBRANCH  14  37
BRANCH   1  39
HETATM   39  C   UNL     1     -22.082  -7.858  -0.120  1.00  0.00    -0.056 C 
HETATM   40  C   UNL     1     -23.115  -7.852   0.781  1.00  0.00     0.017 C 
HETATM   41  C   UNL     1     -22.311  -6.703  -1.143  1.00  0.00     0.046 C 
ENDBRANCH   1  39
BRANCH   7  42
HETATM   42  C   UNL     1     -21.626  -8.931  -4.073  1.00  0.00     0.140 C 
BRANCH  42  43
HETATM   43  C   UNL     1     -21.177  -7.644  -4.779  1.00  0.00    -0.051 A 
HETATM   44  C   UNL     1     -20.046  -7.356  -5.559  1.00  0.00     0.007 A 
HETATM   45  C   UNL     1     -20.096  -6.313  -6.505  1.00  0.00     0.001 A 
HETATM   46  C   UNL     1     -21.267  -5.552  -6.685  1.00  0.00     0.000 A 
HETATM   47  C   UNL     1     -22.345  -5.771  -5.849  1.00  0.00     0.001 A 
HETATM   48  C   UNL     1     -22.294  -6.780  -4.900  1.00  0.00     0.007 A 
ENDBRANCH  42  43
ENDBRANCH   7  42
TORSDOF 11
ENDMDL
MODEL 9
REMARK VINA RESULT:      -9.5      3.339      6.304
REMARK  11 active torsions:
REMARK  status: ('A' for Active; 'I' for Inactive)
REMARK    1  A    between atoms: C_2  and  C_4 
REMARK    2  A    between atoms: C_10  and  C_11 
REMARK    3  A    between atoms: C_11  and  C_12 
REMARK    4  A    between atoms: C_22  and  C_23 
REMARK    5  A    between atoms: C_23  and  O_24 
REMARK    6  A    between atoms: O_24  and  C_25 
REMARK    7  A    between atoms: C_25  and  C_27 
REMARK    8  A    between atoms: C_27  and  C_28 
REMARK    9  A    between atoms: C_31  and  O_32 
REMARK   10  A    between atoms: C_33  and  O_34 
REMARK   11  A    between atoms: C_38  and  O_39 
ROOT
HETATM    1  C   UNL     1     -22.084 -11.874   0.141  1.00  0.00     0.116 C 
HETATM    2  C   UNL     1     -20.729 -11.206   0.340  1.00  0.00     0.053 C 
HETATM    3  C   UNL     1     -19.781 -11.581  -0.771  1.00  0.00     0.020 C 
HETATM    4  C   UNL     1     -19.166 -12.999  -0.730  1.00  0.00     0.013 C 
HETATM    5  C   UNL     1     -20.418 -11.272  -2.178  1.00  0.00     0.083 C 
HETATM    6  O   UNL     1     -21.126 -12.460  -2.662  1.00  0.00    -0.320 OA
HETATM    7  C   UNL     1     -22.459 -12.710  -2.001  1.00  0.00     0.288 C 
HETATM    8  O   UNL     1     -23.412 -11.671  -1.967  1.00  0.00    -0.323 OA
HETATM    9  C   UNL     1     -22.696 -10.799  -1.113  1.00  0.00     0.173 C 
HETATM   10  C   UNL     1     -21.571 -10.243  -2.199  1.00  0.00     0.054 C 
HETATM   11  C   UNL     1     -22.038 -10.300  -3.753  1.00  0.00     0.017 C 
HETATM   12  C   UNL     1     -21.529  -9.506  -4.718  1.00  0.00     0.014 C 
HETATM   13  C   UNL     1     -20.215  -9.980  -5.337  1.00  0.00     0.053 C 
HETATM   14  C   UNL     1     -19.150  -9.807  -4.264  1.00  0.00     0.125 C 
HETATM   15  C   UNL     1     -17.733 -10.030  -4.770  1.00  0.00     0.165 C 
HETATM   16  O   UNL     1     -17.263  -9.534  -5.786  1.00  0.00    -0.294 OA
HETATM   17  C   UNL     1     -16.890 -10.748  -3.747  1.00  0.00     0.055 C 
HETATM   18  C   UNL     1     -16.120  -9.687  -2.964  1.00  0.00     0.018 C 
HETATM   19  C   UNL     1     -17.852 -11.488  -3.150  1.00  0.00     0.023 C 
HETATM   20  C   UNL     1     -19.153 -10.696  -2.996  1.00  0.00     0.064 C 
HETATM   21  O   UNL     1     -22.070 -13.011  -0.728  1.00  0.00    -0.314 OA
ENDROOT
BRANCH  12  22
HETATM   22  C   UNL     1     -21.799  -8.032  -4.750  1.00  0.00     0.183 C 
BRANCH  22  23
HETATM   23  O   UNL     1     -21.432  -7.497  -6.016  1.00  0.00    -0.321 OA
BRANCH  23  24
HETATM   24  C   UNL     1     -20.812  -6.289  -6.011  1.00  0.00     0.263 C 
HETATM   25  O   UNL     1     -19.639  -6.055  -5.766  1.00  0.00    -0.265 OA
BRANCH  24  26
HETATM   26  C   UNL     1     -21.782  -5.234  -6.507  1.00  0.00     0.149 C 
BRANCH  26  27
HETATM   27  C   UNL     1     -21.582  -4.874  -7.931  1.00  0.00    -0.046 A 
HETATM   28  C   UNL     1     -20.344  -5.069  -8.539  1.00  0.00     0.010 A 
HETATM   29  C   UNL     1     -20.074  -4.628  -9.824  1.00  0.00     0.040 A 
HETATM   30  C   UNL     1     -21.129  -3.981 -10.550  1.00  0.00     0.099 A 
HETATM   31  C   UNL     1     -22.385  -3.823  -9.958  1.00  0.00     0.101 A 
HETATM   32  C   UNL     1     -22.606  -4.222  -8.641  1.00  0.00     0.047 A 
BRANCH  30  33
HETATM   33  O   UNL     1     -20.889  -3.518 -11.811  1.00  0.00    -0.358 OA
HETATM   34  H   UNL     1     -20.463  -4.214 -12.327  1.00  0.00     0.217 HD
ENDBRANCH  30  33
BRANCH  31  35
HETATM   35  O   UNL     1     -23.493  -3.310 -10.597  1.00  0.00    -0.353 OA
HETATM   36  C   UNL     1     -24.677  -3.439  -9.816  1.00  0.00     0.210 C 
ENDBRANCH  31  35
ENDBRANCH  26  27
ENDBRANCH  24  26
ENDBRANCH  23  24
ENDBRANCH  22  23
ENDBRANCH  12  22
BRANCH  14  37
HETATM   37  O   UNL     1     -19.113  -8.412  -3.849  1.00  0.00    -0.382 OA
HETATM   38  H   UNL     1     -20.002  -8.209  -3.505  1.00  0.00     0.211 HD
ENDBRANCH  14  37
BRANCH   1  39
HETATM   39  C   UNL     1     -22.150 -13.078   1.283  1.00  0.00    -0.056 C 
HETATM   40  C   UNL     1     -21.269 -14.123   1.391  1.00  0.00     0.017 C 
HETATM   41  C   UNL     1     -23.507 -13.508   1.919  1.00  0.00     0.046 C 
ENDBRANCH   1  39
BRANCH   7  42
HETATM   42  C   UNL     1     -23.013 -13.944  -2.653  1.00  0.00     0.140 C 
BRANCH  42  43
HETATM   43  C   UNL     1     -23.836 -15.139  -2.151  1.00  0.00    -0.051 A 
HETATM   44  C   UNL     1     -24.603 -15.320  -0.990  1.00  0.00     0.007 A 
HETATM   45  C   UNL     1     -25.656 -16.255  -0.985  1.00  0.00     0.001 A 
HETATM   46  C   UNL     1     -25.956 -17.015  -2.133  1.00  0.00     0.000 A 
HETATM   47  C   UNL     1     -25.140 -16.908  -3.242  1.00  0.00     0.001 A 
HETATM   48  C   UNL     1     -24.087 -16.006  -3.244  1.00  0.00     0.007 A 
ENDBRANCH  42  43
ENDBRANCH   7  42
TORSDOF 11
ENDMDL
