REMARK  11 active torsions:
REMARK  status: ('A' for Active; 'I' for Inactive)
REMARK    1  A    between atoms: C_2  and  C_4 
REMARK    2  A    between atoms: C_10  and  C_11 
REMARK    3  A    between atoms: C_11  and  C_12 
REMARK    4  A    between atoms: C_22  and  C_23 
REMARK    5  A    between atoms: C_23  and  O_24 
REMARK    6  A    between atoms: O_24  and  C_25 
REMARK    7  A    between atoms: C_25  and  C_27 
REMARK    8  A    between atoms: C_27  and  C_28 
REMARK    9  A    between atoms: C_31  and  O_32 
REMARK   10  A    between atoms: C_33  and  O_34 
REMARK   11  A    between atoms: C_38  and  O_39 
ROOT
HETATM    1  C   UNL     1       4.320  -5.373  -4.781  1.00  0.00     0.116 C 
HETATM    2  C   UNL     1       4.531  -4.079  -5.555  1.00  0.00     0.053 C 
HETATM    3  C   UNL     1       6.009  -3.792  -5.605  1.00  0.00     0.020 C 
HETATM    4  C   UNL     1       6.546  -3.177  -4.288  1.00  0.00     0.013 C 
HETATM    5  C   UNL     1       6.800  -5.079  -6.100  1.00  0.00     0.083 C 
HETATM    6  O   UNL     1       7.306  -5.825  -4.960  1.00  0.00    -0.320 OA
HETATM    7  C   UNL     1       6.234  -6.493  -4.163  1.00  0.00     0.288 C 
HETATM    8  O   UNL     1       5.430  -7.425  -4.893  1.00  0.00    -0.323 OA
HETATM    9  C   UNL     1       4.749  -6.539  -5.778  1.00  0.00     0.173 C 
HETATM   10  C   UNL     1       5.920  -6.157  -6.819  1.00  0.00     0.054 C 
HETATM   11  C   UNL     1       6.818  -7.433  -7.182  1.00  0.00     0.017 C 
HETATM   12  C   UNL     1       7.856  -7.394  -8.049  1.00  0.00     0.014 C 
HETATM   13  C   UNL     1       9.093  -6.559  -7.769  1.00  0.00     0.053 C 
HETATM   14  C   UNL     1       8.743  -5.123  -8.082  1.00  0.00     0.125 C 
HETATM   15  C   UNL     1       9.917  -4.157  -8.147  1.00  0.00     0.165 C 
HETATM   16  O   UNL     1      10.926  -4.317  -8.821  1.00  0.00    -0.294 OA
HETATM   17  C   UNL     1       9.598  -2.862  -7.455  1.00  0.00     0.055 C 
HETATM   18  C   UNL     1       9.081  -1.864  -8.480  1.00  0.00     0.018 C 
HETATM   19  C   UNL     1       8.772  -3.345  -6.503  1.00  0.00     0.023 C 
HETATM   20  C   UNL     1       7.837  -4.409  -7.083  1.00  0.00     0.064 C 
HETATM   21  O   UNL     1       5.338  -5.497  -3.728  1.00  0.00    -0.314 OA
ENDROOT
BRANCH  12  22
HETATM   22  C   UNL     1       7.682  -7.825  -9.481  1.00  0.00     0.183 C 
BRANCH  22  23
HETATM   23  O   UNL     1       7.385  -9.219  -9.528  1.00  0.00    -0.321 OA
BRANCH  23  24
HETATM   24  C   UNL     1       8.454 -10.050  -9.461  1.00  0.00     0.263 C 
HETATM   25  O   UNL     1       9.641  -9.726  -9.420  1.00  0.00    -0.265 OA
BRANCH  24  26
HETATM   26  C   UNL     1       8.004 -11.492  -9.497  1.00  0.00     0.149 C 
BRANCH  26  27
HETATM   27  C   UNL     1       7.908 -12.005 -10.909  1.00  0.00    -0.046 A 
HETATM   28  C   UNL     1       9.041 -12.534 -11.539  1.00  0.00     0.010 A 
HETATM   29  C   UNL     1       8.954 -13.027 -12.842  1.00  0.00     0.040 A 
HETATM   30  C   UNL     1       7.740 -12.983 -13.533  1.00  0.00     0.099 A 
HETATM   31  C   UNL     1       6.600 -12.445 -12.919  1.00  0.00     0.101 A 
HETATM   32  C   UNL     1       6.702 -11.946 -11.615  1.00  0.00     0.047 A 
BRANCH  30  33
HETATM   33  O   UNL     1       7.696 -13.458 -14.811  1.00  0.00    -0.358 OA
HETATM   34  H   UNL     1       8.583 -13.756 -15.067  1.00  0.00     0.217 HD
ENDBRANCH  30  33
BRANCH  31  35
HETATM   35  O   UNL     1       5.355 -12.304 -13.476  1.00  0.00    -0.353 OA
HETATM   36  C   UNL     1       4.960 -13.333 -14.376  1.00  0.00     0.210 C 
ENDBRANCH  31  35
ENDBRANCH  26  27
ENDBRANCH  24  26
ENDBRANCH  23  24
ENDBRANCH  22  23
ENDBRANCH  12  22
BRANCH  14  37
HETATM   37  O   UNL     1       8.165  -5.005  -9.411  1.00  0.00    -0.382 OA
HETATM   38  H   UNL     1       8.891  -5.173 -10.040  1.00  0.00     0.211 HD
ENDBRANCH  14  37
BRANCH   1  39
HETATM   39  C   UNL     1       3.019  -5.101  -3.991  1.00  0.00    -0.056 C 
HETATM   40  C   UNL     1       3.087  -4.511  -2.771  1.00  0.00     0.017 C 
HETATM   41  C   UNL     1       1.661  -5.125  -4.639  1.00  0.00     0.046 C 
ENDBRANCH   1  39
BRANCH   7  42
HETATM   42  C   UNL     1       6.958  -7.284  -3.062  1.00  0.00     0.140 C 
BRANCH  42  43
HETATM   43  C   UNL     1       6.195  -7.892  -1.901  1.00  0.00    -0.051 A 
HETATM   44  C   UNL     1       6.428  -9.227  -1.530  1.00  0.00     0.007 A 
HETATM   45  C   UNL     1       5.999  -9.707  -0.289  1.00  0.00     0.001 A 
HETATM   46  C   UNL     1       5.312  -8.866   0.583  1.00  0.00     0.000 A 
HETATM   47  C   UNL     1       5.003  -7.566   0.190  1.00  0.00     0.001 A 
HETATM   48  C   UNL     1       5.436  -7.086  -1.046  1.00  0.00     0.007 A 
ENDBRANCH  42  43
ENDBRANCH   7  42
TORSDOF 11
