REMARK  11 active torsions:
REMARK  status: ('A' for Active; 'I' for Inactive)
REMARK    1  A    between atoms: C_2  and  C_4 
REMARK    2  A    between atoms: C_10  and  C_11 
REMARK    3  A    between atoms: C_11  and  C_12 
REMARK    4  A    between atoms: C_22  and  C_23 
REMARK    5  A    between atoms: C_23  and  O_24 
REMARK    6  A    between atoms: O_24  and  C_25 
REMARK    7  A    between atoms: C_25  and  C_27 
REMARK    8  A    between atoms: C_27  and  C_28 
REMARK    9  A    between atoms: C_31  and  O_32 
REMARK   10  A    between atoms: C_33  and  O_34 
REMARK   11  A    between atoms: C_38  and  O_39 
ROOT
HETATM    1  C   UNL     1       5.649  -6.508   1.781  1.00  0.00     0.116 C 
HETATM    2  C   UNL     1       6.534  -5.424   2.283  1.00  0.00     0.053 C 
HETATM    3  C   UNL     1       6.333  -5.491   3.799  1.00  0.00     0.021 C 
HETATM    4  C   UNL     1       5.008  -4.742   4.253  1.00  0.00     0.013 C 
HETATM    5  C   UNL     1       6.205  -6.962   4.307  1.00  0.00     0.086 C 
HETATM    6  O   UNL     1       4.836  -7.322   3.647  1.00  0.00    -0.319 OA
HETATM    7  C   UNL     1       4.680  -8.063   2.001  1.00  0.00     0.288 C 
HETATM    8  O   UNL     1       5.563  -9.109   1.753  1.00  0.00    -0.323 OA
HETATM    9  C   UNL     1       6.499  -8.184   2.338  1.00  0.00     0.177 C 
HETATM   10  C   UNL     1       6.906  -8.191   3.850  1.00  0.00     0.077 C 
HETATM   11  C   UNL     1       6.101  -9.342   4.844  1.00  0.00    -0.011 C 
HETATM   12  C   UNL     1       6.730  -9.936   5.865  1.00  0.00    -0.056 C 
HETATM   13  C   UNL     1       6.468  -9.209   7.161  1.00  0.00     0.082 C 
HETATM   14  C   UNL     1       7.169  -7.858   6.995  1.00  0.00     0.128 C 
HETATM   15  C   UNL     1       7.032  -7.048   8.277  1.00  0.00     0.165 C 
HETATM   16  O   UNL     1       7.301  -7.446   9.403  1.00  0.00    -0.294 OA
HETATM   17  C   UNL     1       6.693  -5.622   7.984  1.00  0.00     0.055 C 
HETATM   18  C   UNL     1       7.970  -4.808   8.070  1.00  0.00     0.018 C 
HETATM   19  C   UNL     1       6.009  -5.780   6.827  1.00  0.00     0.023 C 
HETATM   20  C   UNL     1       6.663  -6.805   5.916  1.00  0.00     0.065 C 
HETATM   21  O   UNL     1       5.146  -7.352   0.866  1.00  0.00    -0.314 OA
ENDROOT
BRANCH  12  22
HETATM   22  C   UNL     1       8.089 -10.545   5.710  1.00  0.00     0.212 C 
BRANCH  22  23
HETATM   23  O   UNL     1       7.960 -11.755   4.978  1.00  0.00    -0.317 OA
BRANCH  23  24
HETATM   24  C   UNL     1       7.852 -12.892   5.733  1.00  0.00     0.263 C 
HETATM   25  O   UNL     1       7.808 -12.932   6.954  1.00  0.00    -0.265 OA
BRANCH  24  26
HETATM   26  C   UNL     1       7.819 -14.073   4.810  1.00  0.00     0.149 C 
BRANCH  26  27
HETATM   27  C   UNL     1       6.441 -14.383   4.294  1.00  0.00    -0.046 A 
HETATM   28  C   UNL     1       5.563 -15.193   5.020  1.00  0.00     0.010 A 
HETATM   29  C   UNL     1       4.292 -15.461   4.519  1.00  0.00     0.040 A 
HETATM   30  C   UNL     1       3.874 -14.925   3.296  1.00  0.00     0.099 A 
HETATM   31  C   UNL     1       4.726 -14.080   2.578  1.00  0.00     0.101 A 
HETATM   32  C   UNL     1       6.003 -13.835   3.071  1.00  0.00     0.047 A 
BRANCH  30  33
HETATM   33  O   UNL     1       2.641 -15.264   2.825  1.00  0.00    -0.358 OA
HETATM   34  H   UNL     1       2.230 -15.914   3.417  1.00  0.00     0.217 HD
ENDBRANCH  30  33
BRANCH  31  35
HETATM   35  O   UNL     1       4.470 -13.487   1.370  1.00  0.00    -0.353 OA
HETATM   36  C   UNL     1       3.112 -13.154   1.113  1.00  0.00     0.210 C 
ENDBRANCH  31  35
ENDBRANCH  26  27
ENDBRANCH  24  26
ENDBRANCH  23  24
ENDBRANCH  22  23
ENDBRANCH  12  22
BRANCH  14  37
HETATM   37  O   UNL     1       8.605  -8.041   6.872  1.00  0.00    -0.381 OA
HETATM   38  H   UNL     1       8.909  -8.440   7.714  1.00  0.00     0.211 HD
ENDBRANCH  14  37
BRANCH   1  39
HETATM   39  C   UNL     1       4.579  -5.601   0.777  1.00  0.00    -0.056 C 
HETATM   40  C   UNL     1       5.067  -4.871  -0.214  1.00  0.00     0.017 C 
HETATM   41  C   UNL     1       3.045  -5.849   0.499  1.00  0.00     0.046 C 
ENDBRANCH   1  39
BRANCH   7  42
HETATM   42  C   UNL     1       3.312  -8.240   2.358  1.00  0.00     0.140 C 
BRANCH  42  43
HETATM   43  C   UNL     1       2.257  -8.997   1.793  1.00  0.00    -0.051 A 
HETATM   44  C   UNL     1       2.257  -9.518   0.531  1.00  0.00     0.007 A 
HETATM   45  C   UNL     1       1.121 -10.182   0.162  1.00  0.00     0.001 A 
HETATM   46  C   UNL     1       0.060 -10.320   1.097  1.00  0.00     0.000 A 
HETATM   47  C   UNL     1       0.156  -9.775   2.381  1.00  0.00     0.001 A 
HETATM   48  C   UNL     1       1.226  -9.097   2.747  1.00  0.00     0.007 A 
ENDBRANCH  42  43
ENDBRANCH   7  42
TORSDOF 11
