REMARK  11 active torsions:
REMARK  status: ('A' for Active; 'I' for Inactive)
REMARK    1  A    between atoms: C_2  and  C_4 
REMARK    2  A    between atoms: C_10  and  C_11 
REMARK    3  A    between atoms: C_11  and  C_12 
REMARK    4  A    between atoms: C_22  and  C_23 
REMARK    5  A    between atoms: C_23  and  O_24 
REMARK    6  A    between atoms: O_24  and  C_25 
REMARK    7  A    between atoms: C_25  and  C_27 
REMARK    8  A    between atoms: C_27  and  C_28 
REMARK    9  A    between atoms: C_31  and  O_32 
REMARK   10  A    between atoms: C_33  and  O_34 
REMARK   11  A    between atoms: C_38  and  O_39 
ROOT
HETATM    1  C   UNL     1       5.699  -6.621  -0.879  1.00  0.00     0.116 C 
HETATM    2  C   UNL     1       6.872  -5.879  -0.249  1.00  0.00     0.053 C 
HETATM    3  C   UNL     1       6.895  -6.087   1.244  1.00  0.00     0.020 C 
HETATM    4  C   UNL     1       5.859  -5.305   2.085  1.00  0.00     0.013 C 
HETATM    5  C   UNL     1       6.878  -7.622   1.596  1.00  0.00     0.083 C 
HETATM    6  O   UNL     1       5.492  -8.067   1.764  1.00  0.00    -0.320 OA
HETATM    7  C   UNL     1       4.731  -8.251   0.475  1.00  0.00     0.288 C 
HETATM    8  O   UNL     1       5.284  -9.062  -0.538  1.00  0.00    -0.323 OA
HETATM    9  C   UNL     1       6.394  -8.239  -0.840  1.00  0.00     0.173 C 
HETATM   10  C   UNL     1       7.338  -8.587   0.480  1.00  0.00     0.054 C 
HETATM   11  C   UNL     1       7.055 -10.036   1.157  1.00  0.00     0.017 C 
HETATM   12  C   UNL     1       7.964 -10.710   1.891  1.00  0.00     0.014 C 
HETATM   13  C   UNL     1       8.060 -10.302   3.360  1.00  0.00     0.053 C 
HETATM   14  C   UNL     1       8.684  -8.914   3.378  1.00  0.00     0.125 C 
HETATM   15  C   UNL     1       9.054  -8.430   4.772  1.00  0.00     0.165 C 
HETATM   16  O   UNL     1       9.674  -9.083   5.601  1.00  0.00    -0.294 OA
HETATM   17  C   UNL     1       8.773  -6.958   4.935  1.00  0.00     0.055 C 
HETATM   18  C   UNL     1      10.077  -6.211   4.659  1.00  0.00     0.018 C 
HETATM   19  C   UNL     1       7.717  -6.841   4.098  1.00  0.00     0.023 C 
HETATM   20  C   UNL     1       7.905  -7.690   2.838  1.00  0.00     0.064 C 
HETATM   21  O   UNL     1       4.649  -6.963   0.030  1.00  0.00    -0.314 OA
ENDROOT
BRANCH  12  22
HETATM   22  C   UNL     1       9.194 -11.304   1.272  1.00  0.00     0.183 C 
BRANCH  22  23
HETATM   23  O   UNL     1       8.831 -12.321   0.347  1.00  0.00    -0.321 OA
BRANCH  23  24
HETATM   24  C   UNL     1       8.660 -13.571   0.850  1.00  0.00     0.263 C 
HETATM   25  O   UNL     1       8.852 -13.945   1.996  1.00  0.00    -0.265 OA
BRANCH  24  26
HETATM   26  C   UNL     1       8.041 -14.453  -0.218  1.00  0.00     0.149 C 
BRANCH  26  27
HETATM   27  C   UNL     1       6.564 -14.540  -0.125  1.00  0.00    -0.046 A 
HETATM   28  C   UNL     1       5.945 -15.764   0.116  1.00  0.00     0.010 A 
HETATM   29  C   UNL     1       4.569 -15.916   0.080  1.00  0.00     0.040 A 
HETATM   30  C   UNL     1       3.769 -14.753  -0.180  1.00  0.00     0.099 A 
HETATM   31  C   UNL     1       4.386 -13.515  -0.379  1.00  0.00     0.101 A 
HETATM   32  C   UNL     1       5.776 -13.408  -0.399  1.00  0.00     0.047 A 
BRANCH  30  33
HETATM   33  O   UNL     1       2.411 -14.873  -0.240  1.00  0.00    -0.358 OA
HETATM   34  H   UNL     1       2.172 -15.804  -0.149  1.00  0.00     0.217 HD
ENDBRANCH  30  33
BRANCH  31  35
HETATM   35  O   UNL     1       3.716 -12.322  -0.535  1.00  0.00    -0.353 OA
HETATM   36  C   UNL     1       2.547 -12.246   0.275  1.00  0.00     0.210 C 
ENDBRANCH  31  35
ENDBRANCH  26  27
ENDBRANCH  24  26
ENDBRANCH  23  24
ENDBRANCH  22  23
ENDBRANCH  12  22
BRANCH  14  37
HETATM   37  O   UNL     1       9.980  -8.965   2.716  1.00  0.00    -0.382 OA
HETATM   38  H   UNL     1      10.541  -9.542   3.267  1.00  0.00     0.211 HD
ENDBRANCH  14  37
BRANCH   1  39
HETATM   39  C   UNL     1       4.604  -5.441  -1.287  1.00  0.00    -0.056 C 
HETATM   40  C   UNL     1       4.721  -4.108  -0.989  1.00  0.00     0.017 C 
HETATM   41  C   UNL     1       3.092  -5.777  -1.467  1.00  0.00     0.046 C 
ENDBRANCH   1  39
BRANCH   7  42
HETATM   42  C   UNL     1       3.362  -8.724   0.873  1.00  0.00     0.140 C 
BRANCH  42  43
HETATM   43  C   UNL     1       2.024  -8.865   0.134  1.00  0.00    -0.051 A 
HETATM   44  C   UNL     1       1.699  -9.446  -1.102  1.00  0.00     0.007 A 
HETATM   45  C   UNL     1       0.391  -9.915  -1.332  1.00  0.00     0.001 A 
HETATM   46  C   UNL     1      -0.602  -9.813  -0.338  1.00  0.00     0.000 A 
HETATM   47  C   UNL     1      -0.308  -9.153   0.839  1.00  0.00     0.001 A 
HETATM   48  C   UNL     1       0.971  -8.668   1.062  1.00  0.00     0.007 A 
ENDBRANCH  42  43
ENDBRANCH   7  42
TORSDOF 11
