REMARK  11 active torsions:
REMARK  status: ('A' for Active; 'I' for Inactive)
REMARK    1  A    between atoms: C_2  and  C_4 
REMARK    2  A    between atoms: C_10  and  C_11 
REMARK    3  A    between atoms: C_11  and  C_12 
REMARK    4  A    between atoms: C_22  and  C_23 
REMARK    5  A    between atoms: C_23  and  O_24 
REMARK    6  A    between atoms: O_24  and  C_25 
REMARK    7  A    between atoms: C_25  and  C_27 
REMARK    8  A    between atoms: C_27  and  C_28 
REMARK    9  A    between atoms: C_31  and  O_32 
REMARK   10  A    between atoms: C_33  and  O_34 
REMARK   11  A    between atoms: C_38  and  O_39 
ROOT
HETATM    1  C   UNL     1       4.570  -5.032  -4.982  1.00  0.00     0.116 C 
HETATM    2  C   UNL     1       4.648  -3.691  -5.690  1.00  0.00     0.053 C 
HETATM    3  C   UNL     1       6.094  -3.279  -5.779  1.00  0.00     0.020 C 
HETATM    4  C   UNL     1       6.639  -2.679  -4.457  1.00  0.00     0.013 C 
HETATM    5  C   UNL     1       6.964  -4.473  -6.364  1.00  0.00     0.083 C 
HETATM    6  O   UNL     1       7.570  -5.225  -5.280  1.00  0.00    -0.320 OA
HETATM    7  C   UNL     1       6.586  -6.017  -4.484  1.00  0.00     0.288 C 
HETATM    8  O   UNL     1       5.832  -6.979  -5.234  1.00  0.00    -0.323 OA
HETATM    9  C   UNL     1       5.055  -6.107  -6.051  1.00  0.00     0.173 C 
HETATM   10  C   UNL     1       6.156  -5.586  -7.107  1.00  0.00     0.054 C 
HETATM   11  C   UNL     1       7.144  -6.771  -7.556  1.00  0.00     0.017 C 
HETATM   12  C   UNL     1       8.152  -6.622  -8.446  1.00  0.00     0.014 C 
HETATM   13  C   UNL     1       9.316  -5.687  -8.172  1.00  0.00     0.053 C 
HETATM   14  C   UNL     1       8.819  -4.282  -8.404  1.00  0.00     0.125 C 
HETATM   15  C   UNL     1       9.902  -3.215  -8.482  1.00  0.00     0.165 C 
HETATM   16  O   UNL     1      10.894  -3.265  -9.210  1.00  0.00    -0.294 OA
HETATM   17  C   UNL     1       9.515  -1.976  -7.725  1.00  0.00     0.055 C 
HETATM   18  C   UNL     1       8.877  -0.991  -8.691  1.00  0.00     0.018 C 
HETATM   19  C   UNL     1       8.767  -2.565  -6.758  1.00  0.00     0.023 C 
HETATM   20  C   UNL     1       7.902  -3.683  -7.350  1.00  0.00     0.064 C 
HETATM   21  O   UNL     1       5.631  -5.122  -3.968  1.00  0.00    -0.314 OA
ENDROOT
BRANCH  12  22
HETATM   22  C   UNL     1       7.982  -7.032  -9.884  1.00  0.00     0.183 C 
BRANCH  22  23
HETATM   23  O   UNL     1       7.748  -8.440  -9.961  1.00  0.00    -0.321 OA
BRANCH  23  24
HETATM   24  C   UNL     1       8.863  -9.224  -9.985  1.00  0.00     0.263 C 
HETATM   25  O   UNL     1      10.020  -8.821 -10.007  1.00  0.00    -0.265 OA
BRANCH  24  26
HETATM   26  C   UNL     1       8.461 -10.679  -9.955  1.00  0.00     0.149 C 
BRANCH  26  27
HETATM   27  C   UNL     1       8.287 -11.236  -8.564  1.00  0.00    -0.046 A 
HETATM   28  C   UNL     1       7.346 -10.692  -7.681  1.00  0.00     0.010 A 
HETATM   29  C   UNL     1       7.172 -11.239  -6.412  1.00  0.00     0.040 A 
HETATM   30  C   UNL     1       7.917 -12.343  -6.004  1.00  0.00     0.099 A 
HETATM   31  C   UNL     1       8.866 -12.919  -6.872  1.00  0.00     0.101 A 
HETATM   32  C   UNL     1       9.034 -12.345  -8.142  1.00  0.00     0.047 A 
BRANCH  30  33
HETATM   33  O   UNL     1       7.703 -12.847  -4.751  1.00  0.00    -0.358 OA
HETATM   34  H   UNL     1       6.964 -12.366  -4.341  1.00  0.00     0.217 HD
ENDBRANCH  30  33
BRANCH  31  35
HETATM   35  O   UNL     1       9.661 -14.003  -6.662  1.00  0.00    -0.353 OA
HETATM   36  C   UNL     1       9.540 -14.703  -5.431  1.00  0.00     0.210 C 
ENDBRANCH  31  35
ENDBRANCH  26  27
ENDBRANCH  24  26
ENDBRANCH  23  24
ENDBRANCH  22  23
ENDBRANCH  12  22
BRANCH  14  37
HETATM   37  O   UNL     1       8.169  -4.170  -9.697  1.00  0.00    -0.382 OA
HETATM   38  H   UNL     1       8.885  -4.245 -10.360  1.00  0.00     0.211 HD
ENDBRANCH  14  37
BRANCH   1  39
HETATM   39  C   UNL     1       3.282  -4.926  -4.135  1.00  0.00    -0.056 C 
HETATM   40  C   UNL     1       3.338  -4.354  -2.906  1.00  0.00     0.017 C 
HETATM   41  C   UNL     1       1.912  -5.127  -4.716  1.00  0.00     0.046 C 
ENDBRANCH   1  39
BRANCH   7  42
HETATM   42  C   UNL     1       7.416  -6.794  -3.454  1.00  0.00     0.140 C 
BRANCH  42  43
HETATM   43  C   UNL     1       6.759  -7.547  -2.315  1.00  0.00    -0.051 A 
HETATM   44  C   UNL     1       7.153  -8.868  -2.036  1.00  0.00     0.007 A 
HETATM   45  C   UNL     1       6.851  -9.454  -0.805  1.00  0.00     0.001 A 
HETATM   46  C   UNL     1       6.134  -8.737   0.149  1.00  0.00     0.000 A 
HETATM   47  C   UNL     1       5.660  -7.463  -0.153  1.00  0.00     0.001 A 
HETATM   48  C   UNL     1       5.960  -6.876  -1.384  1.00  0.00     0.007 A 
ENDBRANCH  42  43
ENDBRANCH   7  42
TORSDOF 11
