REMARK  9 active torsions:
REMARK  status: ('A' for Active; 'I' for Inactive)
REMARK    1  A    between atoms: C_2  and  C_3 
REMARK    2  A    between atoms: C_3  and  C_4 
REMARK    3  A    between atoms: C_7  and  C_8 
REMARK    4  A    between atoms: C_14  and  C_15 
REMARK    5  A    between atoms: C_16  and  C_17 
REMARK       I    between atoms: C_17  and  N_19 
REMARK    6  A    between atoms: N_19  and  C_20 
REMARK    7  A    between atoms: C_20  and  C_22 
REMARK    8  A    between atoms: C_26  and  N_27 
REMARK    9  A    between atoms: N_27  and  S_28 
ROOT
HETATM    1  C   UNL     1       4.250  -3.758  -0.820  1.00  0.00     0.241 C 
HETATM    2  O   UNL     1       3.027  -3.672  -0.831  1.00  0.00    -0.269 OA
HETATM    3  N   UNL     1       4.944  -4.941  -0.896  1.00  0.00    -0.349 N 
HETATM    4  H   UNL     1       5.954  -4.936  -0.886  1.00  0.00     0.163 HD
ENDROOT
BRANCH   1   5
HETATM    5  C   UNL     1       5.122  -2.561  -0.691  1.00  0.00     0.075 C 
HETATM    6  C   UNL     1       4.584  -1.354  -0.429  1.00  0.00     0.019 C 
BRANCH   6   7
HETATM    7  C   UNL     1       5.374  -0.128  -0.198  1.00  0.00    -0.013 A 
HETATM    8  C   UNL     1       4.954   1.159  -0.571  1.00  0.00     0.019 A 
HETATM    9  N   UNL     1       5.712   2.272  -0.346  1.00  0.00    -0.355 N 
HETATM   10  C   UNL     1       6.911   2.149   0.285  1.00  0.00     0.117 A 
ATOM     11  HN  UNL     1       5.382   3.188  -0.649  1.00  0.00     0.166 HD
HETATM   12  C   UNL     1       7.367   0.915   0.730  1.00  0.00     0.035 A 
HETATM   13  C   UNL     1       6.594  -0.219   0.491  1.00  0.00     0.015 A 
BRANCH   8  14
HETATM   14  C   UNL     1       3.641   1.443  -1.265  1.00  0.00     0.057 C 
BRANCH  14  15
HETATM   15  C   UNL     1       2.469   1.730  -0.318  1.00  0.00     0.002 C 
HETATM   16  C   UNL     1       2.659   2.966   0.553  1.00  0.00     0.005 C 
ENDBRANCH  14  15
ENDBRANCH   8  14
BRANCH  10  17
HETATM   17  C   UNL     1       7.788   3.376   0.501  1.00  0.00     0.432 C 
HETATM   18  F   UNL     1       7.268   4.539   0.022  1.00  0.00    -0.165 F 
HETATM   19  F   UNL     1       8.055   3.601   1.822  1.00  0.00    -0.165 F 
HETATM   20  F   UNL     1       9.011   3.244  -0.096  1.00  0.00    -0.165 F 
ENDBRANCH  10  17
ENDBRANCH   6   7
ENDBRANCH   1   5
BRANCH   3  21
HETATM   21  C   UNL     1       4.264  -6.230  -0.987  1.00  0.00     0.114 C 
HETATM   22  C   UNL     1       4.626  -6.939  -2.290  1.00  0.00     0.037 C 
BRANCH  21  23
HETATM   23  C   UNL     1       4.554  -7.092   0.236  1.00  0.00    -0.030 A 
HETATM   24  C   UNL     1       3.490  -7.500   1.061  1.00  0.00     0.053 A 
HETATM   25  C   UNL     1       3.726  -8.258   2.211  1.00  0.00     0.142 A 
HETATM   26  F   UNL     1       2.682  -8.607   2.978  1.00  0.00    -0.204 F 
HETATM   27  C   UNL     1       5.020  -8.596   2.596  1.00  0.00     0.099 A 
HETATM   28  C   UNL     1       6.072  -8.247   1.746  1.00  0.00     0.142 A 
HETATM   29  F   UNL     1       7.329  -8.584   2.072  1.00  0.00    -0.204 F 
HETATM   30  C   UNL     1       5.852  -7.504   0.581  1.00  0.00     0.053 A 
BRANCH  27  31
HETATM   31  N   UNL     1       5.269  -9.273   3.839  1.00  0.00    -0.180 NA
HETATM   32  H   UNL     1       6.126  -8.970   4.310  1.00  0.00     0.146 HD
BRANCH  31  33
HETATM   33  S   UNL     1       5.249 -10.960   3.833  1.00  0.00     0.210 S 
HETATM   34  C   UNL     1       3.613 -11.319   4.438  1.00  0.00     0.180 C 
HETATM   35  O   UNL     1       5.376 -11.447   2.481  1.00  0.00    -0.211 OA
HETATM   36  O   UNL     1       6.184 -11.348   4.868  1.00  0.00    -0.211 OA
ENDBRANCH  31  33
ENDBRANCH  27  31
ENDBRANCH  21  23
ENDBRANCH   3  21
TORSDOF 9
