MODEL 1
REMARK VINA RESULT:      -8.7      0.000      0.000
REMARK  9 active torsions:
REMARK  status: ('A' for Active; 'I' for Inactive)
REMARK    1  A    between atoms: C_2  and  C_3 
REMARK    2  A    between atoms: C_3  and  C_4 
REMARK    3  A    between atoms: C_7  and  C_8 
REMARK    4  A    between atoms: C_14  and  C_15 
REMARK    5  A    between atoms: C_16  and  C_17 
REMARK       I    between atoms: C_17  and  N_19 
REMARK    6  A    between atoms: N_19  and  C_20 
REMARK    7  A    between atoms: C_20  and  C_22 
REMARK    8  A    between atoms: C_26  and  N_27 
REMARK    9  A    between atoms: N_27  and  S_28 
ROOT
HETATM    1  C   UNL     1     -34.208  -4.489 -15.191  1.00  0.00     0.241 C 
HETATM    2  O   UNL     1     -34.979  -5.212 -15.813  1.00  0.00    -0.269 OA
HETATM    3  N   UNL     1     -32.955  -4.135 -15.629  1.00  0.00    -0.349 N 
HETATM    4  H   UNL     1     -32.374  -3.531 -15.065  1.00  0.00     0.163 HD
ENDROOT
BRANCH   1   5
HETATM    5  C   UNL     1     -34.553  -3.934 -13.856  1.00  0.00     0.075 C 
HETATM    6  C   UNL     1     -34.713  -2.607 -13.692  1.00  0.00     0.019 C 
BRANCH   6   7
HETATM    7  C   UNL     1     -35.139  -1.974 -12.428  1.00  0.00    -0.013 A 
HETATM    8  C   UNL     1     -34.575  -2.263 -11.176  1.00  0.00     0.019 A 
HETATM    9  N   UNL     1     -34.996  -1.661 -10.025  1.00  0.00    -0.355 N 
HETATM   10  C   UNL     1     -35.983  -0.726 -10.081  1.00  0.00     0.117 A 
ATOM     11  HN  UNL     1     -34.575  -1.912  -9.130  1.00  0.00     0.166 HD
HETATM   12  C   UNL     1     -36.551  -0.350 -11.291  1.00  0.00     0.035 A 
HETATM   13  C   UNL     1     -36.123  -0.972 -12.462  1.00  0.00     0.015 A 
BRANCH   8  14
HETATM   14  C   UNL     1     -33.464  -3.268 -10.969  1.00  0.00     0.057 C 
BRANCH  14  15
HETATM   15  C   UNL     1     -33.912  -4.591 -10.336  1.00  0.00     0.002 C 
HETATM   16  C   UNL     1     -33.492  -5.830 -11.116  1.00  0.00     0.005 C 
ENDBRANCH  14  15
ENDBRANCH   8  14
BRANCH  10  17
HETATM   17  C   UNL     1     -36.495  -0.081  -8.799  1.00  0.00     0.432 C 
HETATM   18  F   UNL     1     -37.512  -0.751  -8.191  1.00  0.00    -0.165 F 
HETATM   19  F   UNL     1     -35.517   0.052  -7.854  1.00  0.00    -0.165 F 
HETATM   20  F   UNL     1     -36.963   1.186  -9.014  1.00  0.00    -0.165 F 
ENDBRANCH  10  17
ENDBRANCH   6   7
ENDBRANCH   1   5
BRANCH   3  21
HETATM   21  C   UNL     1     -32.418  -4.613 -16.900  1.00  0.00     0.114 C 
HETATM   22  C   UNL     1     -32.377  -3.483 -17.926  1.00  0.00     0.037 C 
BRANCH  21  23
HETATM   23  C   UNL     1     -31.054  -5.267 -16.710  1.00  0.00    -0.030 A 
HETATM   24  C   UNL     1     -30.420  -5.873 -17.810  1.00  0.00     0.053 A 
HETATM   25  C   UNL     1     -29.188  -6.515 -17.661  1.00  0.00     0.142 A 
HETATM   26  F   UNL     1     -28.630  -7.096 -18.734  1.00  0.00    -0.204 F 
HETATM   27  C   UNL     1     -28.572  -6.609 -16.416  1.00  0.00     0.099 A 
HETATM   28  C   UNL     1     -29.168  -5.954 -15.336  1.00  0.00     0.142 A 
HETATM   29  F   UNL     1     -28.585  -5.999 -14.128  1.00  0.00    -0.204 F 
HETATM   30  C   UNL     1     -30.393  -5.291 -15.471  1.00  0.00     0.053 A 
BRANCH  27  31
HETATM   31  N   UNL     1     -27.365  -7.370 -16.244  1.00  0.00    -0.180 NA
HETATM   32  H   UNL     1     -27.391  -8.009 -15.444  1.00  0.00     0.146 HD
BRANCH  31  33
HETATM   33  S   UNL     1     -25.905  -6.526 -16.187  1.00  0.00     0.210 S 
HETATM   34  C   UNL     1     -25.071  -7.119 -17.644  1.00  0.00     0.180 C 
HETATM   35  O   UNL     1     -26.152  -5.111 -16.320  1.00  0.00    -0.211 OA
HETATM   36  O   UNL     1     -25.205  -7.067 -15.041  1.00  0.00    -0.211 OA
ENDBRANCH  31  33
ENDBRANCH  27  31
ENDBRANCH  21  23
ENDBRANCH   3  21
TORSDOF 9
ENDMDL
MODEL 2
REMARK VINA RESULT:      -8.5     14.142     18.522
REMARK  9 active torsions:
REMARK  status: ('A' for Active; 'I' for Inactive)
REMARK    1  A    between atoms: C_2  and  C_3 
REMARK    2  A    between atoms: C_3  and  C_4 
REMARK    3  A    between atoms: C_7  and  C_8 
REMARK    4  A    between atoms: C_14  and  C_15 
REMARK    5  A    between atoms: C_16  and  C_17 
REMARK       I    between atoms: C_17  and  N_19 
REMARK    6  A    between atoms: N_19  and  C_20 
REMARK    7  A    between atoms: C_20  and  C_22 
REMARK    8  A    between atoms: C_26  and  N_27 
REMARK    9  A    between atoms: N_27  and  S_28 
ROOT
HETATM    1  C   UNL     1     -20.660  -9.311  -4.123  1.00  0.00     0.241 C 
HETATM    2  O   UNL     1     -21.729  -9.702  -3.667  1.00  0.00    -0.269 OA
HETATM    3  N   UNL     1     -20.385  -8.003  -4.442  1.00  0.00    -0.349 N 
HETATM    4  H   UNL     1     -19.479  -7.752  -4.810  1.00  0.00     0.163 HD
ENDROOT
BRANCH   1   5
HETATM    5  C   UNL     1     -19.538 -10.243  -4.408  1.00  0.00     0.075 C 
HETATM    6  C   UNL     1     -18.401  -9.787  -4.970  1.00  0.00     0.019 C 
BRANCH   6   7
HETATM    7  C   UNL     1     -17.205 -10.618  -5.210  1.00  0.00    -0.013 A 
HETATM    8  C   UNL     1     -16.102 -10.677  -4.342  1.00  0.00     0.019 A 
HETATM    9  N   UNL     1     -15.009 -11.454  -4.597  1.00  0.00    -0.355 N 
HETATM   10  C   UNL     1     -14.982 -12.225  -5.717  1.00  0.00     0.117 A 
ATOM     11  HN  UNL     1     -14.218 -11.455  -3.952  1.00  0.00     0.166 HD
HETATM   12  C   UNL     1     -16.058 -12.259  -6.594  1.00  0.00     0.035 A 
HETATM   13  C   UNL     1     -17.168 -11.458  -6.334  1.00  0.00     0.015 A 
BRANCH   8  14
HETATM   14  C   UNL     1     -16.005  -9.885  -3.057  1.00  0.00     0.057 C 
BRANCH  14  15
HETATM   15  C   UNL     1     -15.942 -10.741  -1.785  1.00  0.00     0.002 C 
HETATM   16  C   UNL     1     -17.173 -11.609  -1.556  1.00  0.00     0.005 C 
ENDBRANCH  14  15
ENDBRANCH   8  14
BRANCH  10  17
HETATM   17  C   UNL     1     -13.749 -13.061  -6.037  1.00  0.00     0.432 C 
HETATM   18  F   UNL     1     -12.970 -12.567  -7.038  1.00  0.00    -0.165 F 
HETATM   19  F   UNL     1     -12.923 -13.208  -4.959  1.00  0.00    -0.165 F 
HETATM   20  F   UNL     1     -14.076 -14.333  -6.417  1.00  0.00    -0.165 F 
ENDBRANCH  10  17
ENDBRANCH   6   7
ENDBRANCH   1   5
BRANCH   3  21
HETATM   21  C   UNL     1     -21.375  -6.943  -4.271  1.00  0.00     0.114 C 
HETATM   22  C   UNL     1     -21.198  -6.253  -2.920  1.00  0.00     0.037 C 
BRANCH  21  23
HETATM   23  C   UNL     1     -21.329  -5.956  -5.431  1.00  0.00    -0.030 A 
HETATM   24  C   UNL     1     -22.533  -5.509  -6.005  1.00  0.00     0.053 A 
HETATM   25  C   UNL     1     -22.524  -4.634  -7.095  1.00  0.00     0.142 A 
HETATM   26  F   UNL     1     -23.697  -4.250  -7.622  1.00  0.00    -0.204 F 
HETATM   27  C   UNL     1     -21.329  -4.213  -7.669  1.00  0.00     0.099 A 
HETATM   28  C   UNL     1     -20.133  -4.604  -7.062  1.00  0.00     0.142 A 
HETATM   29  F   UNL     1     -18.963  -4.191  -7.572  1.00  0.00    -0.204 F 
HETATM   30  C   UNL     1     -20.123  -5.465  -5.959  1.00  0.00     0.053 A 
BRANCH  27  31
HETATM   31  N   UNL     1     -21.323  -3.409  -8.861  1.00  0.00    -0.180 NA
HETATM   32  H   UNL     1     -22.085  -2.726  -8.902  1.00  0.00     0.146 HD
BRANCH  31  33
HETATM   33  S   UNL     1     -21.261  -4.206 -10.346  1.00  0.00     0.210 S 
HETATM   34  C   UNL     1     -21.225  -2.849 -11.500  1.00  0.00     0.180 C 
HETATM   35  O   UNL     1     -20.031  -4.954 -10.450  1.00  0.00    -0.211 OA
HETATM   36  O   UNL     1     -22.551  -4.849 -10.480  1.00  0.00    -0.211 OA
ENDBRANCH  31  33
ENDBRANCH  27  31
ENDBRANCH  21  23
ENDBRANCH   3  21
TORSDOF 9
ENDMDL
MODEL 3
REMARK VINA RESULT:      -8.4     13.537     18.192
REMARK  9 active torsions:
REMARK  status: ('A' for Active; 'I' for Inactive)
REMARK    1  A    between atoms: C_2  and  C_3 
REMARK    2  A    between atoms: C_3  and  C_4 
REMARK    3  A    between atoms: C_7  and  C_8 
REMARK    4  A    between atoms: C_14  and  C_15 
REMARK    5  A    between atoms: C_16  and  C_17 
REMARK       I    between atoms: C_17  and  N_19 
REMARK    6  A    between atoms: N_19  and  C_20 
REMARK    7  A    between atoms: C_20  and  C_22 
REMARK    8  A    between atoms: C_26  and  N_27 
REMARK    9  A    between atoms: N_27  and  S_28 
ROOT
HETATM    1  C   UNL     1     -20.673  -9.257  -4.020  1.00  0.00     0.241 C 
HETATM    2  O   UNL     1     -21.761  -9.697  -3.665  1.00  0.00    -0.269 OA
HETATM    3  N   UNL     1     -20.428  -7.936  -4.307  1.00  0.00    -0.349 N 
HETATM    4  H   UNL     1     -19.504  -7.643  -4.590  1.00  0.00     0.163 HD
ENDROOT
BRANCH   1   5
HETATM    5  C   UNL     1     -19.491 -10.138  -4.208  1.00  0.00     0.075 C 
HETATM    6  C   UNL     1     -18.690  -9.981  -5.281  1.00  0.00     0.019 C 
BRANCH   6   7
HETATM    7  C   UNL     1     -17.449 -10.748  -5.507  1.00  0.00    -0.013 A 
HETATM    8  C   UNL     1     -17.390 -11.951  -6.230  1.00  0.00     0.019 A 
HETATM    9  N   UNL     1     -16.224 -12.638  -6.416  1.00  0.00    -0.355 N 
HETATM   10  C   UNL     1     -15.065 -12.138  -5.910  1.00  0.00     0.117 A 
ATOM     11  HN  UNL     1     -16.224 -13.518  -6.931  1.00  0.00     0.166 HD
HETATM   12  C   UNL     1     -15.038 -10.928  -5.230  1.00  0.00     0.035 A 
HETATM   13  C   UNL     1     -16.231 -10.234  -5.035  1.00  0.00     0.015 A 
BRANCH   8  14
HETATM   14  C   UNL     1     -18.596 -12.611  -6.858  1.00  0.00     0.057 C 
BRANCH  14  15
HETATM   15  C   UNL     1     -18.694 -12.443  -8.379  1.00  0.00     0.002 C 
HETATM   16  C   UNL     1     -18.864 -13.751  -9.142  1.00  0.00     0.005 C 
ENDBRANCH  14  15
ENDBRANCH   8  14
BRANCH  10  17
HETATM   17  C   UNL     1     -13.765 -12.917  -6.071  1.00  0.00     0.432 C 
HETATM   18  F   UNL     1     -13.921 -14.262  -6.214  1.00  0.00    -0.165 F 
HETATM   19  F   UNL     1     -13.041 -12.507  -7.154  1.00  0.00    -0.165 F 
HETATM   20  F   UNL     1     -12.933 -12.754  -4.998  1.00  0.00    -0.165 F 
ENDBRANCH  10  17
ENDBRANCH   6   7
ENDBRANCH   1   5
BRANCH   3  21
HETATM   21  C   UNL     1     -21.474  -6.921  -4.220  1.00  0.00     0.114 C 
HETATM   22  C   UNL     1     -21.426  -6.213  -2.868  1.00  0.00     0.037 C 
BRANCH  21  23
HETATM   23  C   UNL     1     -21.387  -5.942  -5.385  1.00  0.00    -0.030 A 
HETATM   24  C   UNL     1     -22.571  -5.500  -6.005  1.00  0.00     0.053 A 
HETATM   25  C   UNL     1     -22.524  -4.633  -7.100  1.00  0.00     0.142 A 
HETATM   26  F   UNL     1     -23.678  -4.254  -7.670  1.00  0.00    -0.204 F 
HETATM   27  C   UNL     1     -21.310  -4.215  -7.634  1.00  0.00     0.099 A 
HETATM   28  C   UNL     1     -20.136  -4.601  -6.983  1.00  0.00     0.142 A 
HETATM   29  F   UNL     1     -18.949  -4.190  -7.455  1.00  0.00    -0.204 F 
HETATM   30  C   UNL     1     -20.164  -5.454  -5.874  1.00  0.00     0.053 A 
BRANCH  27  31
HETATM   31  N   UNL     1     -21.262  -3.420  -8.831  1.00  0.00    -0.180 NA
HETATM   32  H   UNL     1     -22.003  -2.715  -8.888  1.00  0.00     0.146 HD
BRANCH  31  33
HETATM   33  S   UNL     1     -21.199  -4.228 -10.310  1.00  0.00     0.210 S 
HETATM   34  C   UNL     1     -21.166  -2.881 -11.474  1.00  0.00     0.180 C 
HETATM   35  O   UNL     1     -19.969  -4.975 -10.408  1.00  0.00    -0.211 OA
HETATM   36  O   UNL     1     -22.489  -4.874 -10.438  1.00  0.00    -0.211 OA
ENDBRANCH  31  33
ENDBRANCH  27  31
ENDBRANCH  21  23
ENDBRANCH   3  21
TORSDOF 9
ENDMDL
MODEL 4
REMARK VINA RESULT:      -8.0     17.935     21.458
REMARK  9 active torsions:
REMARK  status: ('A' for Active; 'I' for Inactive)
REMARK    1  A    between atoms: C_2  and  C_3 
REMARK    2  A    between atoms: C_3  and  C_4 
REMARK    3  A    between atoms: C_7  and  C_8 
REMARK    4  A    between atoms: C_14  and  C_15 
REMARK    5  A    between atoms: C_16  and  C_17 
REMARK       I    between atoms: C_17  and  N_19 
REMARK    6  A    between atoms: N_19  and  C_20 
REMARK    7  A    between atoms: C_20  and  C_22 
REMARK    8  A    between atoms: C_26  and  N_27 
REMARK    9  A    between atoms: N_27  and  S_28 
ROOT
HETATM    1  C   UNL     1     -20.353 -11.816   0.144  1.00  0.00     0.241 C 
HETATM    2  O   UNL     1     -21.412 -12.385   0.383  1.00  0.00    -0.269 OA
HETATM    3  N   UNL     1     -20.242 -10.478  -0.148  1.00  0.00    -0.349 N 
HETATM    4  H   UNL     1     -19.335 -10.075  -0.332  1.00  0.00     0.163 HD
ENDROOT
BRANCH   1   5
HETATM    5  C   UNL     1     -19.057 -12.543   0.117  1.00  0.00     0.075 C 
HETATM    6  C   UNL     1     -17.909 -11.895   0.395  1.00  0.00     0.019 C 
BRANCH   6   7
HETATM    7  C   UNL     1     -16.588 -12.550   0.478  1.00  0.00    -0.013 A 
HETATM    8  C   UNL     1     -15.700 -12.666  -0.603  1.00  0.00     0.019 A 
HETATM    9  N   UNL     1     -14.486 -13.282  -0.492  1.00  0.00    -0.355 N 
HETATM   10  C   UNL     1     -14.098 -13.786   0.710  1.00  0.00     0.117 A 
ATOM     11  HN  UNL     1     -13.876 -13.365  -1.305  1.00  0.00     0.166 HD
HETATM   12  C   UNL     1     -14.902 -13.661   1.836  1.00  0.00     0.035 A 
HETATM   13  C   UNL     1     -16.143 -13.038   1.717  1.00  0.00     0.015 A 
BRANCH   8  14
HETATM   14  C   UNL     1     -15.995 -12.140  -1.990  1.00  0.00     0.057 C 
BRANCH  14  15
HETATM   15  C   UNL     1     -15.610 -10.672  -2.209  1.00  0.00     0.002 C 
HETATM   16  C   UNL     1     -16.730  -9.813  -2.784  1.00  0.00     0.005 C 
ENDBRANCH  14  15
ENDBRANCH   8  14
BRANCH  10  17
HETATM   17  C   UNL     1     -12.768 -14.517   0.837  1.00  0.00     0.432 C 
HETATM   18  F   UNL     1     -12.399 -15.224  -0.266  1.00  0.00    -0.165 F 
HETATM   19  F   UNL     1     -11.729 -13.669   1.103  1.00  0.00    -0.165 F 
HETATM   20  F   UNL     1     -12.772 -15.414   1.869  1.00  0.00    -0.165 F 
ENDBRANCH  10  17
ENDBRANCH   6   7
ENDBRANCH   1   5
BRANCH   3  21
HETATM   21  C   UNL     1     -21.409  -9.602  -0.210  1.00  0.00     0.114 C 
HETATM   22  C   UNL     1     -21.438  -8.658   0.989  1.00  0.00     0.037 C 
BRANCH  21  23
HETATM   23  C   UNL     1     -21.462  -8.850  -1.535  1.00  0.00    -0.030 A 
HETATM   24  C   UNL     1     -21.485  -7.444  -1.530  1.00  0.00     0.053 A 
HETATM   25  C   UNL     1     -21.573  -6.725  -2.725  1.00  0.00     0.142 A 
HETATM   26  F   UNL     1     -21.612  -5.385  -2.669  1.00  0.00    -0.204 F 
HETATM   27  C   UNL     1     -21.682  -7.377  -3.949  1.00  0.00     0.099 A 
HETATM   28  C   UNL     1     -21.595  -8.771  -3.963  1.00  0.00     0.142 A 
HETATM   29  F   UNL     1     -21.666  -9.430  -5.129  1.00  0.00    -0.204 F 
HETATM   30  C   UNL     1     -21.489  -9.506  -2.777  1.00  0.00     0.053 A 
BRANCH  27  31
HETATM   31  N   UNL     1     -21.890  -6.639  -5.165  1.00  0.00    -0.180 NA
HETATM   32  H   UNL     1     -22.473  -7.128  -5.850  1.00  0.00     0.146 HD
BRANCH  31  33
HETATM   33  S   UNL     1     -20.530  -6.048  -5.969  1.00  0.00     0.210 S 
HETATM   34  C   UNL     1     -21.202  -5.577  -7.549  1.00  0.00     0.180 C 
HETATM   35  O   UNL     1     -20.033  -4.875  -5.292  1.00  0.00    -0.211 OA
HETATM   36  O   UNL     1     -19.692  -7.208  -6.187  1.00  0.00    -0.211 OA
ENDBRANCH  31  33
ENDBRANCH  27  31
ENDBRANCH  21  23
ENDBRANCH   3  21
TORSDOF 9
ENDMDL
MODEL 5
REMARK VINA RESULT:      -8.0     16.517     19.298
REMARK  9 active torsions:
REMARK  status: ('A' for Active; 'I' for Inactive)
REMARK    1  A    between atoms: C_2  and  C_3 
REMARK    2  A    between atoms: C_3  and  C_4 
REMARK    3  A    between atoms: C_7  and  C_8 
REMARK    4  A    between atoms: C_14  and  C_15 
REMARK    5  A    between atoms: C_16  and  C_17 
REMARK       I    between atoms: C_17  and  N_19 
REMARK    6  A    between atoms: N_19  and  C_20 
REMARK    7  A    between atoms: C_20  and  C_22 
REMARK    8  A    between atoms: C_26  and  N_27 
REMARK    9  A    between atoms: N_27  and  S_28 
ROOT
HETATM    1  C   UNL     1     -21.968  -8.324  -0.522  1.00  0.00     0.241 C 
HETATM    2  O   UNL     1     -22.118  -7.869   0.607  1.00  0.00    -0.269 OA
HETATM    3  N   UNL     1     -22.107  -9.651  -0.846  1.00  0.00    -0.349 N 
HETATM    4  H   UNL     1     -21.973  -9.955  -1.800  1.00  0.00     0.163 HD
ENDROOT
BRANCH   1   5
HETATM    5  C   UNL     1     -21.583  -7.465  -1.672  1.00  0.00     0.075 C 
HETATM    6  C   UNL     1     -21.085  -8.017  -2.795  1.00  0.00     0.019 C 
BRANCH   6   7
HETATM    7  C   UNL     1     -20.757  -7.255  -4.017  1.00  0.00    -0.013 A 
HETATM    8  C   UNL     1     -20.073  -7.794  -5.119  1.00  0.00     0.019 A 
HETATM    9  N   UNL     1     -19.782  -7.060  -6.232  1.00  0.00    -0.355 N 
HETATM   10  C   UNL     1     -20.185  -5.762  -6.303  1.00  0.00     0.117 A 
ATOM     11  HN  UNL     1     -19.266  -7.480  -7.005  1.00  0.00     0.166 HD
HETATM   12  C   UNL     1     -20.912  -5.177  -5.274  1.00  0.00     0.035 A 
HETATM   13  C   UNL     1     -21.200  -5.928  -4.136  1.00  0.00     0.015 A 
BRANCH   8  14
HETATM   14  C   UNL     1     -19.580  -9.222  -5.182  1.00  0.00     0.057 C 
BRANCH  14  15
HETATM   15  C   UNL     1     -18.143  -9.422  -4.684  1.00  0.00     0.002 C 
HETATM   16  C   UNL     1     -18.045  -9.976  -3.268  1.00  0.00     0.005 C 
ENDBRANCH  14  15
ENDBRANCH   8  14
BRANCH  10  17
HETATM   17  C   UNL     1     -19.827  -4.918  -7.519  1.00  0.00     0.432 C 
HETATM   18  F   UNL     1     -20.557  -3.777  -7.656  1.00  0.00    -0.165 F 
HETATM   19  F   UNL     1     -18.518  -4.527  -7.517  1.00  0.00    -0.165 F 
HETATM   20  F   UNL     1     -19.995  -5.606  -8.689  1.00  0.00    -0.165 F 
ENDBRANCH  10  17
ENDBRANCH   6   7
ENDBRANCH   1   5
BRANCH   3  21
HETATM   21  C   UNL     1     -22.443 -10.660   0.155  1.00  0.00     0.114 C 
HETATM   22  C   UNL     1     -23.824 -11.250  -0.118  1.00  0.00     0.037 C 
BRANCH  21  23
HETATM   23  C   UNL     1     -21.365 -11.733   0.237  1.00  0.00    -0.030 A 
HETATM   24  C   UNL     1     -20.043 -11.414  -0.124  1.00  0.00     0.053 A 
HETATM   25  C   UNL     1     -19.039 -12.385  -0.097  1.00  0.00     0.142 A 
HETATM   26  F   UNL     1     -17.797 -12.038  -0.469  1.00  0.00    -0.204 F 
HETATM   27  C   UNL     1     -19.323 -13.703   0.246  1.00  0.00     0.099 A 
HETATM   28  C   UNL     1     -20.619 -14.009   0.666  1.00  0.00     0.142 A 
HETATM   29  F   UNL     1     -20.920 -15.264   1.033  1.00  0.00    -0.204 F 
HETATM   30  C   UNL     1     -21.633 -13.045   0.663  1.00  0.00     0.053 A 
BRANCH  27  31
HETATM   31  N   UNL     1     -18.315 -14.724   0.159  1.00  0.00    -0.180 NA
HETATM   32  H   UNL     1     -18.676 -15.637  -0.130  1.00  0.00     0.146 HD
BRANCH  31  33
HETATM   33  S   UNL     1     -17.319 -14.961   1.500  1.00  0.00     0.210 S 
HETATM   34  C   UNL     1     -16.109 -16.107   0.872  1.00  0.00     0.180 C 
HETATM   35  O   UNL     1     -16.667 -13.723   1.852  1.00  0.00    -0.211 OA
HETATM   36  O   UNL     1     -18.139 -15.682   2.452  1.00  0.00    -0.211 OA
ENDBRANCH  31  33
ENDBRANCH  27  31
ENDBRANCH  21  23
ENDBRANCH   3  21
TORSDOF 9
ENDMDL
MODEL 6
REMARK VINA RESULT:      -8.0      1.130      2.750
REMARK  9 active torsions:
REMARK  status: ('A' for Active; 'I' for Inactive)
REMARK    1  A    between atoms: C_2  and  C_3 
REMARK    2  A    between atoms: C_3  and  C_4 
REMARK    3  A    between atoms: C_7  and  C_8 
REMARK    4  A    between atoms: C_14  and  C_15 
REMARK    5  A    between atoms: C_16  and  C_17 
REMARK       I    between atoms: C_17  and  N_19 
REMARK    6  A    between atoms: N_19  and  C_20 
REMARK    7  A    between atoms: C_20  and  C_22 
REMARK    8  A    between atoms: C_26  and  N_27 
REMARK    9  A    between atoms: N_27  and  S_28 
ROOT
HETATM    1  C   UNL     1     -34.225  -4.476 -14.975  1.00  0.00     0.241 C 
HETATM    2  O   UNL     1     -34.995  -5.278 -15.492  1.00  0.00    -0.269 OA
HETATM    3  N   UNL     1     -33.021  -4.098 -15.517  1.00  0.00    -0.349 N 
HETATM    4  H   UNL     1     -32.439  -3.427 -15.036  1.00  0.00     0.163 HD
ENDROOT
BRANCH   1   5
HETATM    5  C   UNL     1     -34.516  -3.840 -13.663  1.00  0.00     0.075 C 
HETATM    6  C   UNL     1     -34.994  -2.582 -13.609  1.00  0.00     0.019 C 
BRANCH   6   7
HETATM    7  C   UNL     1     -35.393  -1.901 -12.361  1.00  0.00    -0.013 A 
HETATM    8  C   UNL     1     -36.196  -0.750 -12.317  1.00  0.00     0.019 A 
HETATM    9  N   UNL     1     -36.543  -0.142 -11.145  1.00  0.00    -0.355 N 
HETATM   10  C   UNL     1     -36.123  -0.674  -9.965  1.00  0.00     0.117 A 
ATOM     11  HN  UNL     1     -37.112   0.704 -11.153  1.00  0.00     0.166 HD
HETATM   12  C   UNL     1     -35.371  -1.841  -9.929  1.00  0.00     0.035 A 
HETATM   13  C   UNL     1     -35.012  -2.453 -11.128  1.00  0.00     0.015 A 
BRANCH   8  14
HETATM   14  C   UNL     1     -36.743  -0.063 -13.548  1.00  0.00     0.057 C 
BRANCH  14  15
HETATM   15  C   UNL     1     -35.672   0.465 -14.511  1.00  0.00     0.002 C 
HETATM   16  C   UNL     1     -34.586   1.298 -13.842  1.00  0.00     0.005 C 
ENDBRANCH  14  15
ENDBRANCH   8  14
BRANCH  10  17
HETATM   17  C   UNL     1     -36.464   0.019  -8.652  1.00  0.00     0.432 C 
HETATM   18  F   UNL     1     -36.827   1.325  -8.775  1.00  0.00    -0.165 F 
HETATM   19  F   UNL     1     -37.489  -0.594  -7.988  1.00  0.00    -0.165 F 
HETATM   20  F   UNL     1     -35.412   0.009  -7.778  1.00  0.00    -0.165 F 
ENDBRANCH  10  17
ENDBRANCH   6   7
ENDBRANCH   1   5
BRANCH   3  21
HETATM   21  C   UNL     1     -32.539  -4.644 -16.783  1.00  0.00     0.114 C 
HETATM   22  C   UNL     1     -32.432  -3.544 -17.837  1.00  0.00     0.037 C 
BRANCH  21  23
HETATM   23  C   UNL     1     -31.223  -5.389 -16.595  1.00  0.00    -0.030 A 
HETATM   24  C   UNL     1     -30.322  -4.960 -15.603  1.00  0.00     0.053 A 
HETATM   25  C   UNL     1     -29.091  -5.598 -15.431  1.00  0.00     0.142 A 
HETATM   26  F   UNL     1     -28.255  -5.141 -14.485  1.00  0.00    -0.204 F 
HETATM   27  C   UNL     1     -28.702  -6.646 -16.259  1.00  0.00     0.099 A 
HETATM   28  C   UNL     1     -29.620  -7.115 -17.202  1.00  0.00     0.142 A 
HETATM   29  F   UNL     1     -29.289  -8.145 -17.996  1.00  0.00    -0.204 F 
HETATM   30  C   UNL     1     -30.865  -6.501 -17.375  1.00  0.00     0.053 A 
BRANCH  27  31
HETATM   31  N   UNL     1     -27.389  -7.222 -16.157  1.00  0.00    -0.180 NA
HETATM   32  H   UNL     1     -27.085  -7.389 -15.194  1.00  0.00     0.146 HD
BRANCH  31  33
HETATM   33  S   UNL     1     -26.129  -6.455 -16.974  1.00  0.00     0.210 S 
HETATM   34  C   UNL     1     -24.728  -7.465 -16.539  1.00  0.00     0.180 C 
HETATM   35  O   UNL     1     -26.349  -6.531 -18.398  1.00  0.00    -0.211 OA
HETATM   36  O   UNL     1     -25.967  -5.184 -16.301  1.00  0.00    -0.211 OA
ENDBRANCH  31  33
ENDBRANCH  27  31
ENDBRANCH  21  23
ENDBRANCH   3  21
TORSDOF 9
ENDMDL
MODEL 7
REMARK VINA RESULT:      -7.7     18.049     21.661
REMARK  9 active torsions:
REMARK  status: ('A' for Active; 'I' for Inactive)
REMARK    1  A    between atoms: C_2  and  C_3 
REMARK    2  A    between atoms: C_3  and  C_4 
REMARK    3  A    between atoms: C_7  and  C_8 
REMARK    4  A    between atoms: C_14  and  C_15 
REMARK    5  A    between atoms: C_16  and  C_17 
REMARK       I    between atoms: C_17  and  N_19 
REMARK    6  A    between atoms: N_19  and  C_20 
REMARK    7  A    between atoms: C_20  and  C_22 
REMARK    8  A    between atoms: C_26  and  N_27 
REMARK    9  A    between atoms: N_27  and  S_28 
ROOT
HETATM    1  C   UNL     1     -20.076 -12.011  -0.142  1.00  0.00     0.241 C 
HETATM    2  O   UNL     1     -21.038 -12.543   0.402  1.00  0.00    -0.269 OA
HETATM    3  N   UNL     1     -20.056 -10.710  -0.582  1.00  0.00    -0.349 N 
HETATM    4  H   UNL     1     -19.226 -10.336  -1.018  1.00  0.00     0.163 HD
ENDROOT
BRANCH   1   5
HETATM    5  C   UNL     1     -18.815 -12.752  -0.411  1.00  0.00     0.075 C 
HETATM    6  C   UNL     1     -17.633 -12.107  -0.398  1.00  0.00     0.019 C 
BRANCH   6   7
HETATM    7  C   UNL     1     -16.325 -12.772  -0.567  1.00  0.00    -0.013 A 
HETATM    8  C   UNL     1     -15.493 -13.151   0.499  1.00  0.00     0.019 A 
HETATM    9  N   UNL     1     -14.287 -13.761   0.307  1.00  0.00    -0.355 N 
HETATM   10  C   UNL     1     -13.872 -14.041  -0.958  1.00  0.00     0.117 A 
ATOM     11  HN  UNL     1     -13.702 -14.004   1.106  1.00  0.00     0.166 HD
HETATM   12  C   UNL     1     -14.666 -13.743  -2.058  1.00  0.00     0.035 A 
HETATM   13  C   UNL     1     -15.892 -13.113  -1.858  1.00  0.00     0.015 A 
BRANCH   8  14
HETATM   14  C   UNL     1     -15.835 -12.915   1.953  1.00  0.00     0.057 C 
BRANCH  14  15
HETATM   15  C   UNL     1     -15.832 -14.180   2.822  1.00  0.00     0.002 C 
HETATM   16  C   UNL     1     -16.849 -15.232   2.395  1.00  0.00     0.005 C 
ENDBRANCH  14  15
ENDBRANCH   8  14
BRANCH  10  17
HETATM   17  C   UNL     1     -12.508 -14.679  -1.189  1.00  0.00     0.432 C 
HETATM   18  F   UNL     1     -12.447 -16.009  -0.909  1.00  0.00    -0.165 F 
HETATM   19  F   UNL     1     -12.083 -14.548  -2.481  1.00  0.00    -0.165 F 
HETATM   20  F   UNL     1     -11.533 -14.096  -0.428  1.00  0.00    -0.165 F 
ENDBRANCH  10  17
ENDBRANCH   6   7
ENDBRANCH   1   5
BRANCH   3  21
HETATM   21  C   UNL     1     -21.215  -9.832  -0.444  1.00  0.00     0.114 C 
HETATM   22  C   UNL     1     -21.145  -9.049   0.865  1.00  0.00     0.037 C 
BRANCH  21  23
HETATM   23  C   UNL     1     -21.357  -8.916  -1.654  1.00  0.00    -0.030 A 
HETATM   24  C   UNL     1     -21.429  -7.524  -1.462  1.00  0.00     0.053 A 
HETATM   25  C   UNL     1     -21.598  -6.660  -2.547  1.00  0.00     0.142 A 
HETATM   26  F   UNL     1     -21.681  -5.341  -2.313  1.00  0.00    -0.204 F 
HETATM   27  C   UNL     1     -21.742  -7.151  -3.841  1.00  0.00     0.099 A 
HETATM   28  C   UNL     1     -21.608  -8.526  -4.043  1.00  0.00     0.142 A 
HETATM   29  F   UNL     1     -21.711  -9.030  -5.282  1.00  0.00    -0.204 F 
HETATM   30  C   UNL     1     -21.419  -9.405  -2.970  1.00  0.00     0.053 A 
BRANCH  27  31
HETATM   31  N   UNL     1     -22.034  -6.269  -4.939  1.00  0.00    -0.180 NA
HETATM   32  H   UNL     1     -22.699  -6.657  -5.614  1.00  0.00     0.146 HD
BRANCH  31  33
HETATM   33  S   UNL     1     -20.732  -5.630  -5.800  1.00  0.00     0.210 S 
HETATM   34  C   UNL     1     -21.533  -4.935  -7.231  1.00  0.00     0.180 C 
HETATM   35  O   UNL     1     -20.113  -4.572  -5.039  1.00  0.00    -0.211 OA
HETATM   36  O   UNL     1     -19.978  -6.782  -6.248  1.00  0.00    -0.211 OA
ENDBRANCH  31  33
ENDBRANCH  27  31
ENDBRANCH  21  23
ENDBRANCH   3  21
TORSDOF 9
ENDMDL
MODEL 8
REMARK VINA RESULT:      -7.6     16.124     18.976
REMARK  9 active torsions:
REMARK  status: ('A' for Active; 'I' for Inactive)
REMARK    1  A    between atoms: C_2  and  C_3 
REMARK    2  A    between atoms: C_3  and  C_4 
REMARK    3  A    between atoms: C_7  and  C_8 
REMARK    4  A    between atoms: C_14  and  C_15 
REMARK    5  A    between atoms: C_16  and  C_17 
REMARK       I    between atoms: C_17  and  N_19 
REMARK    6  A    between atoms: N_19  and  C_20 
REMARK    7  A    between atoms: C_20  and  C_22 
REMARK    8  A    between atoms: C_26  and  N_27 
REMARK    9  A    between atoms: N_27  and  S_28 
ROOT
HETATM    1  C   UNL     1     -22.114  -8.382  -0.626  1.00  0.00     0.241 C 
HETATM    2  O   UNL     1     -22.333  -7.938   0.496  1.00  0.00    -0.269 OA
HETATM    3  N   UNL     1     -22.242  -9.705  -0.974  1.00  0.00    -0.349 N 
HETATM    4  H   UNL     1     -22.048  -9.999  -1.920  1.00  0.00     0.163 HD
ENDROOT
BRANCH   1   5
HETATM    5  C   UNL     1     -21.648  -7.514  -1.739  1.00  0.00     0.075 C 
HETATM    6  C   UNL     1     -21.231  -8.060  -2.898  1.00  0.00     0.019 C 
BRANCH   6   7
HETATM    7  C   UNL     1     -20.835  -7.279  -4.086  1.00  0.00    -0.013 A 
HETATM    8  C   UNL     1     -20.140  -7.814  -5.182  1.00  0.00     0.019 A 
HETATM    9  N   UNL     1     -19.784  -7.061  -6.264  1.00  0.00    -0.355 N 
HETATM   10  C   UNL     1     -20.131  -5.747  -6.309  1.00  0.00     0.117 A 
ATOM     11  HN  UNL     1     -19.262  -7.481  -7.033  1.00  0.00     0.166 HD
HETATM   12  C   UNL     1     -20.865  -5.161  -5.285  1.00  0.00     0.035 A 
HETATM   13  C   UNL     1     -21.219  -5.931  -4.179  1.00  0.00     0.015 A 
BRANCH   8  14
HETATM   14  C   UNL     1     -19.705  -9.259  -5.273  1.00  0.00     0.057 C 
BRANCH  14  15
HETATM   15  C   UNL     1     -18.280  -9.528  -4.771  1.00  0.00     0.002 C 
HETATM   16  C   UNL     1     -17.278  -9.839  -5.876  1.00  0.00     0.005 C 
ENDBRANCH  14  15
ENDBRANCH   8  14
BRANCH  10  17
HETATM   17  C   UNL     1     -19.701  -4.884  -7.488  1.00  0.00     0.432 C 
HETATM   18  F   UNL     1     -19.904  -5.448  -8.710  1.00  0.00    -0.165 F 
HETATM   19  F   UNL     1     -20.348  -3.681  -7.519  1.00  0.00    -0.165 F 
HETATM   20  F   UNL     1     -18.370  -4.576  -7.440  1.00  0.00    -0.165 F 
ENDBRANCH  10  17
ENDBRANCH   6   7
ENDBRANCH   1   5
BRANCH   3  21
HETATM   21  C   UNL     1     -22.650 -10.721  -0.008  1.00  0.00     0.114 C 
HETATM   22  C   UNL     1     -24.104 -11.127  -0.235  1.00  0.00     0.037 C 
BRANCH  21  23
HETATM   23  C   UNL     1     -21.707 -11.918  -0.038  1.00  0.00    -0.030 A 
HETATM   24  C   UNL     1     -20.773 -12.035  -1.084  1.00  0.00     0.053 A 
HETATM   25  C   UNL     1     -19.922 -13.140  -1.162  1.00  0.00     0.142 A 
HETATM   26  F   UNL     1     -19.061 -13.218  -2.188  1.00  0.00    -0.204 F 
HETATM   27  C   UNL     1     -19.999 -14.175  -0.234  1.00  0.00     0.099 A 
HETATM   28  C   UNL     1     -20.881 -14.031   0.840  1.00  0.00     0.142 A 
HETATM   29  F   UNL     1     -20.959 -14.996   1.768  1.00  0.00    -0.204 F 
HETATM   30  C   UNL     1     -21.728 -12.923   0.944  1.00  0.00     0.053 A 
BRANCH  27  31
HETATM   31  N   UNL     1     -19.205 -15.363  -0.384  1.00  0.00    -0.180 NA
HETATM   32  H   UNL     1     -19.655 -16.209  -0.022  1.00  0.00     0.146 HD
BRANCH  31  33
HETATM   33  S   UNL     1     -17.622 -15.329   0.197  1.00  0.00     0.210 S 
HETATM   34  C   UNL     1     -17.498 -16.890   1.046  1.00  0.00     0.180 C 
HETATM   35  O   UNL     1     -16.695 -15.311  -0.908  1.00  0.00    -0.211 OA
HETATM   36  O   UNL     1     -17.617 -14.290   1.206  1.00  0.00    -0.211 OA
ENDBRANCH  31  33
ENDBRANCH  27  31
ENDBRANCH  21  23
ENDBRANCH   3  21
TORSDOF 9
ENDMDL
MODEL 9
REMARK VINA RESULT:      -7.3     17.083     20.689
REMARK  9 active torsions:
REMARK  status: ('A' for Active; 'I' for Inactive)
REMARK    1  A    between atoms: C_2  and  C_3 
REMARK    2  A    between atoms: C_3  and  C_4 
REMARK    3  A    between atoms: C_7  and  C_8 
REMARK    4  A    between atoms: C_14  and  C_15 
REMARK    5  A    between atoms: C_16  and  C_17 
REMARK       I    between atoms: C_17  and  N_19 
REMARK    6  A    between atoms: N_19  and  C_20 
REMARK    7  A    between atoms: C_20  and  C_22 
REMARK    8  A    between atoms: C_26  and  N_27 
REMARK    9  A    between atoms: N_27  and  S_28 
ROOT
HETATM    1  C   UNL     1     -20.608 -11.184  -0.823  1.00  0.00     0.241 C 
HETATM    2  O   UNL     1     -21.731 -11.649  -0.663  1.00  0.00    -0.269 OA
HETATM    3  N   UNL     1     -20.353  -9.904  -1.252  1.00  0.00    -0.349 N 
HETATM    4  H   UNL     1     -19.400  -9.587  -1.357  1.00  0.00     0.163 HD
ENDROOT
BRANCH   1   5
HETATM    5  C   UNL     1     -19.381 -11.991  -0.589  1.00  0.00     0.075 C 
HETATM    6  C   UNL     1     -18.170 -11.491  -0.899  1.00  0.00     0.019 C 
BRANCH   6   7
HETATM    7  C   UNL     1     -16.894 -12.180  -0.623  1.00  0.00    -0.013 A 
HETATM    8  C   UNL     1     -15.968 -12.547  -1.614  1.00  0.00     0.019 A 
HETATM    9  N   UNL     1     -14.798 -13.188  -1.324  1.00  0.00    -0.355 N 
HETATM   10  C   UNL     1     -14.492 -13.468  -0.028  1.00  0.00     0.117 A 
ATOM     11  HN  UNL     1     -14.160 -13.456  -2.073  1.00  0.00     0.166 HD
HETATM   12  C   UNL     1     -15.333 -13.088   1.009  1.00  0.00     0.035 A 
HETATM   13  C   UNL     1     -16.530 -12.441   0.708  1.00  0.00     0.015 A 
BRANCH   8  14
HETATM   14  C   UNL     1     -16.173 -12.286  -3.089  1.00  0.00     0.057 C 
BRANCH  14  15
HETATM   15  C   UNL     1     -15.745 -10.888  -3.554  1.00  0.00     0.002 C 
HETATM   16  C   UNL     1     -15.361 -10.812  -5.027  1.00  0.00     0.005 C 
ENDBRANCH  14  15
ENDBRANCH   8  14
BRANCH  10  17
HETATM   17  C   UNL     1     -13.212 -14.224   0.306  1.00  0.00     0.432 C 
HETATM   18  F   UNL     1     -12.441 -14.542  -0.770  1.00  0.00    -0.165 F 
HETATM   19  F   UNL     1     -12.400 -13.527   1.156  1.00  0.00    -0.165 F 
HETATM   20  F   UNL     1     -13.467 -15.408   0.941  1.00  0.00    -0.165 F 
ENDBRANCH  10  17
ENDBRANCH   6   7
ENDBRANCH   1   5
BRANCH   3  21
HETATM   21  C   UNL     1     -21.428  -8.970  -1.574  1.00  0.00     0.114 C 
HETATM   22  C   UNL     1     -21.547  -7.895  -0.496  1.00  0.00     0.037 C 
BRANCH  21  23
HETATM   23  C   UNL     1     -21.239  -8.372  -2.963  1.00  0.00    -0.030 A 
HETATM   24  C   UNL     1     -20.083  -8.688  -3.700  1.00  0.00     0.053 A 
HETATM   25  C   UNL     1     -19.861  -8.126  -4.960  1.00  0.00     0.142 A 
HETATM   26  F   UNL     1     -18.734  -8.442  -5.616  1.00  0.00    -0.204 F 
HETATM   27  C   UNL     1     -20.754  -7.208  -5.504  1.00  0.00     0.099 A 
HETATM   28  C   UNL     1     -21.932  -6.941  -4.804  1.00  0.00     0.142 A 
HETATM   29  F   UNL     1     -22.829  -6.083  -5.315  1.00  0.00    -0.204 F 
HETATM   30  C   UNL     1     -22.180  -7.509  -3.550  1.00  0.00     0.053 A 
BRANCH  27  31
HETATM   31  N   UNL     1     -20.466  -6.543  -6.745  1.00  0.00    -0.180 NA
HETATM   32  H   UNL     1     -19.773  -7.028  -7.323  1.00  0.00     0.146 HD
BRANCH  31  33
HETATM   33  S   UNL     1     -20.038  -4.912  -6.683  1.00  0.00     0.210 S 
HETATM   34  C   UNL     1     -21.403  -4.133  -7.521  1.00  0.00     0.180 C 
HETATM   35  O   UNL     1     -20.004  -4.467  -5.311  1.00  0.00    -0.211 OA
HETATM   36  O   UNL     1     -18.882  -4.796  -7.545  1.00  0.00    -0.211 OA
ENDBRANCH  31  33
ENDBRANCH  27  31
ENDBRANCH  21  23
ENDBRANCH   3  21
TORSDOF 9
ENDMDL
