REMARK  4 active torsions:
REMARK  status: ('A' for Active; 'I' for Inactive)
REMARK       I    between atoms: C_2  and  N_3 
REMARK       I    between atoms: C_2  and  N_15 
REMARK    1  A    between atoms: N_3  and  C_4 
REMARK    2  A    between atoms: C_4  and  C_5 
REMARK    3  A    between atoms: C_8  and  C_9 
REMARK    4  A    between atoms: N_15  and  C_16 
ROOT
HETATM    1  O   UNL     1       1.374   0.297   0.191  1.00  0.00    -0.247 OA
HETATM    2  C   UNL     1       2.578   0.146   0.362  1.00  0.00     0.321 C 
HETATM    3  N   UNL     1       3.213  -1.017  -0.026  1.00  0.00    -0.339 N 
HETATM    4  N   UNL     1       3.453   1.052   0.934  1.00  0.00    -0.308 N 
HETATM    5  H   UNL     1       4.123  -1.223   0.349  1.00  0.00     0.164 HD
HETATM    6  H   UNL     1       4.337   0.671   1.230  1.00  0.00     0.170 HD
ENDROOT
BRANCH   3   7
HETATM    7  C   UNL     1       2.444  -2.143  -0.528  1.00  0.00     0.162 C 
BRANCH   7   8
HETATM    8  C   UNL     1       3.250  -2.980  -1.490  1.00  0.00    -0.040 A 
HETATM    9  C   UNL     1       3.508  -4.335  -1.238  1.00  0.00     0.009 A 
HETATM   10  C   UNL     1       4.220  -5.107  -2.163  1.00  0.00     0.017 A 
HETATM   11  C   UNL     1       4.683  -4.542  -3.360  1.00  0.00     0.047 A 
HETATM   12  C   UNL     1       4.425  -3.186  -3.610  1.00  0.00     0.017 A 
HETATM   13  C   UNL     1       3.714  -2.416  -2.686  1.00  0.00     0.009 A 
BRANCH  11  14
HETATM   14  C   UNL     1       5.439  -5.359  -4.379  1.00  0.00     0.417 C 
HETATM   15  F   UNL     1       5.618  -6.659  -4.016  1.00  0.00    -0.166 F 
HETATM   16  F   UNL     1       4.813  -5.393  -5.589  1.00  0.00    -0.166 F 
HETATM   17  F   UNL     1       6.686  -4.865  -4.620  1.00  0.00    -0.166 F 
ENDBRANCH  11  14
ENDBRANCH   7   8
ENDBRANCH   3   7
BRANCH   4  18
HETATM   18  C   UNL     1       3.086   2.313   1.495  1.00  0.00     0.047 C 
HETATM   19  C   UNL     1       1.875   2.925   1.142  1.00  0.00     0.030 C 
HETATM   20  C   UNL     1       1.425   4.071   1.801  1.00  0.00     0.003 C 
HETATM   21  C   UNL     1       2.138   4.561   2.876  1.00  0.00     0.014 C 
HETATM   22  C   UNL     1       3.371   3.996   3.230  1.00  0.00    -0.008 C 
HETATM   23  C   UNL     1       4.090   4.483   4.322  1.00  0.00     0.100 C 
HETATM   24  C   UNL     1       3.924   2.941   2.469  1.00  0.00     0.004 C 
HETATM   25  N   UNL     1       5.364   4.143   4.612  1.00  0.00    -0.374 N 
HETATM   26  C   UNL     1       5.941   3.260   3.780  1.00  0.00     0.088 C 
ATOM     27  HN  UNL     1       5.859   4.533   5.414  1.00  0.00     0.164 HD
HETATM   28  C   UNL     1       5.273   2.612   2.748  1.00  0.00     0.031 C 
ENDBRANCH   4  18
TORSDOF 4
