MODEL 1
REMARK VINA RESULT:     -10.9      0.000      0.000
REMARK  4 active torsions:
REMARK  status: ('A' for Active; 'I' for Inactive)
REMARK       I    between atoms: C_2  and  N_3 
REMARK       I    between atoms: C_2  and  N_15 
REMARK    1  A    between atoms: N_3  and  C_4 
REMARK    2  A    between atoms: C_4  and  C_5 
REMARK    3  A    between atoms: C_8  and  C_9 
REMARK    4  A    between atoms: N_15  and  C_16 
ROOT
HETATM    1  O   UNL     1     -20.587  -3.857  -6.336  1.00  0.00    -0.247 OA
HETATM    2  C   UNL     1     -21.097  -4.954  -6.531  1.00  0.00     0.321 C 
HETATM    3  N   UNL     1     -21.272  -5.853  -5.498  1.00  0.00    -0.339 N 
HETATM    4  N   UNL     1     -21.556  -5.451  -7.738  1.00  0.00    -0.308 N 
HETATM    5  H   UNL     1     -21.445  -6.819  -5.717  1.00  0.00     0.164 HD
HETATM    6  H   UNL     1     -21.701  -6.447  -7.768  1.00  0.00     0.170 HD
ENDROOT
BRANCH   3   7
HETATM    7  C   UNL     1     -20.736  -5.570  -4.178  1.00  0.00     0.162 C 
BRANCH   7   8
HETATM    8  C   UNL     1     -21.284  -6.520  -3.141  1.00  0.00    -0.040 A 
HETATM    9  C   UNL     1     -21.107  -7.906  -3.257  1.00  0.00     0.009 A 
HETATM   10  C   UNL     1     -21.584  -8.769  -2.264  1.00  0.00     0.017 A 
HETATM   11  C   UNL     1     -22.241  -8.263  -1.133  1.00  0.00     0.047 A 
HETATM   12  C   UNL     1     -22.418  -6.876  -1.019  1.00  0.00     0.017 A 
HETATM   13  C   UNL     1     -21.941  -6.015  -2.011  1.00  0.00     0.009 A 
BRANCH  11  14
HETATM   14  C   UNL     1     -22.750  -9.173  -0.041  1.00  0.00     0.417 C 
HETATM   15  F   UNL     1     -23.767  -8.638   0.689  1.00  0.00    -0.166 F 
HETATM   16  F   UNL     1     -23.221 -10.356  -0.526  1.00  0.00    -0.166 F 
HETATM   17  F   UNL     1     -21.779  -9.500   0.857  1.00  0.00    -0.166 F 
ENDBRANCH  11  14
ENDBRANCH   7   8
ENDBRANCH   3   7
BRANCH   4  18
HETATM   18  C   UNL     1     -21.452  -4.787  -8.998  1.00  0.00     0.047 C 
HETATM   19  C   UNL     1     -20.227  -4.739  -9.679  1.00  0.00     0.030 C 
HETATM   20  C   UNL     1     -20.143  -4.240 -10.980  1.00  0.00     0.003 C 
HETATM   21  C   UNL     1     -21.295  -3.870 -11.643  1.00  0.00     0.014 C 
HETATM   22  C   UNL     1     -22.529  -3.870 -10.978  1.00  0.00    -0.008 C 
HETATM   23  C   UNL     1     -23.698  -3.505 -11.647  1.00  0.00     0.100 C 
HETATM   24  C   UNL     1     -22.609  -4.211  -9.609  1.00  0.00     0.004 C 
HETATM   25  N   UNL     1     -24.886  -3.281 -11.045  1.00  0.00    -0.374 N 
HETATM   26  C   UNL     1     -24.910  -3.446  -9.712  1.00  0.00     0.088 C 
ATOM     27  HN  UNL     1     -25.714  -3.002 -11.570  1.00  0.00     0.164 HD
HETATM   28  C   UNL     1     -23.844  -3.939  -8.970  1.00  0.00     0.031 C 
ENDBRANCH   4  18
TORSDOF 4
ENDMDL
MODEL 2
REMARK VINA RESULT:     -10.9      0.980      1.505
REMARK  4 active torsions:
REMARK  status: ('A' for Active; 'I' for Inactive)
REMARK       I    between atoms: C_2  and  N_3 
REMARK       I    between atoms: C_2  and  N_15 
REMARK    1  A    between atoms: N_3  and  C_4 
REMARK    2  A    between atoms: C_4  and  C_5 
REMARK    3  A    between atoms: C_8  and  C_9 
REMARK    4  A    between atoms: N_15  and  C_16 
ROOT
HETATM    1  O   UNL     1     -19.696  -6.355  -7.515  1.00  0.00    -0.247 OA
HETATM    2  C   UNL     1     -20.711  -5.896  -7.003  1.00  0.00     0.321 C 
HETATM    3  N   UNL     1     -21.100  -6.269  -5.732  1.00  0.00    -0.339 N 
HETATM    4  N   UNL     1     -21.584  -4.985  -7.570  1.00  0.00    -0.308 N 
HETATM    5  H   UNL     1     -22.045  -6.089  -5.440  1.00  0.00     0.164 HD
HETATM    6  H   UNL     1     -22.486  -4.918  -7.126  1.00  0.00     0.170 HD
ENDROOT
BRANCH   3   7
HETATM    7  C   UNL     1     -20.385  -7.315  -5.021  1.00  0.00     0.162 C 
BRANCH   7   8
HETATM    8  C   UNL     1     -20.918  -7.498  -3.622  1.00  0.00    -0.040 A 
HETATM    9  C   UNL     1     -21.624  -6.477  -2.971  1.00  0.00     0.009 A 
HETATM   10  C   UNL     1     -22.149  -6.680  -1.690  1.00  0.00     0.017 A 
HETATM   11  C   UNL     1     -21.984  -7.910  -1.037  1.00  0.00     0.047 A 
HETATM   12  C   UNL     1     -21.277  -8.931  -1.689  1.00  0.00     0.017 A 
HETATM   13  C   UNL     1     -20.753  -8.727  -2.968  1.00  0.00     0.009 A 
BRANCH  11  14
HETATM   14  C   UNL     1     -22.556  -8.157   0.338  1.00  0.00     0.417 C 
HETATM   15  F   UNL     1     -21.714  -7.813   1.351  1.00  0.00    -0.166 F 
HETATM   16  F   UNL     1     -23.707  -7.462   0.557  1.00  0.00    -0.166 F 
HETATM   17  F   UNL     1     -22.869  -9.468   0.543  1.00  0.00    -0.166 F 
ENDBRANCH  11  14
ENDBRANCH   7   8
ENDBRANCH   3   7
BRANCH   4  18
HETATM   18  C   UNL     1     -21.490  -4.466  -8.897  1.00  0.00     0.047 C 
HETATM   19  C   UNL     1     -20.259  -4.444  -9.568  1.00  0.00     0.030 C 
HETATM   20  C   UNL     1     -20.178  -4.096 -10.918  1.00  0.00     0.003 C 
HETATM   21  C   UNL     1     -21.336  -3.853 -11.628  1.00  0.00     0.014 C 
HETATM   22  C   UNL     1     -22.578  -3.830 -10.979  1.00  0.00    -0.008 C 
HETATM   23  C   UNL     1     -23.752  -3.594 -11.696  1.00  0.00     0.100 C 
HETATM   24  C   UNL     1     -22.662  -4.014  -9.580  1.00  0.00     0.004 C 
HETATM   25  N   UNL     1     -24.956  -3.353 -11.134  1.00  0.00    -0.374 N 
HETATM   26  C   UNL     1     -24.991  -3.366  -9.791  1.00  0.00     0.088 C 
ATOM     27  HN  UNL     1     -25.788  -3.172 -11.695  1.00  0.00     0.164 HD
HETATM   28  C   UNL     1     -23.915  -3.723  -8.988  1.00  0.00     0.031 C 
ENDBRANCH   4  18
TORSDOF 4
ENDMDL
MODEL 3
REMARK VINA RESULT:     -10.2      1.375      2.591
REMARK  4 active torsions:
REMARK  status: ('A' for Active; 'I' for Inactive)
REMARK       I    between atoms: C_2  and  N_3 
REMARK       I    between atoms: C_2  and  N_15 
REMARK    1  A    between atoms: N_3  and  C_4 
REMARK    2  A    between atoms: C_4  and  C_5 
REMARK    3  A    between atoms: C_8  and  C_9 
REMARK    4  A    between atoms: N_15  and  C_16 
ROOT
HETATM    1  O   UNL     1     -21.162  -6.504  -7.508  1.00  0.00    -0.247 OA
HETATM    2  C   UNL     1     -21.458  -5.582  -6.757  1.00  0.00     0.321 C 
HETATM    3  N   UNL     1     -21.057  -5.583  -5.435  1.00  0.00    -0.339 N 
HETATM    4  N   UNL     1     -22.194  -4.456  -7.078  1.00  0.00    -0.308 N 
HETATM    5  H   UNL     1     -21.517  -4.966  -4.787  1.00  0.00     0.164 HD
HETATM    6  H   UNL     1     -22.559  -3.940  -6.294  1.00  0.00     0.170 HD
ENDROOT
BRANCH   3   7
HETATM    7  C   UNL     1     -20.386  -6.741  -4.870  1.00  0.00     0.162 C 
BRANCH   7   8
HETATM    8  C   UNL     1     -20.926  -7.082  -3.503  1.00  0.00    -0.040 A 
HETATM    9  C   UNL     1     -21.720  -6.176  -2.786  1.00  0.00     0.009 A 
HETATM   10  C   UNL     1     -22.249  -6.527  -1.539  1.00  0.00     0.017 A 
HETATM   11  C   UNL     1     -21.999  -7.791  -0.986  1.00  0.00     0.047 A 
HETATM   12  C   UNL     1     -21.204  -8.696  -1.705  1.00  0.00     0.017 A 
HETATM   13  C   UNL     1     -20.677  -8.345  -2.950  1.00  0.00     0.009 A 
BRANCH  11  14
HETATM   14  C   UNL     1     -22.572  -8.197   0.350  1.00  0.00     0.417 C 
HETATM   15  F   UNL     1     -21.754  -7.924   1.403  1.00  0.00    -0.166 F 
HETATM   16  F   UNL     1     -23.752  -7.573   0.623  1.00  0.00    -0.166 F 
HETATM   17  F   UNL     1     -22.834  -9.533   0.419  1.00  0.00    -0.166 F 
ENDBRANCH  11  14
ENDBRANCH   7   8
ENDBRANCH   3   7
BRANCH   4  18
HETATM   18  C   UNL     1     -22.803  -4.202  -8.344  1.00  0.00     0.047 C 
HETATM   19  C   UNL     1     -24.195  -4.069  -8.452  1.00  0.00     0.030 C 
HETATM   20  C   UNL     1     -24.792  -3.659  -9.645  1.00  0.00     0.003 C 
HETATM   21  C   UNL     1     -23.997  -3.293 -10.712  1.00  0.00     0.014 C 
HETATM   22  C   UNL     1     -22.606  -3.450 -10.651  1.00  0.00    -0.008 C 
HETATM   23  C   UNL     1     -21.799  -3.073 -11.725  1.00  0.00     0.100 C 
HETATM   24  C   UNL     1     -21.996  -4.022  -9.511  1.00  0.00     0.004 C 
HETATM   25  N   UNL     1     -20.487  -3.371 -11.837  1.00  0.00    -0.374 N 
HETATM   26  C   UNL     1     -19.952  -4.065 -10.818  1.00  0.00     0.088 C 
ATOM     27  HN  UNL     1     -19.935  -3.087 -12.646  1.00  0.00     0.164 HD
HETATM   28  C   UNL     1     -20.630  -4.370  -9.644  1.00  0.00     0.031 C 
ENDBRANCH   4  18
TORSDOF 4
ENDMDL
MODEL 4
REMARK VINA RESULT:     -10.1      5.205      9.615
REMARK  4 active torsions:
REMARK  status: ('A' for Active; 'I' for Inactive)
REMARK       I    between atoms: C_2  and  N_3 
REMARK       I    between atoms: C_2  and  N_15 
REMARK    1  A    between atoms: N_3  and  C_4 
REMARK    2  A    between atoms: C_4  and  C_5 
REMARK    3  A    between atoms: C_8  and  C_9 
REMARK    4  A    between atoms: N_15  and  C_16 
ROOT
HETATM    1  O   UNL     1     -19.628  -5.053  -5.641  1.00  0.00    -0.247 OA
HETATM    2  C   UNL     1     -20.340  -5.909  -6.153  1.00  0.00     0.321 C 
HETATM    3  N   UNL     1     -20.507  -5.974  -7.522  1.00  0.00    -0.339 N 
HETATM    4  N   UNL     1     -21.054  -6.894  -5.493  1.00  0.00    -0.308 N 
HETATM    5  H   UNL     1     -21.278  -6.501  -7.894  1.00  0.00     0.164 HD
HETATM    6  H   UNL     1     -21.779  -7.337  -6.034  1.00  0.00     0.170 HD
ENDROOT
BRANCH   3   7
HETATM    7  C   UNL     1     -19.944  -4.946  -8.381  1.00  0.00     0.162 C 
BRANCH   7   8
HETATM    8  C   UNL     1     -20.943  -4.473  -9.407  1.00  0.00    -0.040 A 
HETATM    9  C   UNL     1     -20.555  -4.183 -10.723  1.00  0.00     0.009 A 
HETATM   10  C   UNL     1     -21.503  -3.787 -11.672  1.00  0.00     0.017 A 
HETATM   11  C   UNL     1     -22.858  -3.678 -11.328  1.00  0.00     0.047 A 
HETATM   12  C   UNL     1     -23.244  -3.967 -10.010  1.00  0.00     0.017 A 
HETATM   13  C   UNL     1     -22.297  -4.362  -9.063  1.00  0.00     0.009 A 
BRANCH  11  14
HETATM   14  C   UNL     1     -23.901  -3.268 -12.339  1.00  0.00     0.417 C 
HETATM   15  F   UNL     1     -25.116  -2.991 -11.792  1.00  0.00    -0.166 F 
HETATM   16  F   UNL     1     -23.542  -2.152 -13.034  1.00  0.00    -0.166 F 
HETATM   17  F   UNL     1     -24.125  -4.233 -13.275  1.00  0.00    -0.166 F 
ENDBRANCH  11  14
ENDBRANCH   7   8
ENDBRANCH   3   7
BRANCH   4  18
HETATM   18  C   UNL     1     -21.139  -7.043  -4.076  1.00  0.00     0.047 C 
HETATM   19  C   UNL     1     -21.941  -6.181  -3.315  1.00  0.00     0.030 C 
HETATM   20  C   UNL     1     -22.166  -6.412  -1.956  1.00  0.00     0.003 C 
HETATM   21  C   UNL     1     -21.663  -7.556  -1.370  1.00  0.00     0.014 C 
HETATM   22  C   UNL     1     -20.827  -8.418  -2.092  1.00  0.00    -0.008 C 
HETATM   23  C   UNL     1     -20.324  -9.580  -1.505  1.00  0.00     0.100 C 
HETATM   24  C   UNL     1     -20.451  -8.112  -3.420  1.00  0.00     0.004 C 
HETATM   25  N   UNL     1     -19.361 -10.355  -2.046  1.00  0.00    -0.374 N 
HETATM   26  C   UNL     1     -18.889  -9.960  -3.240  1.00  0.00     0.088 C 
ATOM     27  HN  UNL     1     -19.011 -11.191  -1.577  1.00  0.00     0.164 HD
HETATM   28  C   UNL     1     -19.413  -8.901  -3.972  1.00  0.00     0.031 C 
ENDBRANCH   4  18
TORSDOF 4
ENDMDL
MODEL 5
REMARK VINA RESULT:      -9.5      5.345      9.560
REMARK  4 active torsions:
REMARK  status: ('A' for Active; 'I' for Inactive)
REMARK       I    between atoms: C_2  and  N_3 
REMARK       I    between atoms: C_2  and  N_15 
REMARK    1  A    between atoms: N_3  and  C_4 
REMARK    2  A    between atoms: C_4  and  C_5 
REMARK    3  A    between atoms: C_8  and  C_9 
REMARK    4  A    between atoms: N_15  and  C_16 
ROOT
HETATM    1  O   UNL     1     -19.781  -6.769  -6.612  1.00  0.00    -0.247 OA
HETATM    2  C   UNL     1     -20.872  -6.293  -6.322  1.00  0.00     0.321 C 
HETATM    3  N   UNL     1     -21.335  -5.145  -6.935  1.00  0.00    -0.339 N 
HETATM    4  N   UNL     1     -21.771  -6.787  -5.394  1.00  0.00    -0.308 N 
HETATM    5  H   UNL     1     -22.092  -4.638  -6.509  1.00  0.00     0.164 HD
HETATM    6  H   UNL     1     -22.485  -6.142  -5.098  1.00  0.00     0.170 HD
ENDROOT
BRANCH   3   7
HETATM    7  C   UNL     1     -20.481  -4.401  -7.845  1.00  0.00     0.162 C 
BRANCH   7   8
HETATM    8  C   UNL     1     -21.191  -4.086  -9.138  1.00  0.00    -0.040 A 
HETATM    9  C   UNL     1     -20.499  -4.040 -10.357  1.00  0.00     0.009 A 
HETATM   10  C   UNL     1     -21.182  -3.789 -11.553  1.00  0.00     0.017 A 
HETATM   11  C   UNL     1     -22.569  -3.586 -11.555  1.00  0.00     0.047 A 
HETATM   12  C   UNL     1     -23.259  -3.632 -10.335  1.00  0.00     0.017 A 
HETATM   13  C   UNL     1     -22.577  -3.882  -9.141  1.00  0.00     0.009 A 
BRANCH  11  14
HETATM   14  C   UNL     1     -23.328  -3.330 -12.834  1.00  0.00     0.417 C 
HETATM   15  F   UNL     1     -22.527  -3.079 -13.906  1.00  0.00    -0.166 F 
HETATM   16  F   UNL     1     -24.113  -4.384 -13.194  1.00  0.00    -0.166 F 
HETATM   17  F   UNL     1     -24.165  -2.260 -12.736  1.00  0.00    -0.166 F 
ENDBRANCH  11  14
ENDBRANCH   7   8
ENDBRANCH   3   7
BRANCH   4  18
HETATM   18  C   UNL     1     -21.549  -7.918  -4.551  1.00  0.00     0.047 C 
HETATM   19  C   UNL     1     -21.170  -9.152  -5.099  1.00  0.00     0.030 C 
HETATM   20  C   UNL     1     -20.790 -10.220  -4.283  1.00  0.00     0.003 C 
HETATM   21  C   UNL     1     -20.700 -10.033  -2.918  1.00  0.00     0.014 C 
HETATM   22  C   UNL     1     -21.108  -8.825  -2.336  1.00  0.00    -0.008 C 
HETATM   23  C   UNL     1     -21.010  -8.631  -0.958  1.00  0.00     0.100 C 
HETATM   24  C   UNL     1     -21.654  -7.792  -3.131  1.00  0.00     0.004 C 
HETATM   25  N   UNL     1     -21.560  -7.593  -0.291  1.00  0.00    -0.374 N 
HETATM   26  C   UNL     1     -22.225  -6.698  -1.041  1.00  0.00     0.088 C 
ATOM     27  HN  UNL     1     -21.477  -7.495   0.721  1.00  0.00     0.164 HD
HETATM   28  C   UNL     1     -22.265  -6.724  -2.430  1.00  0.00     0.031 C 
ENDBRANCH   4  18
TORSDOF 4
ENDMDL
MODEL 6
REMARK VINA RESULT:      -9.1      4.971      9.351
REMARK  4 active torsions:
REMARK  status: ('A' for Active; 'I' for Inactive)
REMARK       I    between atoms: C_2  and  N_3 
REMARK       I    between atoms: C_2  and  N_15 
REMARK    1  A    between atoms: N_3  and  C_4 
REMARK    2  A    between atoms: C_4  and  C_5 
REMARK    3  A    between atoms: C_8  and  C_9 
REMARK    4  A    between atoms: N_15  and  C_16 
ROOT
HETATM    1  O   UNL     1     -22.055  -6.133  -3.948  1.00  0.00    -0.247 OA
HETATM    2  C   UNL     1     -21.078  -6.675  -4.452  1.00  0.00     0.321 C 
HETATM    3  N   UNL     1     -20.186  -5.960  -5.226  1.00  0.00    -0.339 N 
HETATM    4  N   UNL     1     -20.722  -8.007  -4.341  1.00  0.00    -0.308 N 
HETATM    5  H   UNL     1     -19.555  -6.460  -5.829  1.00  0.00     0.164 HD
HETATM    6  H   UNL     1     -20.052  -8.333  -5.019  1.00  0.00     0.170 HD
ENDROOT
BRANCH   3   7
HETATM    7  C   UNL     1     -20.456  -4.574  -5.569  1.00  0.00     0.162 C 
BRANCH   7   8
HETATM    8  C   UNL     1     -20.798  -4.422  -7.031  1.00  0.00    -0.040 A 
HETATM    9  C   UNL     1     -19.871  -4.739  -8.033  1.00  0.00     0.009 A 
HETATM   10  C   UNL     1     -20.220  -4.633  -9.384  1.00  0.00     0.017 A 
HETATM   11  C   UNL     1     -21.505  -4.214  -9.760  1.00  0.00     0.047 A 
HETATM   12  C   UNL     1     -22.431  -3.896  -8.755  1.00  0.00     0.017 A 
HETATM   13  C   UNL     1     -22.081  -4.002  -7.407  1.00  0.00     0.009 A 
BRANCH  11  14
HETATM   14  C   UNL     1     -21.909  -4.107 -11.210  1.00  0.00     0.417 C 
HETATM   15  F   UNL     1     -22.858  -5.010 -11.582  1.00  0.00    -0.166 F 
HETATM   16  F   UNL     1     -22.418  -2.882 -11.521  1.00  0.00    -0.166 F 
HETATM   17  F   UNL     1     -20.859  -4.300 -12.057  1.00  0.00    -0.166 F 
ENDBRANCH  11  14
ENDBRANCH   7   8
ENDBRANCH   3   7
BRANCH   4  18
HETATM   18  C   UNL     1     -21.479  -9.011  -3.665  1.00  0.00     0.047 C 
HETATM   19  C   UNL     1     -22.140 -10.014  -4.389  1.00  0.00     0.030 C 
HETATM   20  C   UNL     1     -22.745 -11.093  -3.742  1.00  0.00     0.003 C 
HETATM   21  C   UNL     1     -22.618 -11.224  -2.374  1.00  0.00     0.014 C 
HETATM   22  C   UNL     1     -21.997 -10.221  -1.617  1.00  0.00    -0.008 C 
HETATM   23  C   UNL     1     -21.859 -10.355  -0.236  1.00  0.00     0.100 C 
HETATM   24  C   UNL     1     -21.527  -9.040  -2.236  1.00  0.00     0.004 C 
HETATM   25  N   UNL     1     -21.464  -9.364   0.593  1.00  0.00    -0.374 N 
HETATM   26  C   UNL     1     -21.178  -8.188   0.009  1.00  0.00     0.088 C 
ATOM     27  HN  UNL     1     -21.388  -9.500   1.601  1.00  0.00     0.164 HD
HETATM   28  C   UNL     1     -21.151  -7.988  -1.366  1.00  0.00     0.031 C 
ENDBRANCH   4  18
TORSDOF 4
ENDMDL
MODEL 7
REMARK VINA RESULT:      -9.0      5.034      9.561
REMARK  4 active torsions:
REMARK  status: ('A' for Active; 'I' for Inactive)
REMARK       I    between atoms: C_2  and  N_3 
REMARK       I    between atoms: C_2  and  N_15 
REMARK    1  A    between atoms: N_3  and  C_4 
REMARK    2  A    between atoms: C_4  and  C_5 
REMARK    3  A    between atoms: C_8  and  C_9 
REMARK    4  A    between atoms: N_15  and  C_16 
ROOT
HETATM    1  O   UNL     1     -21.242  -5.730  -2.776  1.00  0.00    -0.247 OA
HETATM    2  C   UNL     1     -21.081  -6.585  -3.638  1.00  0.00     0.321 C 
HETATM    3  N   UNL     1     -20.672  -6.245  -4.913  1.00  0.00    -0.339 N 
HETATM    4  N   UNL     1     -21.266  -7.949  -3.497  1.00  0.00    -0.308 N 
HETATM    5  H   UNL     1     -20.795  -6.910  -5.657  1.00  0.00     0.164 HD
HETATM    6  H   UNL     1     -21.343  -8.466  -4.358  1.00  0.00     0.170 HD
ENDROOT
BRANCH   3   7
HETATM    7  C   UNL     1     -20.550  -4.849  -5.298  1.00  0.00     0.162 C 
BRANCH   7   8
HETATM    8  C   UNL     1     -20.791  -4.659  -6.775  1.00  0.00    -0.040 A 
HETATM    9  C   UNL     1     -22.073  -4.395  -7.276  1.00  0.00     0.009 A 
HETATM   10  C   UNL     1     -22.271  -4.177  -8.645  1.00  0.00     0.017 A 
HETATM   11  C   UNL     1     -21.190  -4.213  -9.538  1.00  0.00     0.047 A 
HETATM   12  C   UNL     1     -19.908  -4.478  -9.034  1.00  0.00     0.017 A 
HETATM   13  C   UNL     1     -19.712  -4.695  -7.668  1.00  0.00     0.009 A 
BRANCH  11  14
HETATM   14  C   UNL     1     -21.377  -3.965 -11.014  1.00  0.00     0.417 C 
HETATM   15  F   UNL     1     -21.916  -2.749 -11.303  1.00  0.00    -0.166 F 
HETATM   16  F   UNL     1     -20.204  -4.026 -11.706  1.00  0.00    -0.166 F 
HETATM   17  F   UNL     1     -22.199  -4.884 -11.596  1.00  0.00    -0.166 F 
ENDBRANCH  11  14
ENDBRANCH   7   8
ENDBRANCH   3   7
BRANCH   4  18
HETATM   18  C   UNL     1     -21.751  -8.599  -2.322  1.00  0.00     0.047 C 
HETATM   19  C   UNL     1     -21.979  -7.869  -1.146  1.00  0.00     0.030 C 
HETATM   20  C   UNL     1     -22.606  -8.452  -0.043  1.00  0.00     0.003 C 
HETATM   21  C   UNL     1     -23.089  -9.742  -0.139  1.00  0.00     0.014 C 
HETATM   22  C   UNL     1     -22.844 -10.510  -1.285  1.00  0.00    -0.008 C 
HETATM   23  C   UNL     1     -23.339 -11.811  -1.389  1.00  0.00     0.100 C 
HETATM   24  C   UNL     1     -22.066  -9.994  -2.346  1.00  0.00     0.004 C 
HETATM   25  N   UNL     1     -22.987 -12.688  -2.353  1.00  0.00    -0.374 N 
HETATM   26  C   UNL     1     -22.112 -12.238  -3.267  1.00  0.00     0.088 C 
ATOM     27  HN  UNL     1     -23.363 -13.636  -2.385  1.00  0.00     0.164 HD
HETATM   28  C   UNL     1     -21.665 -10.924  -3.335  1.00  0.00     0.031 C 
ENDBRANCH   4  18
TORSDOF 4
ENDMDL
MODEL 8
REMARK VINA RESULT:      -8.9      2.717      3.402
REMARK  4 active torsions:
REMARK  status: ('A' for Active; 'I' for Inactive)
REMARK       I    between atoms: C_2  and  N_3 
REMARK       I    between atoms: C_2  and  N_15 
REMARK    1  A    between atoms: N_3  and  C_4 
REMARK    2  A    between atoms: C_4  and  C_5 
REMARK    3  A    between atoms: C_8  and  C_9 
REMARK    4  A    between atoms: N_15  and  C_16 
ROOT
HETATM    1  O   UNL     1     -21.603  -7.028  -7.139  1.00  0.00    -0.247 OA
HETATM    2  C   UNL     1     -21.464  -5.968  -6.541  1.00  0.00     0.321 C 
HETATM    3  N   UNL     1     -21.533  -5.913  -5.163  1.00  0.00    -0.339 N 
HETATM    4  N   UNL     1     -21.230  -4.725  -7.101  1.00  0.00    -0.308 N 
HETATM    5  H   UNL     1     -21.675  -5.022  -4.718  1.00  0.00     0.164 HD
HETATM    6  H   UNL     1     -21.400  -3.939  -6.495  1.00  0.00     0.170 HD
ENDROOT
BRANCH   3   7
HETATM    7  C   UNL     1     -21.902  -7.091  -4.397  1.00  0.00     0.162 C 
BRANCH   7   8
HETATM    8  C   UNL     1     -20.687  -7.855  -3.934  1.00  0.00    -0.040 A 
HETATM    9  C   UNL     1     -20.469  -8.125  -2.576  1.00  0.00     0.009 A 
HETATM   10  C   UNL     1     -19.358  -8.874  -2.169  1.00  0.00     0.017 A 
HETATM   11  C   UNL     1     -18.447  -9.372  -3.112  1.00  0.00     0.047 A 
HETATM   12  C   UNL     1     -18.666  -9.099  -4.471  1.00  0.00     0.017 A 
HETATM   13  C   UNL     1     -19.775  -8.352  -4.876  1.00  0.00     0.009 A 
BRANCH  11  14
HETATM   14  C   UNL     1     -17.252 -10.194  -2.698  1.00  0.00     0.417 C 
HETATM   15  F   UNL     1     -16.933 -11.181  -3.581  1.00  0.00    -0.166 F 
HETATM   16  F   UNL     1     -16.124  -9.442  -2.558  1.00  0.00    -0.166 F 
HETATM   17  F   UNL     1     -17.437 -10.813  -1.499  1.00  0.00    -0.166 F 
ENDBRANCH  11  14
ENDBRANCH   7   8
ENDBRANCH   3   7
BRANCH   4  18
HETATM   18  C   UNL     1     -21.176  -4.448  -8.501  1.00  0.00     0.047 C 
HETATM   19  C   UNL     1     -19.974  -4.589  -9.210  1.00  0.00     0.030 C 
HETATM   20  C   UNL     1     -19.939  -4.483 -10.602  1.00  0.00     0.003 C 
HETATM   21  C   UNL     1     -21.118  -4.323 -11.301  1.00  0.00     0.014 C 
HETATM   22  C   UNL     1     -22.330  -4.140 -10.621  1.00  0.00    -0.008 C 
HETATM   23  C   UNL     1     -23.525  -3.988 -11.325  1.00  0.00     0.100 C 
HETATM   24  C   UNL     1     -22.361  -4.076  -9.210  1.00  0.00     0.004 C 
HETATM   25  N   UNL     1     -24.696  -3.607 -10.771  1.00  0.00    -0.374 N 
HETATM   26  C   UNL     1     -24.675  -3.386  -9.446  1.00  0.00     0.088 C 
ATOM     27  HN  UNL     1     -25.546  -3.494 -11.324  1.00  0.00     0.164 HD
HETATM   28  C   UNL     1     -23.578  -3.640  -8.632  1.00  0.00     0.031 C 
ENDBRANCH   4  18
TORSDOF 4
ENDMDL
MODEL 9
REMARK VINA RESULT:      -8.7      5.393      9.733
REMARK  4 active torsions:
REMARK  status: ('A' for Active; 'I' for Inactive)
REMARK       I    between atoms: C_2  and  N_3 
REMARK       I    between atoms: C_2  and  N_15 
REMARK    1  A    between atoms: N_3  and  C_4 
REMARK    2  A    between atoms: C_4  and  C_5 
REMARK    3  A    between atoms: C_8  and  C_9 
REMARK    4  A    between atoms: N_15  and  C_16 
ROOT
HETATM    1  O   UNL     1     -20.678  -6.297  -4.516  1.00  0.00    -0.247 OA
HETATM    2  C   UNL     1     -20.294  -6.954  -5.476  1.00  0.00     0.321 C 
HETATM    3  N   UNL     1     -19.963  -6.346  -6.671  1.00  0.00    -0.339 N 
HETATM    4  N   UNL     1     -20.136  -8.328  -5.529  1.00  0.00    -0.308 N 
HETATM    5  H   UNL     1     -19.904  -6.908  -7.503  1.00  0.00     0.164 HD
HETATM    6  H   UNL     1     -20.067  -8.720  -6.454  1.00  0.00     0.170 HD
ENDROOT
BRANCH   3   7
HETATM    7  C   UNL     1     -20.186  -4.923  -6.858  1.00  0.00     0.162 C 
BRANCH   7   8
HETATM    8  C   UNL     1     -20.913  -4.641  -8.150  1.00  0.00    -0.040 A 
HETATM    9  C   UNL     1     -22.288  -4.367  -8.168  1.00  0.00     0.009 A 
HETATM   10  C   UNL     1     -22.937  -4.065  -9.370  1.00  0.00     0.017 A 
HETATM   11  C   UNL     1     -22.225  -4.025 -10.577  1.00  0.00     0.047 A 
HETATM   12  C   UNL     1     -20.849  -4.301 -10.558  1.00  0.00     0.017 A 
HETATM   13  C   UNL     1     -20.202  -4.603  -9.357  1.00  0.00     0.009 A 
BRANCH  11  14
HETATM   14  C   UNL     1     -22.900  -3.686 -11.883  1.00  0.00     0.417 C 
HETATM   15  F   UNL     1     -23.636  -2.542 -11.839  1.00  0.00    -0.166 F 
HETATM   16  F   UNL     1     -22.012  -3.518 -12.902  1.00  0.00    -0.166 F 
HETATM   17  F   UNL     1     -23.757  -4.663 -12.294  1.00  0.00    -0.166 F 
ENDBRANCH  11  14
ENDBRANCH   7   8
ENDBRANCH   3   7
BRANCH   4  18
HETATM   18  C   UNL     1     -20.462  -9.237  -4.477  1.00  0.00     0.047 C 
HETATM   19  C   UNL     1     -21.786  -9.655  -4.282  1.00  0.00     0.030 C 
HETATM   20  C   UNL     1     -22.098 -10.666  -3.369  1.00  0.00     0.003 C 
HETATM   21  C   UNL     1     -21.080 -11.326  -2.712  1.00  0.00     0.014 C 
HETATM   22  C   UNL     1     -19.750 -10.908  -2.856  1.00  0.00    -0.008 C 
HETATM   23  C   UNL     1     -18.717 -11.579  -2.201  1.00  0.00     0.100 C 
HETATM   24  C   UNL     1     -19.432  -9.779  -3.645  1.00  0.00     0.004 C 
HETATM   25  N   UNL     1     -17.446 -11.131  -2.117  1.00  0.00    -0.374 N 
HETATM   26  C   UNL     1     -17.192  -9.965  -2.733  1.00  0.00     0.088 C 
ATOM     27  HN  UNL     1     -16.723 -11.647  -1.616  1.00  0.00     0.164 HD
HETATM   28  C   UNL     1     -18.109  -9.287  -3.526  1.00  0.00     0.031 C 
ENDBRANCH   4  18
TORSDOF 4
ENDMDL
