MODEL 1
REMARK VINA RESULT:      -6.6      0.000      0.000
REMARK  11 active torsions:
REMARK  status: ('A' for Active; 'I' for Inactive)
REMARK    1  A    between atoms: C_3  and  C_4 
REMARK    2  A    between atoms: C_3  and  C_21 
REMARK    3  A    between atoms: C_4  and  C_5 
REMARK    4  A    between atoms: C_4  and  N_14 
REMARK       I    between atoms: C_5  and  N_6 
REMARK    5  A    between atoms: N_6  and  C_22 
REMARK    6  A    between atoms: S_8  and  C_21 
REMARK    7  A    between atoms: C_9  and  C_22 
REMARK    8  A    between atoms: C_9  and  O_19 
REMARK    9  A    between atoms: C_15  and  C_22 
REMARK   10  A    between atoms: P_18  and  O_19 
REMARK   11  A    between atoms: P_18  and  O_23 
ROOT
HETATM    1  C           1     -34.127  -2.633 -11.883  0.00  0.00     0.249 C 
HETATM    2  N           1     -34.876  -1.824 -12.695  0.00  0.00    -0.343 N 
HETATM    3  H           1     -35.355  -2.214 -13.496  0.00  0.00     0.163 HD
HETATM    4  O           1     -33.555  -2.166 -10.927  0.00  0.00    -0.271 OA
ENDROOT
BRANCH   2   5
HETATM    5  C           1     -34.981  -0.406 -12.407  0.00  0.00     0.210 C 
BRANCH   5   6
HETATM    6  C           1     -34.928   0.381 -13.710  0.00  0.00     0.217 C 
BRANCH   6   7
HETATM    7  O           1     -35.072  -0.497 -14.793  0.00  0.00    -0.287 OA
BRANCH   7   8
HETATM    8  P           1     -36.321  -0.209 -15.776  0.00  0.00     0.406 P 
HETATM    9  O           1     -36.100  -0.895 -17.069  0.00  0.00    -0.624 OA
HETATM   10  O           1     -36.442   1.248 -16.006  0.00  0.00    -0.624 OA
BRANCH   8  11
HETATM   11  O           1     -37.678  -0.763 -15.099  0.00  0.00    -0.300 OA
HETATM   12  H           1     -37.426  -1.557 -14.660  0.00  0.00     0.223 HD
ENDBRANCH   8  11
ENDBRANCH   7   8
ENDBRANCH   6   7
ENDBRANCH   5   6
BRANCH   5  13
HETATM   13  C           1     -36.288  -0.133 -11.705  0.00  0.00     0.198 C 
HETATM   14  O           1     -37.364  -0.511 -12.218  0.00  0.00    -0.646 OA
HETATM   15  O           1     -36.296   0.472 -10.611  0.00  0.00    -0.646 OA
ENDBRANCH   5  13
ENDBRANCH   2   5
BRANCH   1  16
HETATM   16  C           1     -34.017  -4.108 -12.182  0.00  0.00     0.275 C 
BRANCH  16  17
HETATM   17  C           1     -34.691  -4.903 -11.073  0.00  0.00     0.053 C 
BRANCH  17  18
HETATM   18  C           1     -33.962  -6.227 -10.880  0.00  0.00     0.076 C 
BRANCH  18  19
HETATM   19  S           1     -34.929  -7.297  -9.779  0.00  0.00    -0.173 SA
HETATM   20  C           1     -33.862  -8.757  -9.931  0.00  0.00     0.089 C 
ENDBRANCH  18  19
ENDBRANCH  17  18
ENDBRANCH  16  17
BRANCH  16  21
HETATM   21  N           1     -32.569  -4.494 -12.266  0.00  0.00    -0.066 N 
HETATM   22  H           1     -32.493  -5.509 -12.502  0.00  0.00     0.275 HD
HETATM   23  H           1     -32.107  -4.315 -11.346  0.00  0.00     0.275 HD
HETATM   24  H           1     -32.101  -3.927 -13.009  0.00  0.00     0.275 HD
ENDBRANCH  16  21
ENDBRANCH   1  16
TORSDOF 11
ENDMDL
MODEL 2
REMARK VINA RESULT:      -5.9     10.027     11.877
REMARK  11 active torsions:
REMARK  status: ('A' for Active; 'I' for Inactive)
REMARK    1  A    between atoms: C_3  and  C_4 
REMARK    2  A    between atoms: C_3  and  C_21 
REMARK    3  A    between atoms: C_4  and  C_5 
REMARK    4  A    between atoms: C_4  and  N_14 
REMARK       I    between atoms: C_5  and  N_6 
REMARK    5  A    between atoms: N_6  and  C_22 
REMARK    6  A    between atoms: S_8  and  C_21 
REMARK    7  A    between atoms: C_9  and  C_22 
REMARK    8  A    between atoms: C_9  and  O_19 
REMARK    9  A    between atoms: C_15  and  C_22 
REMARK   10  A    between atoms: P_18  and  O_19 
REMARK   11  A    between atoms: P_18  and  O_23 
ROOT
HETATM    1  C           1     -28.653  -6.311 -18.832  0.00  0.00     0.249 C 
HETATM    2  N           1     -27.683  -7.228 -19.137  0.00  0.00    -0.343 N 
HETATM    3  H           1     -27.842  -8.211 -18.959  0.00  0.00     0.163 HD
HETATM    4  O           1     -28.464  -5.138 -19.045  0.00  0.00    -0.271 OA
ENDROOT
BRANCH   2   5
HETATM    5  C           1     -26.427  -6.788 -19.714  0.00  0.00     0.210 C 
BRANCH   5   6
HETATM    6  C           1     -25.353  -6.766 -18.634  0.00  0.00     0.217 C 
BRANCH   6   7
HETATM    7  O           1     -25.847  -6.112 -17.497  0.00  0.00    -0.287 OA
BRANCH   7   8
HETATM    8  P           1     -25.397  -6.731 -16.074  0.00  0.00     0.406 P 
HETATM    9  O           1     -26.550  -7.411 -15.444  0.00  0.00    -0.624 OA
HETATM   10  O           1     -24.924  -5.642 -15.190  0.00  0.00    -0.624 OA
BRANCH   8  11
HETATM   11  O           1     -24.204  -7.796 -16.304  0.00  0.00    -0.300 OA
HETATM   12  H           1     -23.494  -7.293 -16.662  0.00  0.00     0.223 HD
ENDBRANCH   8  11
ENDBRANCH   7   8
ENDBRANCH   6   7
ENDBRANCH   5   6
BRANCH   5  13
HETATM   13  C           1     -26.020  -7.740 -20.812  0.00  0.00     0.198 C 
HETATM   14  O           1     -24.827  -7.792 -21.182  0.00  0.00    -0.646 OA
HETATM   15  O           1     -26.874  -8.475 -21.351  0.00  0.00    -0.646 OA
ENDBRANCH   5  13
ENDBRANCH   2   5
BRANCH   1  16
HETATM   16  C           1     -29.961  -6.768 -18.232  0.00  0.00     0.275 C 
BRANCH  16  17
HETATM   17  C           1     -29.857  -6.747 -16.713  0.00  0.00     0.053 C 
BRANCH  17  18
HETATM   18  C           1     -30.448  -5.449 -16.180  0.00  0.00     0.076 C 
BRANCH  18  19
HETATM   19  S           1     -32.076  -5.170 -16.931  0.00  0.00    -0.173 SA
HETATM   20  C           1     -31.708  -3.525 -17.603  0.00  0.00     0.089 C 
ENDBRANCH  18  19
ENDBRANCH  17  18
ENDBRANCH  16  17
BRANCH  16  21
HETATM   21  N           1     -30.262  -8.163 -18.694  0.00  0.00    -0.066 N 
HETATM   22  H           1     -30.138  -8.828 -17.897  0.00  0.00     0.275 HD
HETATM   23  H           1     -29.611  -8.422 -19.468  0.00  0.00     0.275 HD
HETATM   24  H           1     -31.249  -8.210 -19.036  0.00  0.00     0.275 HD
ENDBRANCH  16  21
ENDBRANCH   1  16
TORSDOF 11
ENDMDL
MODEL 3
REMARK VINA RESULT:      -5.8      9.074     10.296
REMARK  11 active torsions:
REMARK  status: ('A' for Active; 'I' for Inactive)
REMARK    1  A    between atoms: C_3  and  C_4 
REMARK    2  A    between atoms: C_3  and  C_21 
REMARK    3  A    between atoms: C_4  and  C_5 
REMARK    4  A    between atoms: C_4  and  N_14 
REMARK       I    between atoms: C_5  and  N_6 
REMARK    5  A    between atoms: N_6  and  C_22 
REMARK    6  A    between atoms: S_8  and  C_21 
REMARK    7  A    between atoms: C_9  and  C_22 
REMARK    8  A    between atoms: C_9  and  O_19 
REMARK    9  A    between atoms: C_15  and  C_22 
REMARK   10  A    between atoms: P_18  and  O_19 
REMARK   11  A    between atoms: P_18  and  O_23 
ROOT
HETATM    1  C           1     -27.311  -6.405 -17.099  0.00  0.00     0.249 C 
HETATM    2  N           1     -28.238  -6.786 -18.032  0.00  0.00    -0.343 N 
HETATM    3  H           1     -27.942  -7.039 -18.966  0.00  0.00     0.163 HD
HETATM    4  O           1     -27.665  -6.103 -15.984  0.00  0.00    -0.271 OA
ENDROOT
BRANCH   2   5
HETATM    5  C           1     -29.645  -6.827 -17.681  0.00  0.00     0.210 C 
BRANCH   5   6
HETATM    6  C           1     -30.253  -5.443 -17.864  0.00  0.00     0.217 C 
BRANCH   6   7
HETATM    7  O           1     -30.758  -4.988 -16.638  0.00  0.00    -0.287 OA
BRANCH   7   8
HETATM    8  P           1     -32.325  -4.594 -16.621  0.00  0.00     0.406 P 
HETATM    9  O           1     -32.557  -3.452 -17.534  0.00  0.00    -0.624 OA
HETATM   10  O           1     -32.723  -4.215 -15.247  0.00  0.00    -0.624 OA
BRANCH   8  11
HETATM   11  O           1     -33.203  -5.859 -17.108  0.00  0.00    -0.300 OA
HETATM   12  H           1     -32.994  -6.549 -16.503  0.00  0.00     0.223 HD
ENDBRANCH   8  11
ENDBRANCH   7   8
ENDBRANCH   6   7
ENDBRANCH   5   6
BRANCH   5  13
HETATM   13  C           1     -30.356  -7.813 -18.574  0.00  0.00     0.198 C 
HETATM   14  O           1     -31.594  -7.737 -18.727  0.00  0.00    -0.646 OA
HETATM   15  O           1     -29.707  -8.706 -19.162  0.00  0.00    -0.646 OA
ENDBRANCH   5  13
ENDBRANCH   2   5
BRANCH   1  16
HETATM   16  C           1     -25.847  -6.363 -17.463  0.00  0.00     0.275 C 
BRANCH  16  17
HETATM   17  C           1     -25.680  -6.706 -18.937  0.00  0.00     0.053 C 
BRANCH  17  18
HETATM   18  C           1     -24.232  -7.095 -19.207  0.00  0.00     0.076 C 
BRANCH  18  19
HETATM   19  S           1     -24.127  -7.976 -20.790  0.00  0.00    -0.173 SA
HETATM   20  C           1     -25.913  -8.026 -21.110  0.00  0.00     0.089 C 
ENDBRANCH  18  19
ENDBRANCH  17  18
ENDBRANCH  16  17
BRANCH  16  21
HETATM   21  N           1     -25.096  -7.358 -16.629  0.00  0.00    -0.066 N 
HETATM   22  H           1     -25.472  -7.350 -15.654  0.00  0.00     0.275 HD
HETATM   23  H           1     -24.083  -7.106 -16.613  0.00  0.00     0.275 HD
HETATM   24  H           1     -25.212  -8.313 -17.039  0.00  0.00     0.275 HD
ENDBRANCH  16  21
ENDBRANCH   1  16
TORSDOF 11
ENDMDL
MODEL 4
REMARK VINA RESULT:      -5.7     11.855     13.026
REMARK  11 active torsions:
REMARK  status: ('A' for Active; 'I' for Inactive)
REMARK    1  A    between atoms: C_3  and  C_4 
REMARK    2  A    between atoms: C_3  and  C_21 
REMARK    3  A    between atoms: C_4  and  C_5 
REMARK    4  A    between atoms: C_4  and  N_14 
REMARK       I    between atoms: C_5  and  N_6 
REMARK    5  A    between atoms: N_6  and  C_22 
REMARK    6  A    between atoms: S_8  and  C_21 
REMARK    7  A    between atoms: C_9  and  C_22 
REMARK    8  A    between atoms: C_9  and  O_19 
REMARK    9  A    between atoms: C_15  and  C_22 
REMARK   10  A    between atoms: P_18  and  O_19 
REMARK   11  A    between atoms: P_18  and  O_23 
ROOT
HETATM    1  C           1     -25.150  -7.068 -19.533  0.00  0.00     0.249 C 
HETATM    2  N           1     -26.258  -7.156 -18.734  0.00  0.00    -0.343 N 
HETATM    3  H           1     -26.996  -7.810 -18.961  0.00  0.00     0.163 HD
HETATM    4  O           1     -24.270  -6.287 -19.261  0.00  0.00    -0.271 OA
ENDROOT
BRANCH   2   5
HETATM    5  C           1     -26.376  -6.309 -17.562  0.00  0.00     0.210 C 
BRANCH   5   6
HETATM    6  C           1     -27.839  -5.952 -17.339  0.00  0.00     0.217 C 
BRANCH   6   7
HETATM    7  O           1     -28.616  -6.495 -18.372  0.00  0.00    -0.287 OA
BRANCH   7   8
HETATM    8  P           1     -29.770  -7.531 -17.920  0.00  0.00     0.406 P 
HETATM    9  O           1     -30.228  -8.305 -19.096  0.00  0.00    -0.624 OA
HETATM   10  O           1     -30.911  -6.780 -17.350  0.00  0.00    -0.624 OA
BRANCH   8  11
HETATM   11  O           1     -29.180  -8.543 -16.808  0.00  0.00    -0.300 OA
HETATM   12  H           1     -28.288  -8.696 -17.066  0.00  0.00     0.223 HD
ENDBRANCH   8  11
ENDBRANCH   7   8
ENDBRANCH   6   7
ENDBRANCH   5   6
BRANCH   5  13
HETATM   13  C           1     -25.846  -7.045 -16.356  0.00  0.00     0.198 C 
HETATM   14  O           1     -24.621  -7.271 -16.251  0.00  0.00    -0.646 OA
HETATM   15  O           1     -26.632  -7.429 -15.463  0.00  0.00    -0.646 OA
ENDBRANCH   5  13
ENDBRANCH   2   5
BRANCH   1  16
HETATM   16  C           1     -25.027  -7.949 -20.752  0.00  0.00     0.275 C 
BRANCH  16  17
HETATM   17  C           1     -24.402  -7.156 -21.891  0.00  0.00     0.053 C 
BRANCH  17  18
HETATM   18  C           1     -23.475  -8.060 -22.693  0.00  0.00     0.076 C 
BRANCH  18  19
HETATM   19  S           1     -22.199  -8.742 -21.598  0.00  0.00    -0.173 SA
HETATM   20  C           1     -21.253  -9.588 -22.896  0.00  0.00     0.089 C 
ENDBRANCH  18  19
ENDBRANCH  17  18
ENDBRANCH  16  17
BRANCH  16  21
HETATM   21  N           1     -26.389  -8.426 -21.163  0.00  0.00    -0.066 N 
HETATM   22  H           1     -26.886  -7.661 -21.674  0.00  0.00     0.275 HD
HETATM   23  H           1     -26.937  -8.690 -20.314  0.00  0.00     0.275 HD
HETATM   24  H           1     -26.292  -9.257 -21.789  0.00  0.00     0.275 HD
ENDBRANCH  16  21
ENDBRANCH   1  16
TORSDOF 11
ENDMDL
MODEL 5
REMARK VINA RESULT:      -5.4     12.945     15.447
REMARK  11 active torsions:
REMARK  status: ('A' for Active; 'I' for Inactive)
REMARK    1  A    between atoms: C_3  and  C_4 
REMARK    2  A    between atoms: C_3  and  C_21 
REMARK    3  A    between atoms: C_4  and  C_5 
REMARK    4  A    between atoms: C_4  and  N_14 
REMARK       I    between atoms: C_5  and  N_6 
REMARK    5  A    between atoms: N_6  and  C_22 
REMARK    6  A    between atoms: S_8  and  C_21 
REMARK    7  A    between atoms: C_9  and  C_22 
REMARK    8  A    between atoms: C_9  and  O_19 
REMARK    9  A    between atoms: C_15  and  C_22 
REMARK   10  A    between atoms: P_18  and  O_19 
REMARK   11  A    between atoms: P_18  and  O_23 
ROOT
HETATM    1  C           1     -23.088  -4.323  -8.961  0.00  0.00     0.249 C 
HETATM    2  N           1     -22.189  -5.283  -8.580  0.00  0.00    -0.343 N 
HETATM    3  H           1     -22.293  -6.234  -8.911  0.00  0.00     0.163 HD
HETATM    4  O           1     -22.963  -3.188  -8.566  0.00  0.00    -0.271 OA
ENDROOT
BRANCH   2   5
HETATM    5  C           1     -21.088  -4.937  -7.702  0.00  0.00     0.210 C 
BRANCH   5   6
HETATM    6  C           1     -20.758  -6.126  -6.809  0.00  0.00     0.217 C 
BRANCH   6   7
HETATM    7  O           1     -20.833  -5.735  -5.464  0.00  0.00    -0.287 OA
BRANCH   7   8
HETATM    8  P           1     -21.972  -6.462  -4.579  0.00  0.00     0.406 P 
HETATM    9  O           1     -23.309  -6.099  -5.100  0.00  0.00    -0.624 OA
HETATM   10  O           1     -21.856  -6.023  -3.170  0.00  0.00    -0.624 OA
BRANCH   8  11
HETATM   11  O           1     -21.778  -8.063  -4.663  0.00  0.00    -0.300 OA
HETATM   12  H           1     -20.973  -8.236  -4.206  0.00  0.00     0.223 HD
ENDBRANCH   8  11
ENDBRANCH   7   8
ENDBRANCH   6   7
ENDBRANCH   5   6
BRANCH   5  13
HETATM   13  C           1     -19.879  -4.578  -8.531  0.00  0.00     0.198 C 
HETATM   14  O           1     -19.898  -4.749  -9.769  0.00  0.00    -0.646 OA
HETATM   15  O           1     -18.859  -4.111  -7.980  0.00  0.00    -0.646 OA
ENDBRANCH   5  13
ENDBRANCH   2   5
BRANCH   1  16
HETATM   16  C           1     -24.234  -4.682  -9.874  0.00  0.00     0.275 C 
BRANCH  16  17
HETATM   17  C           1     -23.736  -4.754 -11.311  0.00  0.00     0.053 C 
BRANCH  17  18
HETATM   18  C           1     -24.178  -3.506 -12.065  0.00  0.00     0.076 C 
BRANCH  18  19
HETATM   19  S           1     -22.716  -2.581 -12.614  0.00  0.00    -0.173 SA
HETATM   20  C           1     -23.060  -2.701 -14.392  0.00  0.00     0.089 C 
ENDBRANCH  18  19
ENDBRANCH  17  18
ENDBRANCH  16  17
BRANCH  16  21
HETATM   21  N           1     -25.305  -3.636  -9.767  0.00  0.00    -0.066 N 
HETATM   22  H           1     -24.863  -2.690  -9.727  0.00  0.00     0.275 HD
HETATM   23  H           1     -25.864  -3.797  -8.900  0.00  0.00     0.275 HD
HETATM   24  H           1     -25.931  -3.693 -10.603  0.00  0.00     0.275 HD
ENDBRANCH  16  21
ENDBRANCH   1  16
TORSDOF 11
ENDMDL
MODEL 6
REMARK VINA RESULT:      -5.4     13.231     15.176
REMARK  11 active torsions:
REMARK  status: ('A' for Active; 'I' for Inactive)
REMARK    1  A    between atoms: C_3  and  C_4 
REMARK    2  A    between atoms: C_3  and  C_21 
REMARK    3  A    between atoms: C_4  and  C_5 
REMARK    4  A    between atoms: C_4  and  N_14 
REMARK       I    between atoms: C_5  and  N_6 
REMARK    5  A    between atoms: N_6  and  C_22 
REMARK    6  A    between atoms: S_8  and  C_21 
REMARK    7  A    between atoms: C_9  and  C_22 
REMARK    8  A    between atoms: C_9  and  O_19 
REMARK    9  A    between atoms: C_15  and  C_22 
REMARK   10  A    between atoms: P_18  and  O_19 
REMARK   11  A    between atoms: P_18  and  O_23 
ROOT
HETATM    1  C           1     -21.226  -6.273  -5.999  0.00  0.00     0.249 C 
HETATM    2  N           1     -21.408  -5.055  -6.597  0.00  0.00    -0.343 N 
HETATM    3  H           1     -21.433  -4.214  -6.036  0.00  0.00     0.163 HD
HETATM    4  O           1     -21.197  -7.277  -6.670  0.00  0.00    -0.271 OA
ENDROOT
BRANCH   2   5
HETATM    5  C           1     -21.568  -4.972  -8.037  0.00  0.00     0.210 C 
BRANCH   5   6
HETATM    6  C           1     -22.656  -3.960  -8.369  0.00  0.00     0.217 C 
BRANCH   6   7
HETATM    7  O           1     -23.612  -4.559  -9.202  0.00  0.00    -0.287 OA
BRANCH   7   8
HETATM    8  P           1     -23.699  -3.982 -10.708  0.00  0.00     0.406 P 
HETATM    9  O           1     -24.941  -3.191 -10.863  0.00  0.00    -0.624 OA
HETATM   10  O           1     -23.708  -5.107 -11.668  0.00  0.00    -0.624 OA
BRANCH   8  11
HETATM   11  O           1     -22.421  -3.037 -10.996  0.00  0.00    -0.300 OA
HETATM   12  H           1     -22.768  -2.163 -11.034  0.00  0.00     0.223 HD
ENDBRANCH   8  11
ENDBRANCH   7   8
ENDBRANCH   6   7
ENDBRANCH   5   6
BRANCH   5  13
HETATM   13  C           1     -20.265  -4.534  -8.661  0.00  0.00     0.198 C 
HETATM   14  O           1     -20.114  -4.598  -9.900  0.00  0.00    -0.646 OA
HETATM   15  O           1     -19.338  -4.108  -7.939  0.00  0.00    -0.646 OA
ENDBRANCH   5  13
ENDBRANCH   2   5
BRANCH   1  16
HETATM   16  C           1     -21.061  -6.361  -4.502  0.00  0.00     0.275 C 
BRANCH  16  17
HETATM   17  C           1     -20.567  -7.751  -4.125  0.00  0.00     0.053 C 
BRANCH  17  18
HETATM   18  C           1     -20.777  -7.979  -2.634  0.00  0.00     0.076 C 
BRANCH  18  19
HETATM   19  S           1     -21.264  -9.704  -2.348  0.00  0.00    -0.173 SA
HETATM   20  C           1     -22.279  -9.383  -0.877  0.00  0.00     0.089 C 
ENDBRANCH  18  19
ENDBRANCH  17  18
ENDBRANCH  16  17
BRANCH  16  21
HETATM   21  N           1     -22.381  -6.102  -3.837  0.00  0.00    -0.066 N 
HETATM   22  H           1     -22.602  -6.889  -3.185  0.00  0.00     0.275 HD
HETATM   23  H           1     -23.129  -6.031  -4.563  0.00  0.00     0.275 HD
HETATM   24  H           1     -22.330  -5.207  -3.300  0.00  0.00     0.275 HD
ENDBRANCH  16  21
ENDBRANCH   1  16
TORSDOF 11
ENDMDL
MODEL 7
REMARK VINA RESULT:      -5.3     10.232     11.362
REMARK  11 active torsions:
REMARK  status: ('A' for Active; 'I' for Inactive)
REMARK    1  A    between atoms: C_3  and  C_4 
REMARK    2  A    between atoms: C_3  and  C_21 
REMARK    3  A    between atoms: C_4  and  C_5 
REMARK    4  A    between atoms: C_4  and  N_14 
REMARK       I    between atoms: C_5  and  N_6 
REMARK    5  A    between atoms: N_6  and  C_22 
REMARK    6  A    between atoms: S_8  and  C_21 
REMARK    7  A    between atoms: C_9  and  C_22 
REMARK    8  A    between atoms: C_9  and  O_19 
REMARK    9  A    between atoms: C_15  and  C_22 
REMARK   10  A    between atoms: P_18  and  O_19 
REMARK   11  A    between atoms: P_18  and  O_23 
ROOT
HETATM    1  C           1     -26.370  -6.363 -18.346  0.00  0.00     0.249 C 
HETATM    2  N           1     -27.589  -6.770 -18.817  0.00  0.00    -0.343 N 
HETATM    3  H           1     -27.667  -7.165 -19.746  0.00  0.00     0.163 HD
HETATM    4  O           1     -26.277  -5.892 -17.238  0.00  0.00    -0.271 OA
ENDROOT
BRANCH   2   5
HETATM    5  C           1     -28.769  -6.635 -17.985  0.00  0.00     0.210 C 
BRANCH   5   6
HETATM    6  C           1     -29.661  -5.536 -18.545  0.00  0.00     0.217 C 
BRANCH   6   7
HETATM    7  O           1     -30.964  -5.693 -18.050  0.00  0.00    -0.287 OA
BRANCH   7   8
HETATM    8  P           1     -31.429  -4.624 -16.932  0.00  0.00     0.406 P 
HETATM    9  O           1     -30.674  -4.857 -15.681  0.00  0.00    -0.624 OA
HETATM   10  O           1     -32.877  -4.782 -16.671  0.00  0.00    -0.624 OA
BRANCH   8  11
HETATM   11  O           1     -31.137  -3.127 -17.466  0.00  0.00    -0.300 OA
HETATM   12  H           1     -31.706  -2.573 -16.960  0.00  0.00     0.223 HD
ENDBRANCH   8  11
ENDBRANCH   7   8
ENDBRANCH   6   7
ENDBRANCH   5   6
BRANCH   5  13
HETATM   13  C           1     -29.525  -7.941 -17.972  0.00  0.00     0.198 C 
HETATM   14  O           1     -29.953  -8.425 -19.042  0.00  0.00    -0.646 OA
HETATM   15  O           1     -29.725  -8.538 -16.892  0.00  0.00    -0.646 OA
ENDBRANCH   5  13
ENDBRANCH   2   5
BRANCH   1  16
HETATM   16  C           1     -25.141  -6.503 -19.211  0.00  0.00     0.275 C 
BRANCH  16  17
HETATM   17  C           1     -25.541  -7.034 -20.580  0.00  0.00     0.053 C 
BRANCH  17  18
HETATM   18  C           1     -24.615  -8.177 -20.973  0.00  0.00     0.076 C 
BRANCH  18  19
HETATM   19  S           1     -23.820  -7.795 -22.559  0.00  0.00    -0.173 SA
HETATM   20  C           1     -22.288  -8.716 -22.242  0.00  0.00     0.089 C 
ENDBRANCH  18  19
ENDBRANCH  17  18
ENDBRANCH  16  17
BRANCH  16  21
HETATM   21  N           1     -24.181  -7.458 -18.565  0.00  0.00    -0.066 N 
HETATM   22  H           1     -24.412  -7.550 -17.550  0.00  0.00     0.275 HD
HETATM   23  H           1     -23.207  -7.097 -18.669  0.00  0.00     0.275 HD
HETATM   24  H           1     -24.259  -8.393 -19.026  0.00  0.00     0.275 HD
ENDBRANCH  16  21
ENDBRANCH   1  16
TORSDOF 11
ENDMDL
MODEL 8
REMARK VINA RESULT:      -5.0     14.837     17.438
REMARK  11 active torsions:
REMARK  status: ('A' for Active; 'I' for Inactive)
REMARK    1  A    between atoms: C_3  and  C_4 
REMARK    2  A    between atoms: C_3  and  C_21 
REMARK    3  A    between atoms: C_4  and  C_5 
REMARK    4  A    between atoms: C_4  and  N_14 
REMARK       I    between atoms: C_5  and  N_6 
REMARK    5  A    between atoms: N_6  and  C_22 
REMARK    6  A    between atoms: S_8  and  C_21 
REMARK    7  A    between atoms: C_9  and  C_22 
REMARK    8  A    between atoms: C_9  and  O_19 
REMARK    9  A    between atoms: C_15  and  C_22 
REMARK   10  A    between atoms: P_18  and  O_19 
REMARK   11  A    between atoms: P_18  and  O_23 
ROOT
HETATM    1  C           1     -21.724  -5.325  -6.090  0.00  0.00     0.249 C 
HETATM    2  N           1     -21.096  -6.245  -5.294  0.00  0.00    -0.343 N 
HETATM    3  H           1     -20.086  -6.304  -5.287  0.00  0.00     0.163 HD
HETATM    4  O           1     -22.929  -5.255  -6.097  0.00  0.00    -0.271 OA
ENDROOT
BRANCH   2   5
HETATM    5  C           1     -21.880  -7.137  -4.461  0.00  0.00     0.210 C 
BRANCH   5   6
HETATM    6  C           1     -21.454  -8.576  -4.718  0.00  0.00     0.217 C 
BRANCH   6   7
HETATM    7  O           1     -20.370  -8.591  -5.607  0.00  0.00    -0.287 OA
BRANCH   7   8
HETATM    8  P           1     -19.112  -9.507  -5.172  0.00  0.00     0.406 P 
HETATM    9  O           1     -18.038  -9.382  -6.182  0.00  0.00    -0.624 OA
HETATM   10  O           1     -19.540 -10.921  -5.080  0.00  0.00    -0.624 OA
BRANCH   8  11
HETATM   11  O           1     -18.560  -9.016  -3.736  0.00  0.00    -0.300 OA
HETATM   12  H           1     -18.746  -8.094  -3.705  0.00  0.00     0.223 HD
ENDBRANCH   8  11
ENDBRANCH   7   8
ENDBRANCH   6   7
ENDBRANCH   5   6
BRANCH   5  13
HETATM   13  C           1     -21.653  -6.795  -3.009  0.00  0.00     0.198 C 
HETATM   14  O           1     -22.360  -5.926  -2.454  0.00  0.00    -0.646 OA
HETATM   15  O           1     -20.759  -7.381  -2.361  0.00  0.00    -0.646 OA
ENDBRANCH   5  13
ENDBRANCH   2   5
BRANCH   1  16
HETATM   16  C           1     -20.909  -4.396  -6.957  0.00  0.00     0.275 C 
BRANCH  16  17
HETATM   17  C           1     -21.797  -3.806  -8.044  0.00  0.00     0.053 C 
BRANCH  17  18
HETATM   18  C           1     -21.408  -4.394  -9.394  0.00  0.00     0.076 C 
BRANCH  18  19
HETATM   19  S           1     -22.864  -4.443 -10.476  0.00  0.00    -0.173 SA
HETATM   20  C           1     -24.028  -3.735  -9.276  0.00  0.00     0.089 C 
ENDBRANCH  18  19
ENDBRANCH  17  18
ENDBRANCH  16  17
BRANCH  16  21
HETATM   21  N           1     -19.786  -5.163  -7.591  0.00  0.00    -0.066 N 
HETATM   22  H           1     -19.570  -4.753  -8.528  0.00  0.00     0.275 HD
HETATM   23  H           1     -20.066  -6.163  -7.704  0.00  0.00     0.275 HD
HETATM   24  H           1     -18.938  -5.105  -6.982  0.00  0.00     0.275 HD
ENDBRANCH  16  21
ENDBRANCH   1  16
TORSDOF 11
ENDMDL
MODEL 9
REMARK VINA RESULT:      -5.0     10.880     12.158
REMARK  11 active torsions:
REMARK  status: ('A' for Active; 'I' for Inactive)
REMARK    1  A    between atoms: C_3  and  C_4 
REMARK    2  A    between atoms: C_3  and  C_21 
REMARK    3  A    between atoms: C_4  and  C_5 
REMARK    4  A    between atoms: C_4  and  N_14 
REMARK       I    between atoms: C_5  and  N_6 
REMARK    5  A    between atoms: N_6  and  C_22 
REMARK    6  A    between atoms: S_8  and  C_21 
REMARK    7  A    between atoms: C_9  and  C_22 
REMARK    8  A    between atoms: C_9  and  O_19 
REMARK    9  A    between atoms: C_15  and  C_22 
REMARK   10  A    between atoms: P_18  and  O_19 
REMARK   11  A    between atoms: P_18  and  O_23 
ROOT
HETATM    1  C           1     -26.718  -6.331 -19.597  0.00  0.00     0.249 C 
HETATM    2  N           1     -26.174  -6.700 -18.397  0.00  0.00    -0.343 N 
HETATM    3  H           1     -25.356  -7.296 -18.372  0.00  0.00     0.163 HD
HETATM    4  O           1     -27.693  -5.620 -19.626  0.00  0.00    -0.271 OA
ENDROOT
BRANCH   2   5
HETATM    5  C           1     -26.769  -6.236 -17.158  0.00  0.00     0.210 C 
BRANCH   5   6
HETATM    6  C           1     -28.057  -7.005 -16.895  0.00  0.00     0.217 C 
BRANCH   6   7
HETATM    7  O           1     -28.967  -6.177 -16.223  0.00  0.00    -0.287 OA
BRANCH   7   8
HETATM    8  P           1     -30.337  -5.845 -17.011  0.00  0.00     0.406 P 
HETATM    9  O           1     -31.225  -5.039 -16.143  0.00  0.00    -0.624 OA
HETATM   10  O           1     -31.017  -7.109 -17.373  0.00  0.00    -0.624 OA
BRANCH   8  11
HETATM   11  O           1     -29.998  -5.012 -18.353  0.00  0.00    -0.300 OA
HETATM   12  H           1     -29.276  -5.469 -18.748  0.00  0.00     0.223 HD
ENDBRANCH   8  11
ENDBRANCH   7   8
ENDBRANCH   6   7
ENDBRANCH   5   6
BRANCH   5  13
HETATM   13  C           1     -25.805  -6.464 -16.021  0.00  0.00     0.198 C 
HETATM   14  O           1     -25.775  -7.570 -15.439  0.00  0.00    -0.646 OA
HETATM   15  O           1     -25.035  -5.547 -15.660  0.00  0.00    -0.646 OA
ENDBRANCH   5  13
ENDBRANCH   2   5
BRANCH   1  16
HETATM   16  C           1     -26.098  -6.814 -20.886  0.00  0.00     0.275 C 
BRANCH  16  17
HETATM   17  C           1     -25.256  -8.053 -20.613  0.00  0.00     0.053 C 
BRANCH  17  18
HETATM   18  C           1     -23.784  -7.722 -20.818  0.00  0.00     0.076 C 
BRANCH  18  19
HETATM   19  S           1     -23.230  -8.386 -22.414  0.00  0.00    -0.173 SA
HETATM   20  C           1     -21.675  -9.097 -21.805  0.00  0.00     0.089 C 
ENDBRANCH  18  19
ENDBRANCH  17  18
ENDBRANCH  16  17
BRANCH  16  21
HETATM   21  N           1     -25.228  -5.734 -21.458  0.00  0.00    -0.066 N 
HETATM   22  H           1     -25.145  -5.864 -22.492  0.00  0.00     0.275 HD
HETATM   23  H           1     -24.280  -5.784 -21.023  0.00  0.00     0.275 HD
HETATM   24  H           1     -25.656  -4.801 -21.257  0.00  0.00     0.275 HD
ENDBRANCH  16  21
ENDBRANCH   1  16
TORSDOF 11
ENDMDL
