MODEL 1
REMARK VINA RESULT:      -6.1      0.000      0.000
REMARK  12 active torsions:
REMARK  status: ('A' for Active; 'I' for Inactive)
REMARK    1  A    between atoms: C_1  and  C_2 
REMARK    2  A    between atoms: C_1  and  C_20 
REMARK    3  A    between atoms: C_1  and  N_17 
REMARK    4  A    between atoms: C_2  and  C_3 
REMARK    5  A    between atoms: C_3  and  C_4 
REMARK    6  A    between atoms: C_4  and  C_5 
REMARK    7  A    between atoms: C_5  and  N_21 
REMARK    8  A    between atoms: N_10  and  C_15 
REMARK    9  A    between atoms: Se_12  and  C_13 
REMARK   10  A    between atoms: C_13  and  C_14 
REMARK   11  A    between atoms: C_14  and  C_15 
REMARK   12  A    between atoms: C_15  and  C_16 
REMARK       I    between atoms: C_16  and  N_17 
ROOT
HETATM    1  O           1     -33.645  -1.940 -10.916  0.00  0.00    -0.271 OA
HETATM    2  C           1     -34.423  -2.555 -11.606  0.00  0.00     0.249 C 
HETATM    3  N           1     -35.518  -1.924 -12.132  0.00  0.00    -0.345 N 
HETATM    4  H           1     -36.170  -2.439 -12.710  0.00  0.00     0.163 HD
ENDROOT
BRANCH   3   5
HETATM    5  C           1     -35.744  -0.518 -11.860  0.00  0.00     0.185 C 
BRANCH   5   6
HETATM    6  C           1     -36.219   0.175 -13.131  0.00  0.00     0.036 C 
BRANCH   6   7
HETATM    7  C           1     -35.027   0.801 -13.843  0.00  0.00     0.004 C 
BRANCH   7   8
HETATM    8  C           1     -35.293   0.838 -15.342  0.00  0.00     0.027 C 
BRANCH   8   9
HETATM    9  C           1     -36.537   0.018 -15.659  0.00  0.00     0.229 C 
BRANCH   9  10
HETATM   10  N           1     -36.415  -0.563 -17.036  0.00  0.00    -0.079 N 
HETATM   11  H           1     -35.907   0.109 -17.654  0.00  0.00     0.274 HD
HETATM   12  H           1     -37.369  -0.742 -17.424  0.00  0.00     0.274 HD
HETATM   13  H           1     -35.885  -1.463 -16.989  0.00  0.00     0.274 HD
ENDBRANCH   9  10
ENDBRANCH   8   9
ENDBRANCH   7   8
ENDBRANCH   6   7
ENDBRANCH   5   6
BRANCH   5  14
HETATM   14  C           1     -36.796  -0.376 -10.786  0.00  0.00     0.196 C 
HETATM   15  O           1     -36.494   0.114  -9.677  0.00  0.00    -0.646 OA
HETATM   16  O           1     -37.969  -0.745 -11.007  0.00  0.00    -0.646 OA
ENDBRANCH   5  14
ENDBRANCH   3   5
BRANCH   2  17
HETATM   17  C           1     -34.187  -4.018 -11.889  0.00  0.00     0.274 C 
BRANCH  17  18
HETATM   18  N           1     -32.976  -4.169 -12.760  0.00  0.00    -0.067 N 
HETATM   19  H           1     -32.229  -4.675 -12.234  0.00  0.00     0.275 HD
HETATM   20  H           1     -33.229  -4.715 -13.616  0.00  0.00     0.275 HD
HETATM   21  H           1     -32.627  -3.225 -13.039  0.00  0.00     0.275 HD
ENDBRANCH  17  18
BRANCH  17  22
HETATM   22  C           1     -33.965  -4.761 -10.577  0.00  0.00     0.042 C 
BRANCH  22  23
HETATM   23  C           1     -33.729  -6.238 -10.864  0.00  0.00     0.003 C 
BRANCH  23  24
HETATM   24 Se           1     -34.950  -7.312  -9.789  0.00  0.00     0.000 Se
HETATM   25  C           1     -33.833  -8.910  -9.823  0.00  0.00     0.000 C 
ENDBRANCH  23  24
ENDBRANCH  22  23
ENDBRANCH  17  22
ENDBRANCH   2  17
TORSDOF 12
ENDMDL
MODEL 2
REMARK VINA RESULT:      -5.8      2.294      3.789
REMARK  12 active torsions:
REMARK  status: ('A' for Active; 'I' for Inactive)
REMARK    1  A    between atoms: C_1  and  C_2 
REMARK    2  A    between atoms: C_1  and  C_20 
REMARK    3  A    between atoms: C_1  and  N_17 
REMARK    4  A    between atoms: C_2  and  C_3 
REMARK    5  A    between atoms: C_3  and  C_4 
REMARK    6  A    between atoms: C_4  and  C_5 
REMARK    7  A    between atoms: C_5  and  N_21 
REMARK    8  A    between atoms: N_10  and  C_15 
REMARK    9  A    between atoms: Se_12  and  C_13 
REMARK   10  A    between atoms: C_13  and  C_14 
REMARK   11  A    between atoms: C_14  and  C_15 
REMARK   12  A    between atoms: C_15  and  C_16 
REMARK       I    between atoms: C_16  and  N_17 
ROOT
HETATM    1  O           1     -34.638  -3.140 -14.193  0.00  0.00    -0.271 OA
HETATM    2  C           1     -34.511  -2.902 -13.016  0.00  0.00     0.249 C 
HETATM    3  N           1     -35.096  -1.789 -12.475  0.00  0.00    -0.345 N 
HETATM    4  H           1     -34.989  -1.590 -11.489  0.00  0.00     0.163 HD
ENDROOT
BRANCH   3   5
HETATM    5  C           1     -35.868  -0.895 -13.316  0.00  0.00     0.185 C 
BRANCH   5   6
HETATM    6  C           1     -36.979  -0.257 -12.493  0.00  0.00     0.036 C 
BRANCH   6   7
HETATM    7  C           1     -36.859  -0.707 -11.042  0.00  0.00     0.004 C 
BRANCH   7   8
HETATM    8  C           1     -37.612   0.266 -10.145  0.00  0.00     0.027 C 
BRANCH   8   9
HETATM    9  C           1     -37.087   0.153  -8.719  0.00  0.00     0.229 C 
BRANCH   9  10
HETATM   10  N           1     -36.320   1.393  -8.368  0.00  0.00    -0.079 N 
HETATM   11  H           1     -35.465   1.454  -8.966  0.00  0.00     0.274 HD
HETATM   12  H           1     -36.040   1.356  -7.361  0.00  0.00     0.274 HD
HETATM   13  H           1     -36.920   2.233  -8.531  0.00  0.00     0.274 HD
ENDBRANCH   9  10
ENDBRANCH   8   9
ENDBRANCH   7   8
ENDBRANCH   6   7
ENDBRANCH   5   6
BRANCH   5  14
HETATM   14  C           1     -34.966   0.183 -13.865  0.00  0.00     0.196 C 
HETATM   15  O           1     -34.599   1.126 -13.131  0.00  0.00    -0.646 OA
HETATM   16  O           1     -34.583   0.133 -15.054  0.00  0.00    -0.646 OA
ENDBRANCH   5  14
ENDBRANCH   3   5
BRANCH   2  17
HETATM   17  C           1     -33.707  -3.832 -12.140  0.00  0.00     0.274 C 
BRANCH  17  18
HETATM   18  N           1     -33.373  -3.141 -10.852  0.00  0.00    -0.067 N 
HETATM   19  H           1     -32.668  -3.705 -10.326  0.00  0.00     0.275 HD
HETATM   20  H           1     -32.978  -2.195 -11.057  0.00  0.00     0.275 HD
HETATM   21  H           1     -34.238  -3.040 -10.275  0.00  0.00     0.275 HD
ENDBRANCH  17  18
BRANCH  17  22
HETATM   22  C           1     -34.522  -5.085 -11.846  0.00  0.00     0.042 C 
BRANCH  22  23
HETATM   23  C           1     -33.724  -6.007 -10.933  0.00  0.00     0.003 C 
BRANCH  23  24
HETATM   24 Se           1     -34.948  -7.079  -9.859  0.00  0.00     0.000 Se
HETATM   25  C           1     -33.877  -8.703  -9.963  0.00  0.00     0.000 C 
ENDBRANCH  23  24
ENDBRANCH  22  23
ENDBRANCH  17  22
ENDBRANCH   2  17
TORSDOF 12
ENDMDL
MODEL 3
REMARK VINA RESULT:      -5.7     12.235     13.822
REMARK  12 active torsions:
REMARK  status: ('A' for Active; 'I' for Inactive)
REMARK    1  A    between atoms: C_1  and  C_2 
REMARK    2  A    between atoms: C_1  and  C_20 
REMARK    3  A    between atoms: C_1  and  N_17 
REMARK    4  A    between atoms: C_2  and  C_3 
REMARK    5  A    between atoms: C_3  and  C_4 
REMARK    6  A    between atoms: C_4  and  C_5 
REMARK    7  A    between atoms: C_5  and  N_21 
REMARK    8  A    between atoms: N_10  and  C_15 
REMARK    9  A    between atoms: Se_12  and  C_13 
REMARK   10  A    between atoms: C_13  and  C_14 
REMARK   11  A    between atoms: C_14  and  C_15 
REMARK   12  A    between atoms: C_15  and  C_16 
REMARK       I    between atoms: C_16  and  N_17 
ROOT
HETATM    1  O           1     -21.333  -3.706  -6.890  0.00  0.00    -0.271 OA
HETATM    2  C           1     -21.613  -4.785  -7.356  0.00  0.00     0.249 C 
HETATM    3  N           1     -22.364  -4.864  -8.498  0.00  0.00    -0.345 N 
HETATM    4  H           1     -22.599  -5.768  -8.888  0.00  0.00     0.163 HD
ENDROOT
BRANCH   3   5
HETATM    5  C           1     -22.824  -3.653  -9.148  0.00  0.00     0.185 C 
BRANCH   5   6
HETATM    6  C           1     -21.960  -3.375 -10.372  0.00  0.00     0.036 C 
BRANCH   6   7
HETATM    7  C           1     -22.722  -3.767 -11.631  0.00  0.00     0.004 C 
BRANCH   7   8
HETATM    8  C           1     -22.799  -2.571 -12.571  0.00  0.00     0.027 C 
BRANCH   8   9
HETATM    9  C           1     -23.450  -2.994 -13.881  0.00  0.00     0.229 C 
BRANCH   9  10
HETATM   10  N           1     -22.428  -2.971 -14.978  0.00  0.00    -0.079 N 
HETATM   11  H           1     -21.519  -3.336 -14.614  0.00  0.00     0.274 HD
HETATM   12  H           1     -22.300  -1.990 -15.315  0.00  0.00     0.274 HD
HETATM   13  H           1     -22.752  -3.571 -15.770  0.00  0.00     0.274 HD
ENDBRANCH   9  10
ENDBRANCH   8   9
ENDBRANCH   7   8
ENDBRANCH   6   7
ENDBRANCH   5   6
BRANCH   5  14
HETATM   14  C           1     -24.261  -3.825  -9.575  0.00  0.00     0.196 C 
HETATM   15  O           1     -25.015  -2.830  -9.645  0.00  0.00    -0.646 OA
HETATM   16  O           1     -24.697  -4.960  -9.860  0.00  0.00    -0.646 OA
ENDBRANCH   5  14
ENDBRANCH   3   5
BRANCH   2  17
HETATM   17  C           1     -21.135  -6.046  -6.679  0.00  0.00     0.274 C 
BRANCH  17  18
HETATM   18  N           1     -19.789  -6.423  -7.220  0.00  0.00    -0.067 N 
HETATM   19  H           1     -19.727  -7.462  -7.311  0.00  0.00     0.275 HD
HETATM   20  H           1     -19.655  -5.984  -8.159  0.00  0.00     0.275 HD
HETATM   21  H           1     -19.044  -6.087  -6.568  0.00  0.00     0.275 HD
ENDBRANCH  17  18
BRANCH  17  22
HETATM   22  C           1     -21.031  -5.810  -5.177  0.00  0.00     0.042 C 
BRANCH  22  23
HETATM   23  C           1     -22.048  -6.684  -4.454  0.00  0.00     0.003 C 
BRANCH  23  24
HETATM   24 Se           1     -21.215  -7.490  -2.887  0.00  0.00     0.000 Se
HETATM   25  C           1     -22.252  -6.455  -1.602  0.00  0.00     0.000 C 
ENDBRANCH  23  24
ENDBRANCH  22  23
ENDBRANCH  17  22
ENDBRANCH   2  17
TORSDOF 12
ENDMDL
MODEL 4
REMARK VINA RESULT:      -5.6     13.528     15.104
REMARK  12 active torsions:
REMARK  status: ('A' for Active; 'I' for Inactive)
REMARK    1  A    between atoms: C_1  and  C_2 
REMARK    2  A    between atoms: C_1  and  C_20 
REMARK    3  A    between atoms: C_1  and  N_17 
REMARK    4  A    between atoms: C_2  and  C_3 
REMARK    5  A    between atoms: C_3  and  C_4 
REMARK    6  A    between atoms: C_4  and  C_5 
REMARK    7  A    between atoms: C_5  and  N_21 
REMARK    8  A    between atoms: N_10  and  C_15 
REMARK    9  A    between atoms: Se_12  and  C_13 
REMARK   10  A    between atoms: C_13  and  C_14 
REMARK   11  A    between atoms: C_14  and  C_15 
REMARK   12  A    between atoms: C_15  and  C_16 
REMARK       I    between atoms: C_16  and  N_17 
ROOT
HETATM    1  O           1     -20.931  -6.885  -7.128  0.00  0.00    -0.271 OA
HETATM    2  C           1     -21.365  -5.952  -6.495  0.00  0.00     0.249 C 
HETATM    3  N           1     -21.817  -4.834  -7.144  0.00  0.00    -0.345 N 
HETATM    4  H           1     -22.180  -4.053  -6.614  0.00  0.00     0.163 HD
ENDROOT
BRANCH   3   5
HETATM    5  C           1     -21.775  -4.771  -8.592  0.00  0.00     0.185 C 
BRANCH   5   6
HETATM    6  C           1     -22.764  -3.722  -9.083  0.00  0.00     0.036 C 
BRANCH   6   7
HETATM    7  C           1     -23.912  -4.408  -9.812  0.00  0.00     0.004 C 
BRANCH   7   8
HETATM    8  C           1     -23.483  -4.741 -11.235  0.00  0.00     0.027 C 
BRANCH   8   9
HETATM    9  C           1     -23.049  -3.466 -11.947  0.00  0.00     0.229 C 
BRANCH   9  10
HETATM   10  N           1     -21.714  -3.685 -12.595  0.00  0.00    -0.079 N 
HETATM   11  H           1     -21.479  -2.862 -13.195  0.00  0.00     0.274 HD
HETATM   12  H           1     -21.750  -4.547 -13.184  0.00  0.00     0.274 HD
HETATM   13  H           1     -20.982  -3.798 -11.857  0.00  0.00     0.274 HD
ENDBRANCH   9  10
ENDBRANCH   8   9
ENDBRANCH   7   8
ENDBRANCH   6   7
ENDBRANCH   5   6
BRANCH   5  14
HETATM   14  C           1     -20.383  -4.400  -9.040  0.00  0.00     0.196 C 
HETATM   15  O           1     -19.633  -3.753  -8.276  0.00  0.00    -0.646 OA
HETATM   16  O           1     -19.978  -4.740 -10.172  0.00  0.00    -0.646 OA
ENDBRANCH   5  14
ENDBRANCH   3   5
BRANCH   2  17
HETATM   17  C           1     -21.408  -6.017  -4.988  0.00  0.00     0.274 C 
BRANCH  17  18
HETATM   18  N           1     -22.830  -6.166  -4.535  0.00  0.00    -0.067 N 
HETATM   19  H           1     -23.404  -6.560  -5.314  0.00  0.00     0.275 HD
HETATM   20  H           1     -22.868  -6.811  -3.714  0.00  0.00     0.275 HD
HETATM   21  H           1     -23.208  -5.231  -4.263  0.00  0.00     0.275 HD
ENDBRANCH  17  18
BRANCH  17  22
HETATM   22  C           1     -20.595  -7.213  -4.507  0.00  0.00     0.042 C 
BRANCH  22  23
HETATM   23  C           1     -21.430  -8.036  -3.534  0.00  0.00     0.003 C 
BRANCH  23  24
HETATM   24 Se           1     -20.702  -7.853  -1.735  0.00  0.00     0.000 Se
HETATM   25  C           1     -22.290  -6.993  -1.003  0.00  0.00     0.000 C 
ENDBRANCH  23  24
ENDBRANCH  22  23
ENDBRANCH  17  22
ENDBRANCH   2  17
TORSDOF 12
ENDMDL
MODEL 5
REMARK VINA RESULT:      -5.5     13.759     15.954
REMARK  12 active torsions:
REMARK  status: ('A' for Active; 'I' for Inactive)
REMARK    1  A    between atoms: C_1  and  C_2 
REMARK    2  A    between atoms: C_1  and  C_20 
REMARK    3  A    between atoms: C_1  and  N_17 
REMARK    4  A    between atoms: C_2  and  C_3 
REMARK    5  A    between atoms: C_3  and  C_4 
REMARK    6  A    between atoms: C_4  and  C_5 
REMARK    7  A    between atoms: C_5  and  N_21 
REMARK    8  A    between atoms: N_10  and  C_15 
REMARK    9  A    between atoms: Se_12  and  C_13 
REMARK   10  A    between atoms: C_13  and  C_14 
REMARK   11  A    between atoms: C_14  and  C_15 
REMARK   12  A    between atoms: C_15  and  C_16 
REMARK       I    between atoms: C_16  and  N_17 
ROOT
HETATM    1  O           1     -21.830  -7.580  -4.976  0.00  0.00    -0.271 OA
HETATM    2  C           1     -21.449  -6.595  -4.390  0.00  0.00     0.249 C 
HETATM    3  N           1     -21.137  -5.459  -5.088  0.00  0.00    -0.345 N 
HETATM    4  H           1     -20.818  -4.634  -4.597  0.00  0.00     0.163 HD
ENDROOT
BRANCH   3   5
HETATM    5  C           1     -21.265  -5.439  -6.532  0.00  0.00     0.185 C 
BRANCH   5   6
HETATM    6  C           1     -21.834  -4.097  -6.972  0.00  0.00     0.036 C 
BRANCH   6   7
HETATM    7  C           1     -23.124  -4.323  -7.750  0.00  0.00     0.004 C 
BRANCH   7   8
HETATM    8  C           1     -22.849  -4.183  -9.241  0.00  0.00     0.027 C 
BRANCH   8   9
HETATM    9  C           1     -24.088  -4.591 -10.028  0.00  0.00     0.229 C 
BRANCH   9  10
HETATM   10  N           1     -25.270  -3.805  -9.541  0.00  0.00    -0.079 N 
HETATM   11  H           1     -25.261  -3.775  -8.497  0.00  0.00     0.274 HD
HETATM   12  H           1     -26.151  -4.262  -9.870  0.00  0.00     0.274 HD
HETATM   13  H           1     -25.222  -2.832  -9.919  0.00  0.00     0.274 HD
ENDBRANCH   9  10
ENDBRANCH   8   9
ENDBRANCH   7   8
ENDBRANCH   6   7
ENDBRANCH   5   6
BRANCH   5  14
HETATM   14  C           1     -19.907  -5.640  -7.160  0.00  0.00     0.196 C 
HETATM   15  O           1     -19.288  -4.664  -7.637  0.00  0.00    -0.646 OA
HETATM   16  O           1     -19.400  -6.781  -7.201  0.00  0.00    -0.646 OA
ENDBRANCH   5  14
ENDBRANCH   3   5
BRANCH   2  17
HETATM   17  C           1     -21.316  -6.616  -2.887  0.00  0.00     0.274 C 
BRANCH  17  18
HETATM   18  N           1     -22.438  -5.831  -2.276  0.00  0.00    -0.067 N 
HETATM   19  H           1     -22.860  -6.377  -1.491  0.00  0.00     0.275 HD
HETATM   20  H           1     -22.069  -4.924  -1.908  0.00  0.00     0.275 HD
HETATM   21  H           1     -23.167  -5.642  -3.000  0.00  0.00     0.275 HD
ENDBRANCH  17  18
BRANCH  17  22
HETATM   22  C           1     -21.375  -8.055  -2.390  0.00  0.00     0.042 C 
BRANCH  22  23
HETATM   23  C           1     -20.735  -8.143  -1.010  0.00  0.00     0.003 C 
BRANCH  23  24
HETATM   24 Se           1     -21.744  -9.390   0.097  0.00  0.00     0.000 Se
HETATM   25  C           1     -23.213  -8.154   0.435  0.00  0.00     0.000 C 
ENDBRANCH  23  24
ENDBRANCH  22  23
ENDBRANCH  17  22
ENDBRANCH   2  17
TORSDOF 12
ENDMDL
MODEL 6
REMARK VINA RESULT:      -5.4     14.106     17.131
REMARK  12 active torsions:
REMARK  status: ('A' for Active; 'I' for Inactive)
REMARK    1  A    between atoms: C_1  and  C_2 
REMARK    2  A    between atoms: C_1  and  C_20 
REMARK    3  A    between atoms: C_1  and  N_17 
REMARK    4  A    between atoms: C_2  and  C_3 
REMARK    5  A    between atoms: C_3  and  C_4 
REMARK    6  A    between atoms: C_4  and  C_5 
REMARK    7  A    between atoms: C_5  and  N_21 
REMARK    8  A    between atoms: N_10  and  C_15 
REMARK    9  A    between atoms: Se_12  and  C_13 
REMARK   10  A    between atoms: C_13  and  C_14 
REMARK   11  A    between atoms: C_14  and  C_15 
REMARK   12  A    between atoms: C_15  and  C_16 
REMARK       I    between atoms: C_16  and  N_17 
ROOT
HETATM    1  O           1     -20.391  -4.326  -6.068  0.00  0.00    -0.271 OA
HETATM    2  C           1     -21.027  -5.084  -6.760  0.00  0.00     0.249 C 
HETATM    3  N           1     -21.320  -6.343  -6.307  0.00  0.00    -0.345 N 
HETATM    4  H           1     -21.853  -6.978  -6.887  0.00  0.00     0.163 HD
ENDROOT
BRANCH   3   5
HETATM    5  C           1     -20.867  -6.764  -4.996  0.00  0.00     0.185 C 
BRANCH   5   6
HETATM    6  C           1     -22.012  -6.639  -3.999  0.00  0.00     0.036 C 
BRANCH   6   7
HETATM    7  C           1     -21.489  -6.049  -2.696  0.00  0.00     0.004 C 
BRANCH   7   8
HETATM    8  C           1     -22.124  -6.775  -1.518  0.00  0.00     0.027 C 
BRANCH   8   9
HETATM    9  C           1     -21.250  -7.956  -1.117  0.00  0.00     0.229 C 
BRANCH   9  10
HETATM   10  N           1     -21.937  -9.237  -1.487  0.00  0.00    -0.079 N 
HETATM   11  H           1     -22.239  -9.733  -0.618  0.00  0.00     0.274 HD
HETATM   12  H           1     -21.277  -9.843  -2.024  0.00  0.00     0.274 HD
HETATM   13  H           1     -22.774  -9.026  -2.076  0.00  0.00     0.274 HD
ENDBRANCH   9  10
ENDBRANCH   8   9
ENDBRANCH   7   8
ENDBRANCH   6   7
ENDBRANCH   5   6
BRANCH   5  14
HETATM   14  C           1     -20.410  -8.201  -5.060  0.00  0.00     0.196 C 
HETATM   15  O           1     -19.362  -8.497  -5.675  0.00  0.00    -0.646 OA
HETATM   16  O           1     -21.076  -9.095  -4.497  0.00  0.00    -0.646 OA
ENDBRANCH   5  14
ENDBRANCH   3   5
BRANCH   2  17
HETATM   17  C           1     -21.499  -4.645  -8.125  0.00  0.00     0.274 C 
BRANCH  17  18
HETATM   18  N           1     -22.558  -3.595  -7.972  0.00  0.00    -0.067 N 
HETATM   19  H           1     -22.967  -3.374  -8.908  0.00  0.00     0.275 HD
HETATM   20  H           1     -23.311  -3.948  -7.339  0.00  0.00     0.275 HD
HETATM   21  H           1     -22.136  -2.730  -7.565  0.00  0.00     0.275 HD
ENDBRANCH  17  18
BRANCH  17  22
HETATM   22  C           1     -20.325  -4.072  -8.909  0.00  0.00     0.042 C 
BRANCH  22  23
HETATM   23  C           1     -20.390  -4.563 -10.350  0.00  0.00     0.003 C 
BRANCH  23  24
HETATM   24 Se           1     -21.446  -3.317 -11.414  0.00  0.00     0.000 Se
HETATM   25  C           1     -22.998  -4.488 -11.542  0.00  0.00     0.000 C 
ENDBRANCH  23  24
ENDBRANCH  22  23
ENDBRANCH  17  22
ENDBRANCH   2  17
TORSDOF 12
ENDMDL
MODEL 7
REMARK VINA RESULT:      -5.4      9.674     10.934
REMARK  12 active torsions:
REMARK  status: ('A' for Active; 'I' for Inactive)
REMARK    1  A    between atoms: C_1  and  C_2 
REMARK    2  A    between atoms: C_1  and  C_20 
REMARK    3  A    between atoms: C_1  and  N_17 
REMARK    4  A    between atoms: C_2  and  C_3 
REMARK    5  A    between atoms: C_3  and  C_4 
REMARK    6  A    between atoms: C_4  and  C_5 
REMARK    7  A    between atoms: C_5  and  N_21 
REMARK    8  A    between atoms: N_10  and  C_15 
REMARK    9  A    between atoms: Se_12  and  C_13 
REMARK   10  A    between atoms: C_13  and  C_14 
REMARK   11  A    between atoms: C_14  and  C_15 
REMARK   12  A    between atoms: C_15  and  C_16 
REMARK       I    between atoms: C_16  and  N_17 
ROOT
HETATM    1  O           1     -27.565  -6.189 -16.090  0.00  0.00    -0.271 OA
HETATM    2  C           1     -27.180  -6.462 -17.202  0.00  0.00     0.249 C 
HETATM    3  N           1     -28.072  -6.885 -18.151  0.00  0.00    -0.345 N 
HETATM    4  H           1     -27.750  -7.114 -19.082  0.00  0.00     0.163 HD
ENDROOT
BRANCH   3   5
HETATM    5  C           1     -29.479  -7.006 -17.820  0.00  0.00     0.185 C 
BRANCH   5   6
HETATM    6  C           1     -30.161  -5.658 -18.008  0.00  0.00     0.036 C 
BRANCH   6   7
HETATM    7  C           1     -30.999  -5.337 -16.778  0.00  0.00     0.004 C 
BRANCH   7   8
HETATM    8  C           1     -31.792  -4.059 -17.022  0.00  0.00     0.027 C 
BRANCH   8   9
HETATM    9  C           1     -33.244  -4.276 -16.613  0.00  0.00     0.229 C 
BRANCH   9  10
HETATM   10  N           1     -34.054  -3.071 -16.990  0.00  0.00    -0.079 N 
HETATM   11  H           1     -35.022  -3.170 -16.610  0.00  0.00     0.274 HD
HETATM   12  H           1     -34.094  -2.990 -18.031  0.00  0.00     0.274 HD
HETATM   13  H           1     -33.610  -2.213 -16.591  0.00  0.00     0.274 HD
ENDBRANCH   9  10
ENDBRANCH   8   9
ENDBRANCH   7   8
ENDBRANCH   6   7
ENDBRANCH   5   6
BRANCH   5  14
HETATM   14  C           1     -30.123  -8.027 -18.726  0.00  0.00     0.196 C 
HETATM   15  O           1     -31.368  -8.086 -18.815  0.00  0.00    -0.646 OA
HETATM   16  O           1     -29.411  -8.812 -19.388  0.00  0.00    -0.646 OA
ENDBRANCH   5  14
ENDBRANCH   3   5
BRANCH   2  17
HETATM   17  C           1     -25.717  -6.336 -17.546  0.00  0.00     0.274 C 
BRANCH  17  18
HETATM   18  N           1     -24.925  -7.305 -16.720  0.00  0.00    -0.067 N 
HETATM   19  H           1     -23.905  -7.113 -16.839  0.00  0.00     0.275 HD
HETATM   20  H           1     -25.184  -7.197 -15.713  0.00  0.00     0.275 HD
HETATM   21  H           1     -25.134  -8.281 -17.031  0.00  0.00     0.275 HD
ENDBRANCH  17  18
BRANCH  17  22
HETATM   22  C           1     -25.513  -6.644 -19.024  0.00  0.00     0.042 C 
BRANCH  22  23
HETATM   23  C           1     -24.101  -7.175 -19.242  0.00  0.00     0.003 C 
BRANCH  23  24
HETATM   24 Se           1     -23.998  -8.056 -20.978  0.00  0.00     0.000 Se
HETATM   25  C           1     -25.929  -8.179 -21.213  0.00  0.00     0.000 C 
ENDBRANCH  23  24
ENDBRANCH  22  23
ENDBRANCH  17  22
ENDBRANCH   2  17
TORSDOF 12
ENDMDL
MODEL 8
REMARK VINA RESULT:      -5.2     14.587     17.781
REMARK  12 active torsions:
REMARK  status: ('A' for Active; 'I' for Inactive)
REMARK    1  A    between atoms: C_1  and  C_2 
REMARK    2  A    between atoms: C_1  and  C_20 
REMARK    3  A    between atoms: C_1  and  N_17 
REMARK    4  A    between atoms: C_2  and  C_3 
REMARK    5  A    between atoms: C_3  and  C_4 
REMARK    6  A    between atoms: C_4  and  C_5 
REMARK    7  A    between atoms: C_5  and  N_21 
REMARK    8  A    between atoms: N_10  and  C_15 
REMARK    9  A    between atoms: Se_12  and  C_13 
REMARK   10  A    between atoms: C_13  and  C_14 
REMARK   11  A    between atoms: C_14  and  C_15 
REMARK   12  A    between atoms: C_15  and  C_16 
REMARK       I    between atoms: C_16  and  N_17 
ROOT
HETATM    1  O           1     -20.771  -5.408  -4.815  0.00  0.00    -0.271 OA
HETATM    2  C           1     -20.896  -6.017  -5.850  0.00  0.00     0.249 C 
HETATM    3  N           1     -20.665  -7.366  -5.884  0.00  0.00    -0.345 N 
HETATM    4  H           1     -20.770  -7.876  -6.751  0.00  0.00     0.163 HD
ENDROOT
BRANCH   3   5
HETATM    5  C           1     -20.270  -8.063  -4.676  0.00  0.00     0.185 C 
BRANCH   5   6
HETATM    6  C           1     -21.423  -8.934  -4.193  0.00  0.00     0.036 C 
BRANCH   6   7
HETATM    7  C           1     -21.372  -9.049  -2.675  0.00  0.00     0.004 C 
BRANCH   7   8
HETATM    8  C           1     -20.876  -7.737  -2.083  0.00  0.00     0.027 C 
BRANCH   8   9
HETATM    9  C           1     -22.038  -7.007  -1.420  0.00  0.00     0.229 C 
BRANCH   9  10
HETATM   10  N           1     -22.409  -5.808  -2.242  0.00  0.00    -0.079 N 
HETATM   11  H           1     -23.408  -5.886  -2.539  0.00  0.00     0.274 HD
HETATM   12  H           1     -21.796  -5.762  -3.088  0.00  0.00     0.274 HD
HETATM   13  H           1     -22.281  -4.941  -1.673  0.00  0.00     0.274 HD
ENDBRANCH   9  10
ENDBRANCH   8   9
ENDBRANCH   7   8
ENDBRANCH   6   7
ENDBRANCH   5   6
BRANCH   5  14
HETATM   14  C           1     -19.070  -8.931  -4.965  0.00  0.00     0.196 C 
HETATM   15  O           1     -18.867  -9.350  -6.125  0.00  0.00    -0.646 OA
HETATM   16  O           1     -18.277  -9.229  -4.046  0.00  0.00    -0.646 OA
ENDBRANCH   5  14
ENDBRANCH   3   5
BRANCH   2  17
HETATM   17  C           1     -21.307  -5.291  -7.108  0.00  0.00     0.274 C 
BRANCH  17  18
HETATM   18  N           1     -21.563  -3.848  -6.790  0.00  0.00    -0.067 N 
HETATM   19  H           1     -21.789  -3.332  -7.670  0.00  0.00     0.275 HD
HETATM   20  H           1     -22.370  -3.775  -6.128  0.00  0.00     0.275 HD
HETATM   21  H           1     -20.712  -3.431  -6.351  0.00  0.00     0.275 HD
ENDBRANCH  17  18
BRANCH  17  22
HETATM   22  C           1     -20.193  -5.393  -8.142  0.00  0.00     0.042 C 
BRANCH  22  23
HETATM   23  C           1     -20.067  -4.069  -8.885  0.00  0.00     0.003 C 
BRANCH  23  24
HETATM   24 Se           1     -20.519  -4.330 -10.762  0.00  0.00     0.000 Se
HETATM   25  C           1     -22.445  -4.354 -10.464  0.00  0.00     0.000 C 
ENDBRANCH  23  24
ENDBRANCH  22  23
ENDBRANCH  17  22
ENDBRANCH   2  17
TORSDOF 12
ENDMDL
MODEL 9
REMARK VINA RESULT:      -5.1     10.094     11.422
REMARK  12 active torsions:
REMARK  status: ('A' for Active; 'I' for Inactive)
REMARK    1  A    between atoms: C_1  and  C_2 
REMARK    2  A    between atoms: C_1  and  C_20 
REMARK    3  A    between atoms: C_1  and  N_17 
REMARK    4  A    between atoms: C_2  and  C_3 
REMARK    5  A    between atoms: C_3  and  C_4 
REMARK    6  A    between atoms: C_4  and  C_5 
REMARK    7  A    between atoms: C_5  and  N_21 
REMARK    8  A    between atoms: N_10  and  C_15 
REMARK    9  A    between atoms: Se_12  and  C_13 
REMARK   10  A    between atoms: C_13  and  C_14 
REMARK   11  A    between atoms: C_14  and  C_15 
REMARK   12  A    between atoms: C_15  and  C_16 
REMARK       I    between atoms: C_16  and  N_17 
ROOT
HETATM    1  O           1     -26.113  -5.549 -16.880  0.00  0.00    -0.271 OA
HETATM    2  C           1     -26.220  -6.280 -17.836  0.00  0.00     0.249 C 
HETATM    3  N           1     -27.454  -6.739 -18.212  0.00  0.00    -0.345 N 
HETATM    4  H           1     -27.544  -7.351 -19.012  0.00  0.00     0.163 HD
ENDROOT
BRANCH   3   5
HETATM    5  C           1     -28.632  -6.347 -17.462  0.00  0.00     0.185 C 
BRANCH   5   6
HETATM    6  C           1     -29.841  -7.115 -17.980  0.00  0.00     0.036 C 
BRANCH   6   7
HETATM    7  C           1     -31.107  -6.560 -17.341  0.00  0.00     0.004 C 
BRANCH   7   8
HETATM    8  C           1     -31.119  -5.043 -17.471  0.00  0.00     0.027 C 
BRANCH   8   9
HETATM    9  C           1     -32.308  -4.475 -16.707  0.00  0.00     0.229 C 
BRANCH   9  10
HETATM   10  N           1     -32.915  -3.350 -17.491  0.00  0.00    -0.079 N 
HETATM   11  H           1     -32.165  -2.846 -18.014  0.00  0.00     0.274 HD
HETATM   12  H           1     -33.390  -2.687 -16.837  0.00  0.00     0.274 HD
HETATM   13  H           1     -33.615  -3.732 -18.166  0.00  0.00     0.274 HD
ENDBRANCH   9  10
ENDBRANCH   8   9
ENDBRANCH   7   8
ENDBRANCH   6   7
ENDBRANCH   5   6
BRANCH   5  14
HETATM   14  C           1     -28.425  -6.659 -16.000  0.00  0.00     0.196 C 
HETATM   15  O           1     -28.146  -7.824 -15.643  0.00  0.00    -0.646 OA
HETATM   16  O           1     -28.529  -5.752 -15.147  0.00  0.00    -0.646 OA
ENDBRANCH   5  14
ENDBRANCH   3   5
BRANCH   2  17
HETATM   17  C           1     -24.994  -6.687 -18.615  0.00  0.00     0.274 C 
BRANCH  17  18
HETATM   18  N           1     -24.164  -7.622 -17.788  0.00  0.00    -0.067 N 
HETATM   19  H           1     -24.553  -7.670 -16.819  0.00  0.00     0.275 HD
HETATM   20  H           1     -24.183  -8.576 -18.216  0.00  0.00     0.275 HD
HETATM   21  H           1     -23.180  -7.275 -17.750  0.00  0.00     0.275 HD
ENDBRANCH  17  18
BRANCH  17  22
HETATM   22  C           1     -25.418  -7.387 -19.901  0.00  0.00     0.042 C 
BRANCH  22  23
HETATM   23  C           1     -24.917  -6.593 -21.100  0.00  0.00     0.003 C 
BRANCH  23  24
HETATM   24 Se           1     -24.109  -7.807 -22.393  0.00  0.00     0.000 Se
HETATM   25  C           1     -22.721  -8.438 -21.179  0.00  0.00     0.000 C 
ENDBRANCH  23  24
ENDBRANCH  22  23
ENDBRANCH  17  22
ENDBRANCH   2  17
TORSDOF 12
ENDMDL
