MODEL 1
REMARK VINA RESULT:      -7.0      0.000      0.000
REMARK  8 active torsions:
REMARK  status: ('A' for Active; 'I' for Inactive)
REMARK    1  A    between atoms: N_2  and  C_17 
REMARK       I    between atoms: N_2  and  C_14 
REMARK       I    between atoms: N_4  and  C_8 
REMARK    2  A    between atoms: C_7  and  C_13 
REMARK    3  A    between atoms: C_8  and  C_21 
REMARK    4  A    between atoms: C_13  and  C_14 
REMARK    5  A    between atoms: C_13  and  N_16 
REMARK    6  A    between atoms: C_17  and  C_22 
REMARK    7  A    between atoms: C_17  and  C_20 
REMARK    8  A    between atoms: C_21  and  C_22 
ROOT
HETATM    1  N           1     -34.979  -1.566 -13.156  0.00  0.00    -0.345 N 
HETATM    2  O           1     -33.927  -1.915 -11.217  0.00  0.00    -0.271 OA
HETATM    3  H           1     -35.347  -1.957 -14.014  0.00  0.00     0.163 HD
HETATM    4  C           1     -34.366  -2.381 -12.242  0.00  0.00     0.249 C 
ENDROOT
BRANCH   1   5
HETATM    5  C           1     -35.101  -0.146 -12.894  0.00  0.00     0.186 C 
BRANCH   5   6
HETATM    6  C           1     -35.163   0.610 -14.215  0.00  0.00     0.045 C 
BRANCH   6   7
HETATM    7  C           1     -35.379  -0.376 -15.356  0.00  0.00     0.105 C 
BRANCH   7   8
HETATM    8  C           1     -36.688  -0.076 -16.040  0.00  0.00     0.215 C 
HETATM    9  N           1     -37.418   1.023 -15.672  0.00  0.00    -0.370 N 
HETATM   10  H           1     -37.077   1.634 -14.940  0.00  0.00     0.159 HD
HETATM   11  H           1     -38.296   1.224 -16.131  0.00  0.00     0.159 HD
HETATM   12  O           1     -37.095  -0.805 -16.913  0.00  0.00    -0.274 OA
ENDBRANCH   7   8
ENDBRANCH   6   7
ENDBRANCH   5   6
BRANCH   5  13
HETATM   13  C           1     -36.362   0.114 -12.107  0.00  0.00     0.196 C 
HETATM   14  O           1     -37.478  -0.003 -12.658  0.00  0.00    -0.646 OA
HETATM   15  O           1     -36.291   0.447 -10.904  0.00  0.00    -0.646 OA
ENDBRANCH   5  13
ENDBRANCH   1   5
BRANCH   4  16
HETATM   16  C           1     -34.239  -3.860 -12.514  0.00  0.00     0.278 C 
BRANCH  16  17
HETATM   17  C           1     -33.270  -4.479 -11.515  0.00  0.00     0.017 C 
HETATM   18  C           1     -33.856  -5.776 -10.974  0.00  0.00     0.012 C 
HETATM   19  C           1     -31.945  -4.771 -12.208  0.00  0.00     0.012 C 
ENDBRANCH  16  17
BRANCH  16  20
HETATM   20  N           1     -33.721  -4.068 -13.906  0.00  0.00    -0.066 N 
HETATM   21  H           1     -32.708  -4.320 -13.866  0.00  0.00     0.275 HD
HETATM   22  H           1     -33.840  -3.188 -14.457  0.00  0.00     0.275 HD
HETATM   23  H           1     -34.255  -4.840 -14.364  0.00  0.00     0.275 HD
ENDBRANCH  16  20
ENDBRANCH   4  16
TORSDOF 8
ENDMDL
MODEL 2
REMARK VINA RESULT:      -6.6     11.810     13.720
REMARK  8 active torsions:
REMARK  status: ('A' for Active; 'I' for Inactive)
REMARK    1  A    between atoms: N_2  and  C_17 
REMARK       I    between atoms: N_2  and  C_14 
REMARK       I    between atoms: N_4  and  C_8 
REMARK    2  A    between atoms: C_7  and  C_13 
REMARK    3  A    between atoms: C_8  and  C_21 
REMARK    4  A    between atoms: C_13  and  C_14 
REMARK    5  A    between atoms: C_13  and  N_16 
REMARK    6  A    between atoms: C_17  and  C_22 
REMARK    7  A    between atoms: C_17  and  C_20 
REMARK    8  A    between atoms: C_21  and  C_22 
ROOT
HETATM    1  N           1     -22.231  -4.877  -9.100  0.00  0.00    -0.345 N 
HETATM    2  O           1     -21.838  -3.549  -7.349  0.00  0.00    -0.271 OA
HETATM    3  H           1     -22.190  -5.808  -9.497  0.00  0.00     0.163 HD
HETATM    4  C           1     -21.788  -4.659  -7.823  0.00  0.00     0.249 C 
ENDROOT
BRANCH   1   5
HETATM    5  C           1     -22.759  -3.778  -9.882  0.00  0.00     0.186 C 
BRANCH   5   6
HETATM    6  C           1     -22.294  -3.913 -11.327  0.00  0.00     0.045 C 
BRANCH   6   7
HETATM    7  C           1     -22.501  -2.591 -12.054  0.00  0.00     0.105 C 
BRANCH   7   8
HETATM    8  C           1     -23.278  -2.832 -13.324  0.00  0.00     0.215 C 
HETATM    9  N           1     -22.616  -3.006 -14.510  0.00  0.00    -0.370 N 
HETATM   10  H           1     -21.605  -2.973 -14.534  0.00  0.00     0.159 HD
HETATM   11  H           1     -23.138  -3.168 -15.361  0.00  0.00     0.159 HD
HETATM   12  O           1     -24.485  -2.872 -13.295  0.00  0.00    -0.274 OA
ENDBRANCH   7   8
ENDBRANCH   6   7
ENDBRANCH   5   6
BRANCH   5  13
HETATM   13  C           1     -24.267  -3.805  -9.835  0.00  0.00     0.196 C 
HETATM   14  O           1     -24.878  -4.882 -10.008  0.00  0.00    -0.646 OA
HETATM   15  O           1     -24.906  -2.751  -9.625  0.00  0.00    -0.646 OA
ENDBRANCH   5  13
ENDBRANCH   1   5
BRANCH   4  16
HETATM   16  C           1     -21.239  -5.805  -7.008  0.00  0.00     0.278 C 
BRANCH  16  17
HETATM   17  C           1     -21.320  -5.459  -5.527  0.00  0.00     0.017 C 
HETATM   18  C           1     -21.562  -6.728  -4.721  0.00  0.00     0.012 C 
HETATM   19  C           1     -20.010  -4.819  -5.084  0.00  0.00     0.012 C 
ENDBRANCH  16  17
BRANCH  16  20
HETATM   20  N           1     -19.807  -6.045  -7.387  0.00  0.00    -0.066 N 
HETATM   21  H           1     -19.186  -5.463  -6.781  0.00  0.00     0.275 HD
HETATM   22  H           1     -19.663  -5.782  -8.388  0.00  0.00     0.275 HD
HETATM   23  H           1     -19.577  -7.055  -7.256  0.00  0.00     0.275 HD
ENDBRANCH  16  20
ENDBRANCH   4  16
TORSDOF 8
ENDMDL
MODEL 3
REMARK VINA RESULT:      -6.1      2.196      3.703
REMARK  8 active torsions:
REMARK  status: ('A' for Active; 'I' for Inactive)
REMARK    1  A    between atoms: N_2  and  C_17 
REMARK       I    between atoms: N_2  and  C_14 
REMARK       I    between atoms: N_4  and  C_8 
REMARK    2  A    between atoms: C_7  and  C_13 
REMARK    3  A    between atoms: C_8  and  C_21 
REMARK    4  A    between atoms: C_13  and  C_14 
REMARK    5  A    between atoms: C_13  and  N_16 
REMARK    6  A    between atoms: C_17  and  C_22 
REMARK    7  A    between atoms: C_17  and  C_20 
REMARK    8  A    between atoms: C_21  and  C_22 
ROOT
HETATM    1  N           1     -35.017  -1.203 -12.170  0.00  0.00    -0.345 N 
HETATM    2  O           1     -34.550  -3.022 -13.378  0.00  0.00    -0.271 OA
HETATM    3  H           1     -34.860  -0.674 -11.321  0.00  0.00     0.163 HD
HETATM    4  C           1     -34.363  -2.389 -12.366  0.00  0.00     0.249 C 
ENDROOT
BRANCH   1   5
HETATM    5  C           1     -35.935  -0.706 -13.176  0.00  0.00     0.186 C 
BRANCH   5   6
HETATM    6  C           1     -37.073   0.045 -12.497  0.00  0.00     0.045 C 
BRANCH   6   7
HETATM    7  C           1     -37.407  -0.627 -11.172  0.00  0.00     0.105 C 
BRANCH   7   8
HETATM    8  C           1     -37.275   0.374 -10.052  0.00  0.00     0.215 C 
HETATM    9  N           1     -36.250   0.264  -9.152  0.00  0.00    -0.370 N 
HETATM   10  H           1     -35.580  -0.490  -9.238  0.00  0.00     0.159 HD
HETATM   11  H           1     -36.162   0.936  -8.400  0.00  0.00     0.159 HD
HETATM   12  O           1     -38.075   1.274  -9.949  0.00  0.00    -0.274 OA
ENDBRANCH   7   8
ENDBRANCH   6   7
ENDBRANCH   5   6
BRANCH   5  13
HETATM   13  C           1     -35.202   0.226 -14.108  0.00  0.00     0.196 C 
HETATM   14  O           1     -34.973  -0.122 -15.287  0.00  0.00    -0.646 OA
HETATM   15  O           1     -34.822   1.346 -13.702  0.00  0.00    -0.646 OA
ENDBRANCH   5  13
ENDBRANCH   1   5
BRANCH   4  16
HETATM   16  C           1     -33.407  -2.907 -11.319  0.00  0.00     0.278 C 
BRANCH  16  17
HETATM   17  C           1     -34.014  -4.126 -10.636  0.00  0.00     0.017 C 
HETATM   18  C           1     -35.527  -4.099 -10.798  0.00  0.00     0.012 C 
HETATM   19  C           1     -33.458  -5.393 -11.274  0.00  0.00     0.012 C 
ENDBRANCH  16  17
BRANCH  16  20
HETATM   20  N           1     -33.157  -1.836 -10.298  0.00  0.00    -0.066 N 
HETATM   21  H           1     -32.528  -1.109 -10.706  0.00  0.00     0.275 HD
HETATM   22  H           1     -32.704  -2.257  -9.456  0.00  0.00     0.275 HD
HETATM   23  H           1     -34.065  -1.399 -10.024  0.00  0.00     0.275 HD
ENDBRANCH  16  20
ENDBRANCH   4  16
TORSDOF 8
ENDMDL
MODEL 4
REMARK VINA RESULT:      -6.0      8.442     10.364
REMARK  8 active torsions:
REMARK  status: ('A' for Active; 'I' for Inactive)
REMARK    1  A    between atoms: N_2  and  C_17 
REMARK       I    between atoms: N_2  and  C_14 
REMARK       I    between atoms: N_4  and  C_8 
REMARK    2  A    between atoms: C_7  and  C_13 
REMARK    3  A    between atoms: C_8  and  C_21 
REMARK    4  A    between atoms: C_13  and  C_14 
REMARK    5  A    between atoms: C_13  and  N_16 
REMARK    6  A    between atoms: C_17  and  C_22 
REMARK    7  A    between atoms: C_17  and  C_20 
REMARK    8  A    between atoms: C_21  and  C_22 
ROOT
HETATM    1  N           1     -27.988  -6.940 -18.634  0.00  0.00    -0.345 N 
HETATM    2  O           1     -27.068  -6.055 -16.802  0.00  0.00    -0.271 OA
HETATM    3  H           1     -27.864  -7.265 -19.585  0.00  0.00     0.163 HD
HETATM    4  C           1     -26.920  -6.443 -17.937  0.00  0.00     0.249 C 
ENDROOT
BRANCH   1   5
HETATM    5  C           1     -29.296  -7.001 -18.012  0.00  0.00     0.186 C 
BRANCH   5   6
HETATM    6  C           1     -29.941  -5.621 -18.052  0.00  0.00     0.045 C 
BRANCH   6   7
HETATM    7  C           1     -30.720  -5.386 -16.765  0.00  0.00     0.105 C 
BRANCH   7   8
HETATM    8  C           1     -31.729  -4.286 -16.980  0.00  0.00     0.215 C 
HETATM    9  N           1     -33.007  -4.428 -16.511  0.00  0.00    -0.370 N 
HETATM   10  H           1     -33.275  -5.271 -16.020  0.00  0.00     0.159 HD
HETATM   11  H           1     -33.684  -3.690 -16.656  0.00  0.00     0.159 HD
HETATM   12  O           1     -31.409  -3.280 -17.567  0.00  0.00    -0.274 OA
ENDBRANCH   7   8
ENDBRANCH   6   7
ENDBRANCH   5   6
BRANCH   5  13
HETATM   13  C           1     -30.163  -7.984 -18.757  0.00  0.00     0.196 C 
HETATM   14  O           1     -29.640  -8.949 -19.357  0.00  0.00    -0.646 OA
HETATM   15  O           1     -31.404  -7.835 -18.778  0.00  0.00    -0.646 OA
ENDBRANCH   5  13
ENDBRANCH   1   5
BRANCH   4  16
HETATM   16  C           1     -25.559  -6.380 -18.585  0.00  0.00     0.278 C 
BRANCH  16  17
HETATM   17  C           1     -25.638  -6.963 -19.991  0.00  0.00     0.017 C 
HETATM   18  C           1     -25.702  -5.831 -21.008  0.00  0.00     0.012 C 
HETATM   19  C           1     -24.403  -7.814 -20.257  0.00  0.00     0.012 C 
ENDBRANCH  16  17
BRANCH  16  20
HETATM   20  N           1     -24.581  -7.174 -17.771  0.00  0.00    -0.066 N 
HETATM   21  H           1     -24.826  -7.093 -16.758  0.00  0.00     0.275 HD
HETATM   22  H           1     -23.616  -6.804 -17.927  0.00  0.00     0.275 HD
HETATM   23  H           1     -24.620  -8.177 -18.060  0.00  0.00     0.275 HD
ENDBRANCH  16  20
ENDBRANCH   4  16
TORSDOF 8
ENDMDL
MODEL 5
REMARK VINA RESULT:      -5.9      2.796      4.569
REMARK  8 active torsions:
REMARK  status: ('A' for Active; 'I' for Inactive)
REMARK    1  A    between atoms: N_2  and  C_17 
REMARK       I    between atoms: N_2  and  C_14 
REMARK       I    between atoms: N_4  and  C_8 
REMARK    2  A    between atoms: C_7  and  C_13 
REMARK    3  A    between atoms: C_8  and  C_21 
REMARK    4  A    between atoms: C_13  and  C_14 
REMARK    5  A    between atoms: C_13  and  N_16 
REMARK    6  A    between atoms: C_17  and  C_22 
REMARK    7  A    between atoms: C_17  and  C_20 
REMARK    8  A    between atoms: C_21  and  C_22 
ROOT
HETATM    1  N           1     -35.342  -1.605 -11.150  0.00  0.00    -0.345 N 
HETATM    2  O           1     -36.379  -3.533 -10.707  0.00  0.00    -0.271 OA
HETATM    3  H           1     -34.468  -1.112 -11.278  0.00  0.00     0.163 HD
HETATM    4  C           1     -35.336  -2.943 -10.861  0.00  0.00     0.249 C 
ENDROOT
BRANCH   1   5
HETATM    5  C           1     -36.600  -0.896 -11.273  0.00  0.00     0.186 C 
BRANCH   5   6
HETATM    6  C           1     -36.630   0.260 -10.281  0.00  0.00     0.045 C 
BRANCH   6   7
HETATM    7  C           1     -36.965  -0.268  -8.893  0.00  0.00     0.105 C 
BRANCH   7   8
HETATM    8  C           1     -36.997   0.877  -7.913  0.00  0.00     0.215 C 
HETATM    9  N           1     -37.466   2.102  -8.305  0.00  0.00    -0.370 N 
HETATM   10  H           1     -37.790   2.239  -9.254  0.00  0.00     0.159 HD
HETATM   11  H           1     -37.487   2.870  -7.648  0.00  0.00     0.159 HD
HETATM   12  O           1     -36.610   0.714  -6.780  0.00  0.00    -0.274 OA
ENDBRANCH   7   8
ENDBRANCH   6   7
ENDBRANCH   5   6
BRANCH   5  13
HETATM   13  C           1     -36.741  -0.360 -12.676  0.00  0.00     0.196 C 
HETATM   14  O           1     -35.909   0.463 -13.116  0.00  0.00    -0.646 OA
HETATM   15  O           1     -37.689  -0.737 -13.398  0.00  0.00    -0.646 OA
ENDBRANCH   5  13
ENDBRANCH   1   5
BRANCH   4  16
HETATM   16  C           1     -34.025  -3.682 -10.733  0.00  0.00     0.278 C 
BRANCH  16  17
HETATM   17  C           1     -33.255  -3.580 -12.043  0.00  0.00     0.017 C 
HETATM   18  C           1     -32.104  -4.576 -12.036  0.00  0.00     0.012 C 
HETATM   19  C           1     -34.189  -3.893 -13.205  0.00  0.00     0.012 C 
ENDBRANCH  16  17
BRANCH  16  20
HETATM   20  N           1     -34.294  -5.124 -10.422  0.00  0.00    -0.066 N 
HETATM   21  H           1     -33.893  -5.723 -11.179  0.00  0.00     0.275 HD
HETATM   22  H           1     -35.325  -5.282 -10.363  0.00  0.00     0.275 HD
HETATM   23  H           1     -33.850  -5.372  -9.510  0.00  0.00     0.275 HD
ENDBRANCH  16  20
ENDBRANCH   4  16
TORSDOF 8
ENDMDL
MODEL 6
REMARK VINA RESULT:      -5.9      9.577     12.159
REMARK  8 active torsions:
REMARK  status: ('A' for Active; 'I' for Inactive)
REMARK    1  A    between atoms: N_2  and  C_17 
REMARK       I    between atoms: N_2  and  C_14 
REMARK       I    between atoms: N_4  and  C_8 
REMARK    2  A    between atoms: C_7  and  C_13 
REMARK    3  A    between atoms: C_8  and  C_21 
REMARK    4  A    between atoms: C_13  and  C_14 
REMARK    5  A    between atoms: C_13  and  N_16 
REMARK    6  A    between atoms: C_17  and  C_22 
REMARK    7  A    between atoms: C_17  and  C_20 
REMARK    8  A    between atoms: C_21  and  C_22 
ROOT
HETATM    1  N           1     -27.495  -7.238 -19.176  0.00  0.00    -0.345 N 
HETATM    2  O           1     -28.498  -5.246 -19.077  0.00  0.00    -0.271 OA
HETATM    3  H           1     -27.399  -8.170 -18.792  0.00  0.00     0.163 HD
HETATM    4  C           1     -28.383  -6.358 -18.620  0.00  0.00     0.249 C 
ENDROOT
BRANCH   1   5
HETATM    5  C           1     -26.692  -6.836 -20.314  0.00  0.00     0.186 C 
BRANCH   5   6
HETATM    6  C           1     -25.351  -6.303 -19.826  0.00  0.00     0.045 C 
BRANCH   6   7
HETATM    7  C           1     -24.607  -7.404 -19.082  0.00  0.00     0.105 C 
BRANCH   7   8
HETATM    8  C           1     -24.662  -7.136 -17.599  0.00  0.00     0.215 C 
HETATM    9  N           1     -23.999  -7.959 -16.729  0.00  0.00    -0.370 N 
HETATM   10  H           1     -23.471  -8.747 -17.081  0.00  0.00     0.159 HD
HETATM   11  H           1     -24.036  -7.779 -15.734  0.00  0.00     0.159 HD
HETATM   12  O           1     -25.292  -6.195 -17.178  0.00  0.00    -0.274 OA
ENDBRANCH   7   8
ENDBRANCH   6   7
ENDBRANCH   5   6
BRANCH   5  13
HETATM   13  C           1     -26.464  -8.024 -21.215  0.00  0.00     0.196 C 
HETATM   14  O           1     -27.375  -8.865 -21.381  0.00  0.00    -0.646 OA
HETATM   15  O           1     -25.365  -8.170 -21.793  0.00  0.00    -0.646 OA
ENDBRANCH   5  13
ENDBRANCH   1   5
BRANCH   4  16
HETATM   16  C           1     -29.219  -6.777 -17.435  0.00  0.00     0.278 C 
BRANCH  16  17
HETATM   17  C           1     -28.538  -6.329 -16.148  0.00  0.00     0.017 C 
HETATM   18  C           1     -29.574  -5.741 -15.201  0.00  0.00     0.012 C 
HETATM   19  C           1     -27.867  -7.527 -15.487  0.00  0.00     0.012 C 
ENDBRANCH  16  17
BRANCH  16  20
HETATM   20  N           1     -29.364  -8.270 -17.430  0.00  0.00    -0.066 N 
HETATM   21  H           1     -29.755  -8.578 -16.511  0.00  0.00     0.275 HD
HETATM   22  H           1     -28.428  -8.711 -17.575  0.00  0.00     0.275 HD
HETATM   23  H           1     -30.009  -8.560 -18.198  0.00  0.00     0.275 HD
ENDBRANCH  16  20
ENDBRANCH   4  16
TORSDOF 8
ENDMDL
MODEL 7
REMARK VINA RESULT:      -5.8      9.152     11.523
REMARK  8 active torsions:
REMARK  status: ('A' for Active; 'I' for Inactive)
REMARK    1  A    between atoms: N_2  and  C_17 
REMARK       I    between atoms: N_2  and  C_14 
REMARK       I    between atoms: N_4  and  C_8 
REMARK    2  A    between atoms: C_7  and  C_13 
REMARK    3  A    between atoms: C_8  and  C_21 
REMARK    4  A    between atoms: C_13  and  C_14 
REMARK    5  A    between atoms: C_13  and  N_16 
REMARK    6  A    between atoms: C_17  and  C_22 
REMARK    7  A    between atoms: C_17  and  C_20 
REMARK    8  A    between atoms: C_21  and  C_22 
ROOT
HETATM    1  N           1     -26.351  -6.654 -18.096  0.00  0.00    -0.345 N 
HETATM    2  O           1     -27.963  -5.373 -18.960  0.00  0.00    -0.271 OA
HETATM    3  H           1     -25.567  -7.273 -18.261  0.00  0.00     0.163 HD
HETATM    4  C           1     -27.028  -6.111 -19.155  0.00  0.00     0.249 C 
ENDROOT
BRANCH   1   5
HETATM    5  C           1     -26.757  -6.342 -16.740  0.00  0.00     0.186 C 
BRANCH   5   6
HETATM    6  C           1     -27.833  -7.324 -16.294  0.00  0.00     0.045 C 
BRANCH   6   7
HETATM    7  C           1     -29.174  -6.607 -16.211  0.00  0.00     0.105 C 
BRANCH   7   8
HETATM    8  C           1     -30.107  -7.161 -17.259  0.00  0.00     0.215 C 
HETATM    9  N           1     -29.667  -8.124 -18.127  0.00  0.00    -0.370 N 
HETATM   10  H           1     -28.715  -8.463 -18.067  0.00  0.00     0.159 HD
HETATM   11  H           1     -30.293  -8.496 -18.830  0.00  0.00     0.159 HD
HETATM   12  O           1     -31.242  -6.757 -17.331  0.00  0.00    -0.274 OA
ENDBRANCH   7   8
ENDBRANCH   6   7
ENDBRANCH   5   6
BRANCH   5  13
HETATM   13  C           1     -25.566  -6.449 -15.821  0.00  0.00     0.196 C 
HETATM   14  O           1     -24.965  -5.415 -15.455  0.00  0.00    -0.646 OA
HETATM   15  O           1     -25.177  -7.570 -15.426  0.00  0.00    -0.646 OA
ENDBRANCH   5  13
ENDBRANCH   1   5
BRANCH   4  16
HETATM   16  C           1     -26.605  -6.436 -20.568  0.00  0.00     0.278 C 
BRANCH  16  17
HETATM   17  C           1     -26.234  -7.911 -20.660  0.00  0.00     0.017 C 
HETATM   18  C           1     -27.401  -8.693 -21.248  0.00  0.00     0.012 C 
HETATM   19  C           1     -25.013  -8.071 -21.557  0.00  0.00     0.012 C 
ENDBRANCH  16  17
BRANCH  16  20
HETATM   20  N           1     -25.416  -5.599 -20.938  0.00  0.00    -0.066 N 
HETATM   21  H           1     -25.733  -4.630 -21.168  0.00  0.00     0.275 HD
HETATM   22  H           1     -24.941  -6.017 -21.769  0.00  0.00     0.275 HD
HETATM   23  H           1     -24.749  -5.567 -20.135  0.00  0.00     0.275 HD
ENDBRANCH  16  20
ENDBRANCH   4  16
TORSDOF 8
ENDMDL
MODEL 8
REMARK VINA RESULT:      -5.7      3.375      5.093
REMARK  8 active torsions:
REMARK  status: ('A' for Active; 'I' for Inactive)
REMARK    1  A    between atoms: N_2  and  C_17 
REMARK       I    between atoms: N_2  and  C_14 
REMARK       I    between atoms: N_4  and  C_8 
REMARK    2  A    between atoms: C_7  and  C_13 
REMARK    3  A    between atoms: C_8  and  C_21 
REMARK    4  A    between atoms: C_13  and  C_14 
REMARK    5  A    between atoms: C_13  and  N_16 
REMARK    6  A    between atoms: C_17  and  C_22 
REMARK    7  A    between atoms: C_17  and  C_20 
REMARK    8  A    between atoms: C_21  and  C_22 
ROOT
HETATM    1  N           1     -35.898  -1.551 -10.726  0.00  0.00    -0.345 N 
HETATM    2  O           1     -36.747  -3.600 -10.461  0.00  0.00    -0.271 OA
HETATM    3  H           1     -35.179  -0.967 -11.136  0.00  0.00     0.163 HD
HETATM    4  C           1     -35.890  -2.902 -10.950  0.00  0.00     0.249 C 
ENDROOT
BRANCH   1   5
HETATM    5  C           1     -36.933  -0.959  -9.903  0.00  0.00     0.186 C 
BRANCH   5   6
HETATM    6  C           1     -36.291  -0.219  -8.736  0.00  0.00     0.045 C 
BRANCH   6   7
HETATM    7  C           1     -37.198  -0.311  -7.516  0.00  0.00     0.105 C 
BRANCH   7   8
HETATM    8  C           1     -37.148   0.989  -6.752  0.00  0.00     0.215 C 
HETATM    9  N           1     -37.363   0.998  -5.400  0.00  0.00    -0.370 N 
HETATM   10  H           1     -37.556   0.133  -4.913  0.00  0.00     0.159 HD
HETATM   11  H           1     -37.330   1.870  -4.889  0.00  0.00     0.159 HD
HETATM   12  O           1     -36.918   2.022  -7.334  0.00  0.00    -0.274 OA
ENDBRANCH   7   8
ENDBRANCH   6   7
ENDBRANCH   5   6
BRANCH   5  13
HETATM   13  C           1     -37.740   0.011 -10.730  0.00  0.00     0.196 C 
HETATM   14  O           1     -38.075  -0.292 -11.896  0.00  0.00    -0.646 OA
HETATM   15  O           1     -38.073   1.116 -10.252  0.00  0.00    -0.646 OA
ENDBRANCH   5  13
ENDBRANCH   1   5
BRANCH   4  16
HETATM   16  C           1     -34.812  -3.519 -11.808  0.00  0.00     0.278 C 
BRANCH  16  17
HETATM   17  C           1     -33.716  -4.087 -10.915  0.00  0.00     0.017 C 
HETATM   18  C           1     -34.095  -5.494 -10.476  0.00  0.00     0.012 C 
HETATM   19  C           1     -32.405  -4.133 -11.690  0.00  0.00     0.012 C 
ENDBRANCH  16  17
BRANCH  16  20
HETATM   20  N           1     -34.230  -2.471 -12.708  0.00  0.00    -0.066 N 
HETATM   21  H           1     -33.206  -2.643 -12.825  0.00  0.00     0.275 HD
HETATM   22  H           1     -34.378  -1.527 -12.285  0.00  0.00     0.275 HD
HETATM   23  H           1     -34.699  -2.513 -13.640  0.00  0.00     0.275 HD
ENDBRANCH  16  20
ENDBRANCH   4  16
TORSDOF 8
ENDMDL
MODEL 9
REMARK VINA RESULT:      -5.7     12.818     16.290
REMARK  8 active torsions:
REMARK  status: ('A' for Active; 'I' for Inactive)
REMARK    1  A    between atoms: N_2  and  C_17 
REMARK       I    between atoms: N_2  and  C_14 
REMARK       I    between atoms: N_4  and  C_8 
REMARK    2  A    between atoms: C_7  and  C_13 
REMARK    3  A    between atoms: C_8  and  C_21 
REMARK    4  A    between atoms: C_13  and  C_14 
REMARK    5  A    between atoms: C_13  and  N_16 
REMARK    6  A    between atoms: C_17  and  C_22 
REMARK    7  A    between atoms: C_17  and  C_20 
REMARK    8  A    between atoms: C_21  and  C_22 
ROOT
HETATM    1  N           1     -22.259  -5.248  -7.413  0.00  0.00    -0.345 N 
HETATM    2  O           1     -21.828  -3.099  -7.838  0.00  0.00    -0.271 OA
HETATM    3  H           1     -22.749  -6.093  -7.679  0.00  0.00     0.163 HD
HETATM    4  C           1     -22.412  -4.107  -8.155  0.00  0.00     0.249 C 
ENDROOT
BRANCH   1   5
HETATM    5  C           1     -21.397  -5.245  -6.248  0.00  0.00     0.186 C 
BRANCH   5   6
HETATM    6  C           1     -21.896  -6.278  -5.246  0.00  0.00     0.045 C 
BRANCH   6   7
HETATM    7  C           1     -20.928  -6.356  -4.072  0.00  0.00     0.105 C 
BRANCH   7   8
HETATM    8  C           1     -21.672  -6.793  -2.835  0.00  0.00     0.215 C 
HETATM    9  N           1     -22.425  -5.889  -2.134  0.00  0.00    -0.370 N 
HETATM   10  H           1     -22.483  -4.929  -2.447  0.00  0.00     0.159 HD
HETATM   11  H           1     -22.924  -6.183  -1.304  0.00  0.00     0.159 HD
HETATM   12  O           1     -21.603  -7.939  -2.462  0.00  0.00    -0.274 OA
ENDBRANCH   7   8
ENDBRANCH   6   7
ENDBRANCH   5   6
BRANCH   5  13
HETATM   13  C           1     -19.988  -5.588  -6.665  0.00  0.00     0.196 C 
HETATM   14  O           1     -19.081  -4.734  -6.561  0.00  0.00    -0.646 OA
HETATM   15  O           1     -19.727  -6.725  -7.115  0.00  0.00    -0.646 OA
ENDBRANCH   5  13
ENDBRANCH   1   5
BRANCH   4  16
HETATM   16  C           1     -23.310  -4.110  -9.368  0.00  0.00     0.278 C 
BRANCH  16  17
HETATM   17  C           1     -22.592  -3.441 -10.533  0.00  0.00     0.017 C 
HETATM   18  C           1     -21.589  -4.413 -11.139  0.00  0.00     0.012 C 
HETATM   19  C           1     -23.611  -3.038 -11.592  0.00  0.00     0.012 C 
ENDBRANCH  16  17
BRANCH  16  20
HETATM   20  N           1     -24.569  -3.357  -9.058  0.00  0.00    -0.066 N 
HETATM   21  H           1     -25.353  -4.033  -8.919  0.00  0.00     0.275 HD
HETATM   22  H           1     -24.797  -2.717  -9.853  0.00  0.00     0.275 HD
HETATM   23  H           1     -24.434  -2.796  -8.188  0.00  0.00     0.275 HD
ENDBRANCH  16  20
ENDBRANCH   4  16
TORSDOF 8
ENDMDL
