MODEL 1
REMARK VINA RESULT:      -6.9      0.000      0.000
REMARK  10 active torsions:
REMARK  status: ('A' for Active; 'I' for Inactive)
REMARK       I    between atoms: N_1  and  C_11 
REMARK    1  A    between atoms: C_2  and  C_3 
REMARK    2  A    between atoms: C_3  and  C_4 
REMARK    3  A    between atoms: C_3  and  N_7 
REMARK    4  A    between atoms: C_4  and  C_14 
REMARK    5  A    between atoms: C_5  and  C_6 
REMARK    6  A    between atoms: C_5  and  C_10 
REMARK    7  A    between atoms: C_5  and  N_22 
REMARK       I    between atoms: C_6  and  N_7 
REMARK    8  A    between atoms: C_8  and  C_9 
REMARK       I    between atoms: C_8  and  N_18 
REMARK    9  A    between atoms: C_9  and  C_10 
REMARK   10  A    between atoms: C_11  and  C_14 
ROOT
HETATM    1  C           1     -34.709  -2.227 -11.955  0.00  0.00     0.249 C 
HETATM    2  N           1     -35.384  -1.521 -12.912  0.00  0.00    -0.345 N 
HETATM    3  H           1     -35.657  -1.972 -13.776  0.00  0.00     0.163 HD
HETATM    4  O           1     -34.384  -1.688 -10.922  0.00  0.00    -0.271 OA
ENDROOT
BRANCH   1   5
HETATM    5  C           1     -34.369  -3.679 -12.187  0.00  0.00     0.275 C 
BRANCH   5   6
HETATM    6  C           1     -33.410  -4.156 -11.104  0.00  0.00     0.052 C 
BRANCH   6   7
HETATM    7  C           1     -33.168  -5.651 -11.262  0.00  0.00     0.105 C 
BRANCH   7   8
HETATM    8  C           1     -34.437  -6.403 -10.942  0.00  0.00     0.215 C 
HETATM    9  N           1     -35.115  -7.055 -11.937  0.00  0.00    -0.370 N 
HETATM   10  H           1     -35.967  -7.559 -11.722  0.00  0.00     0.159 HD
HETATM   11  H           1     -34.767  -7.033 -12.886  0.00  0.00     0.159 HD
HETATM   12  O           1     -34.854  -6.429  -9.809  0.00  0.00    -0.274 OA
ENDBRANCH   7   8
ENDBRANCH   6   7
ENDBRANCH   5   6
BRANCH   5  13
HETATM   13  N           1     -33.721  -3.832 -13.531  0.00  0.00    -0.066 N 
HETATM   14  H           1     -32.951  -3.132 -13.628  0.00  0.00     0.275 HD
HETATM   15  H           1     -33.329  -4.795 -13.620  0.00  0.00     0.275 HD
HETATM   16  H           1     -34.433  -3.673 -14.280  0.00  0.00     0.275 HD
ENDBRANCH   5  13
ENDBRANCH   1   5
BRANCH   2  17
HETATM   17  C           1     -35.711  -0.126 -12.689  0.00  0.00     0.186 C 
BRANCH  17  18
HETATM   18  C           1     -37.144  -0.012 -12.229  0.00  0.00     0.196 C 
HETATM   19  O           1     -38.074  -0.374 -12.982  0.00  0.00    -0.646 OA
HETATM   20  O           1     -37.401   0.444 -11.094  0.00  0.00    -0.646 OA
ENDBRANCH  17  18
BRANCH  17  21
HETATM   21  C           1     -35.532   0.651 -13.986  0.00  0.00     0.045 C 
BRANCH  21  22
HETATM   22  C           1     -35.489  -0.319 -15.159  0.00  0.00     0.105 C 
BRANCH  22  23
HETATM   23  C           1     -36.667  -0.064 -16.068  0.00  0.00     0.215 C 
HETATM   24  N           1     -37.529   0.963 -15.798  0.00  0.00    -0.370 N 
HETATM   25  H           1     -37.378   1.552 -14.989  0.00  0.00     0.159 HD
HETATM   26  H           1     -38.319   1.135 -16.407  0.00  0.00     0.159 HD
HETATM   27  O           1     -36.847  -0.767 -17.033  0.00  0.00    -0.274 OA
ENDBRANCH  22  23
ENDBRANCH  21  22
ENDBRANCH  17  21
ENDBRANCH   2  17
TORSDOF 10
ENDMDL
MODEL 2
REMARK VINA RESULT:      -6.7      9.661     11.052
REMARK  10 active torsions:
REMARK  status: ('A' for Active; 'I' for Inactive)
REMARK       I    between atoms: N_1  and  C_11 
REMARK    1  A    between atoms: C_2  and  C_3 
REMARK    2  A    between atoms: C_3  and  C_4 
REMARK    3  A    between atoms: C_3  and  N_7 
REMARK    4  A    between atoms: C_4  and  C_14 
REMARK    5  A    between atoms: C_5  and  C_6 
REMARK    6  A    between atoms: C_5  and  C_10 
REMARK    7  A    between atoms: C_5  and  N_22 
REMARK       I    between atoms: C_6  and  N_7 
REMARK    8  A    between atoms: C_8  and  C_9 
REMARK       I    between atoms: C_8  and  N_18 
REMARK    9  A    between atoms: C_9  and  C_10 
REMARK   10  A    between atoms: C_11  and  C_14 
ROOT
HETATM    1  C           1     -27.228  -6.412 -17.359  0.00  0.00     0.249 C 
HETATM    2  N           1     -28.170  -6.830 -18.259  0.00  0.00    -0.345 N 
HETATM    3  H           1     -27.895  -7.082 -19.200  0.00  0.00     0.163 HD
HETATM    4  O           1     -27.557  -6.111 -16.235  0.00  0.00    -0.271 OA
ENDROOT
BRANCH   1   5
HETATM    5  C           1     -25.779  -6.325 -17.769  0.00  0.00     0.275 C 
BRANCH   5   6
HETATM    6  C           1     -25.645  -6.684 -19.244  0.00  0.00     0.052 C 
BRANCH   6   7
HETATM    7  C           1     -24.261  -7.265 -19.502  0.00  0.00     0.105 C 
BRANCH   7   8
HETATM    8  C           1     -24.293  -8.104 -20.755  0.00  0.00     0.215 C 
HETATM    9  N           1     -23.173  -8.785 -21.151  0.00  0.00    -0.370 N 
HETATM   10  H           1     -23.195  -9.347 -21.993  0.00  0.00     0.159 HD
HETATM   11  H           1     -22.325  -8.726 -20.605  0.00  0.00     0.159 HD
HETATM   12  O           1     -25.306  -8.175 -21.409  0.00  0.00    -0.274 OA
ENDBRANCH   7   8
ENDBRANCH   6   7
ENDBRANCH   5   6
BRANCH   5  13
HETATM   13  N           1     -24.968  -7.283 -16.947  0.00  0.00    -0.066 N 
HETATM   14  H           1     -25.461  -8.203 -16.897  0.00  0.00     0.275 HD
HETATM   15  H           1     -24.031  -7.413 -17.389  0.00  0.00     0.275 HD
HETATM   16  H           1     -24.849  -6.898 -15.982  0.00  0.00     0.275 HD
ENDBRANCH   5  13
ENDBRANCH   1   5
BRANCH   2  17
HETATM   17  C           1     -29.563  -6.914 -17.865  0.00  0.00     0.186 C 
BRANCH  17  18
HETATM   18  C           1     -30.269  -7.934 -18.724  0.00  0.00     0.196 C 
HETATM   19  O           1     -31.512  -7.890 -18.852  0.00  0.00    -0.646 OA
HETATM   20  O           1     -29.611  -8.822 -19.307  0.00  0.00    -0.646 OA
ENDBRANCH  17  18
BRANCH  17  21
HETATM   21  C           1     -30.224  -5.553 -18.044  0.00  0.00     0.045 C 
BRANCH  21  22
HETATM   22  C           1     -31.168  -5.289 -16.879  0.00  0.00     0.105 C 
BRANCH  22  23
HETATM   23  C           1     -31.914  -4.000 -17.117  0.00  0.00     0.215 C 
HETATM   24  N           1     -33.239  -3.904 -16.789  0.00  0.00    -0.370 N 
HETATM   25  H           1     -33.719  -4.699 -16.386  0.00  0.00     0.159 HD
HETATM   26  H           1     -33.740  -3.039 -16.949  0.00  0.00     0.159 HD
HETATM   27  O           1     -31.342  -3.051 -17.599  0.00  0.00    -0.274 OA
ENDBRANCH  22  23
ENDBRANCH  21  22
ENDBRANCH  17  21
ENDBRANCH   2  17
TORSDOF 10
ENDMDL
MODEL 3
REMARK VINA RESULT:      -6.6     12.359     14.212
REMARK  10 active torsions:
REMARK  status: ('A' for Active; 'I' for Inactive)
REMARK       I    between atoms: N_1  and  C_11 
REMARK    1  A    between atoms: C_2  and  C_3 
REMARK    2  A    between atoms: C_3  and  C_4 
REMARK    3  A    between atoms: C_3  and  N_7 
REMARK    4  A    between atoms: C_4  and  C_14 
REMARK    5  A    between atoms: C_5  and  C_6 
REMARK    6  A    between atoms: C_5  and  C_10 
REMARK    7  A    between atoms: C_5  and  N_22 
REMARK       I    between atoms: C_6  and  N_7 
REMARK    8  A    between atoms: C_8  and  C_9 
REMARK       I    between atoms: C_8  and  N_18 
REMARK    9  A    between atoms: C_9  and  C_10 
REMARK   10  A    between atoms: C_11  and  C_14 
ROOT
HETATM    1  C           1     -21.603  -4.510  -7.817  0.00  0.00     0.249 C 
HETATM    2  N           1     -22.118  -4.764  -9.059  0.00  0.00    -0.345 N 
HETATM    3  H           1     -22.073  -5.699  -9.444  0.00  0.00     0.163 HD
HETATM    4  O           1     -21.658  -3.393  -7.357  0.00  0.00    -0.271 OA
ENDROOT
BRANCH   1   5
HETATM    5  C           1     -20.966  -5.623  -7.022  0.00  0.00     0.275 C 
BRANCH   5   6
HETATM    6  C           1     -21.783  -5.880  -5.762  0.00  0.00     0.052 C 
BRANCH   6   7
HETATM    7  C           1     -21.037  -6.857  -4.864  0.00  0.00     0.105 C 
BRANCH   7   8
HETATM    8  C           1     -21.585  -6.771  -3.461  0.00  0.00     0.215 C 
HETATM    9  N           1     -21.073  -7.572  -2.475  0.00  0.00    -0.370 N 
HETATM   10  H           1     -21.441  -7.514  -1.534  0.00  0.00     0.159 HD
HETATM   11  H           1     -20.328  -8.222  -2.687  0.00  0.00     0.159 HD
HETATM   12  O           1     -22.475  -5.995  -3.207  0.00  0.00    -0.274 OA
ENDBRANCH   7   8
ENDBRANCH   6   7
ENDBRANCH   5   6
BRANCH   5  13
HETATM   13  N           1     -19.570  -5.229  -6.640  0.00  0.00    -0.066 N 
HETATM   14  H           1     -19.012  -6.086  -6.428  0.00  0.00     0.275 HD
HETATM   15  H           1     -19.127  -4.711  -7.431  0.00  0.00     0.275 HD
HETATM   16  H           1     -19.601  -4.615  -5.794  0.00  0.00     0.275 HD
ENDBRANCH   5  13
ENDBRANCH   1   5
BRANCH   2  17
HETATM   17  C           1     -22.731  -3.695  -9.823  0.00  0.00     0.186 C 
BRANCH  17  18
HETATM   18  C           1     -24.233  -3.828  -9.761  0.00  0.00     0.196 C 
HETATM   19  O           1     -24.938  -2.832  -9.492  0.00  0.00    -0.646 OA
HETATM   20  O           1     -24.771  -4.935  -9.978  0.00  0.00    -0.646 OA
ENDBRANCH  17  18
BRANCH  17  21
HETATM   21  C           1     -22.272  -3.779 -11.272  0.00  0.00     0.045 C 
BRANCH  21  22
HETATM   22  C           1     -22.644  -2.494 -12.000  0.00  0.00     0.105 C 
BRANCH  22  23
HETATM   23  C           1     -23.338  -2.832 -13.297  0.00  0.00     0.215 C 
HETATM   24  N           1     -22.601  -3.061 -14.427  0.00  0.00    -0.370 N 
HETATM   25  H           1     -21.591  -3.003 -14.394  0.00  0.00     0.159 HD
HETATM   26  H           1     -23.066  -3.287 -15.298  0.00  0.00     0.159 HD
HETATM   27  O           1     -24.543  -2.900 -13.337  0.00  0.00    -0.274 OA
ENDBRANCH  22  23
ENDBRANCH  21  22
ENDBRANCH  17  21
ENDBRANCH   2  17
TORSDOF 10
ENDMDL
MODEL 4
REMARK VINA RESULT:      -6.5      2.180      6.720
REMARK  10 active torsions:
REMARK  status: ('A' for Active; 'I' for Inactive)
REMARK       I    between atoms: N_1  and  C_11 
REMARK    1  A    between atoms: C_2  and  C_3 
REMARK    2  A    between atoms: C_3  and  C_4 
REMARK    3  A    between atoms: C_3  and  N_7 
REMARK    4  A    between atoms: C_4  and  C_14 
REMARK    5  A    between atoms: C_5  and  C_6 
REMARK    6  A    between atoms: C_5  and  C_10 
REMARK    7  A    between atoms: C_5  and  N_22 
REMARK       I    between atoms: C_6  and  N_7 
REMARK    8  A    between atoms: C_8  and  C_9 
REMARK       I    between atoms: C_8  and  N_18 
REMARK    9  A    between atoms: C_9  and  C_10 
REMARK   10  A    between atoms: C_11  and  C_14 
ROOT
HETATM    1  C           1     -35.415  -1.917 -10.624  0.00  0.00     0.249 C 
HETATM    2  N           1     -35.588  -3.103 -11.284  0.00  0.00    -0.345 N 
HETATM    3  H           1     -36.473  -3.310 -11.728  0.00  0.00     0.163 HD
HETATM    4  O           1     -34.357  -1.669 -10.094  0.00  0.00    -0.271 OA
ENDROOT
BRANCH   1   5
HETATM    5  C           1     -36.544  -0.919 -10.557  0.00  0.00     0.275 C 
BRANCH   5   6
HETATM    6  C           1     -36.765  -0.307 -11.934  0.00  0.00     0.052 C 
BRANCH   6   7
HETATM    7  C           1     -35.460   0.290 -12.441  0.00  0.00     0.105 C 
BRANCH   7   8
HETATM    8  C           1     -35.143  -0.274 -13.804  0.00  0.00     0.215 C 
HETATM    9  N           1     -34.665   0.547 -14.790  0.00  0.00    -0.370 N 
HETATM   10  H           1     -34.453   0.168 -15.705  0.00  0.00     0.159 HD
HETATM   11  H           1     -34.524   1.531 -14.606  0.00  0.00     0.159 HD
HETATM   12  O           1     -35.311  -1.449 -14.025  0.00  0.00    -0.274 OA
ENDBRANCH   7   8
ENDBRANCH   6   7
ENDBRANCH   5   6
BRANCH   5  13
HETATM   13  N           1     -36.196   0.165  -9.579  0.00  0.00    -0.066 N 
HETATM   14  H           1     -36.721   1.035  -9.822  0.00  0.00     0.275 HD
HETATM   15  H           1     -36.455  -0.141  -8.615  0.00  0.00     0.275 HD
HETATM   16  H           1     -35.169   0.354  -9.621  0.00  0.00     0.275 HD
ENDBRANCH   5  13
ENDBRANCH   1   5
BRANCH   2  17
HETATM   17  C           1     -34.503  -4.062 -11.349  0.00  0.00     0.186 C 
BRANCH  17  18
HETATM   18  C           1     -34.264  -4.455 -12.787  0.00  0.00     0.196 C 
HETATM   19  O           1     -35.085  -5.189 -13.379  0.00  0.00    -0.646 OA
HETATM   20  O           1     -33.245  -4.048 -13.385  0.00  0.00    -0.646 OA
ENDBRANCH  17  18
BRANCH  17  21
HETATM   21  C           1     -34.869  -5.298 -10.539  0.00  0.00     0.045 C 
BRANCH  21  22
HETATM   22  C           1     -33.794  -6.362 -10.720  0.00  0.00     0.105 C 
BRANCH  22  23
HETATM   23  C           1     -34.305  -7.687 -10.209  0.00  0.00     0.215 C 
HETATM   24  N           1     -33.532  -8.810 -10.326  0.00  0.00    -0.370 N 
HETATM   25  H           1     -32.617  -8.752 -10.755  0.00  0.00     0.159 HD
HETATM   26  H           1     -33.875  -9.699  -9.983  0.00  0.00     0.159 HD
HETATM   27  O           1     -35.397  -7.756  -9.697  0.00  0.00    -0.274 OA
ENDBRANCH  22  23
ENDBRANCH  21  22
ENDBRANCH  17  21
ENDBRANCH   2  17
TORSDOF 10
ENDMDL
MODEL 5
REMARK VINA RESULT:      -6.1      9.567     11.514
REMARK  10 active torsions:
REMARK  status: ('A' for Active; 'I' for Inactive)
REMARK       I    between atoms: N_1  and  C_11 
REMARK    1  A    between atoms: C_2  and  C_3 
REMARK    2  A    between atoms: C_3  and  C_4 
REMARK    3  A    between atoms: C_3  and  N_7 
REMARK    4  A    between atoms: C_4  and  C_14 
REMARK    5  A    between atoms: C_5  and  C_6 
REMARK    6  A    between atoms: C_5  and  C_10 
REMARK    7  A    between atoms: C_5  and  N_22 
REMARK       I    between atoms: C_6  and  N_7 
REMARK    8  A    between atoms: C_8  and  C_9 
REMARK       I    between atoms: C_8  and  N_18 
REMARK    9  A    between atoms: C_9  and  C_10 
REMARK   10  A    between atoms: C_11  and  C_14 
ROOT
HETATM    1  C           1     -29.464  -7.004 -18.101  0.00  0.00     0.249 C 
HETATM    2  N           1     -28.408  -6.269 -18.569  0.00  0.00    -0.345 N 
HETATM    3  H           1     -28.522  -5.281 -18.754  0.00  0.00     0.163 HD
HETATM    4  O           1     -29.328  -8.184 -17.879  0.00  0.00    -0.271 OA
ENDROOT
BRANCH   1   5
HETATM    5  C           1     -30.798  -6.340 -17.862  0.00  0.00     0.275 C 
BRANCH   5   6
HETATM    6  C           1     -30.665  -5.322 -16.736  0.00  0.00     0.052 C 
BRANCH   6   7
HETATM    7  C           1     -32.034  -4.736 -16.418  0.00  0.00     0.105 C 
BRANCH   7   8
HETATM    8  C           1     -32.269  -3.514 -17.270  0.00  0.00     0.215 C 
HETATM    9  N           1     -33.546  -3.077 -17.502  0.00  0.00    -0.370 N 
HETATM   10  H           1     -33.704  -2.257 -18.074  0.00  0.00     0.159 HD
HETATM   11  H           1     -34.332  -3.573 -17.104  0.00  0.00     0.159 HD
HETATM   12  O           1     -31.332  -2.920 -17.746  0.00  0.00    -0.274 OA
ENDBRANCH   7   8
ENDBRANCH   6   7
ENDBRANCH   5   6
BRANCH   5  13
HETATM   13  N           1     -31.811  -7.378 -17.479  0.00  0.00    -0.066 N 
HETATM   14  H           1     -31.752  -8.183 -18.142  0.00  0.00     0.275 HD
HETATM   15  H           1     -31.617  -7.712 -16.509  0.00  0.00     0.275 HD
HETATM   16  H           1     -32.769  -6.961 -17.521  0.00  0.00     0.275 HD
ENDBRANCH   5  13
ENDBRANCH   1   5
BRANCH   2  17
HETATM   17  C           1     -27.127  -6.906 -18.799  0.00  0.00     0.186 C 
BRANCH  17  18
HETATM   18  C           1     -26.118  -6.381 -17.806  0.00  0.00     0.196 C 
HETATM   19  O           1     -24.911  -6.683 -17.923  0.00  0.00    -0.646 OA
HETATM   20  O           1     -26.491  -5.646 -16.867  0.00  0.00    -0.646 OA
ENDBRANCH  17  18
BRANCH  17  21
HETATM   21  C           1     -26.654  -6.600 -20.213  0.00  0.00     0.045 C 
BRANCH  21  22
HETATM   22  C           1     -26.355  -7.902 -20.944  0.00  0.00     0.105 C 
BRANCH  22  23
HETATM   23  C           1     -24.887  -7.963 -21.287  0.00  0.00     0.215 C 
HETATM   24  N           1     -23.953  -8.031 -20.290  0.00  0.00    -0.370 N 
HETATM   25  H           1     -24.246  -8.041 -19.322  0.00  0.00     0.159 HD
HETATM   26  H           1     -22.968  -8.072 -20.521  0.00  0.00     0.159 HD
HETATM   27  O           1     -24.537  -7.951 -22.443  0.00  0.00    -0.274 OA
ENDBRANCH  22  23
ENDBRANCH  21  22
ENDBRANCH  17  21
ENDBRANCH   2  17
TORSDOF 10
ENDMDL
MODEL 6
REMARK VINA RESULT:      -6.0     14.779     17.615
REMARK  10 active torsions:
REMARK  status: ('A' for Active; 'I' for Inactive)
REMARK       I    between atoms: N_1  and  C_11 
REMARK    1  A    between atoms: C_2  and  C_3 
REMARK    2  A    between atoms: C_3  and  C_4 
REMARK    3  A    between atoms: C_3  and  N_7 
REMARK    4  A    between atoms: C_4  and  C_14 
REMARK    5  A    between atoms: C_5  and  C_6 
REMARK    6  A    between atoms: C_5  and  C_10 
REMARK    7  A    between atoms: C_5  and  N_22 
REMARK       I    between atoms: C_6  and  N_7 
REMARK    8  A    between atoms: C_8  and  C_9 
REMARK       I    between atoms: C_8  and  N_18 
REMARK    9  A    between atoms: C_9  and  C_10 
REMARK   10  A    between atoms: C_11  and  C_14 
ROOT
HETATM    1  C           1     -20.984  -5.232  -6.812  0.00  0.00     0.249 C 
HETATM    2  N           1     -21.025  -6.541  -6.416  0.00  0.00    -0.345 N 
HETATM    3  H           1     -21.358  -7.253  -7.053  0.00  0.00     0.163 HD
HETATM    4  O           1     -20.585  -4.382  -6.051  0.00  0.00    -0.271 OA
ENDROOT
BRANCH   1   5
HETATM    5  C           1     -21.439  -4.849  -8.199  0.00  0.00     0.275 C 
BRANCH   5   6
HETATM    6  C           1     -20.295  -4.169  -8.940  0.00  0.00     0.052 C 
BRANCH   6   7
HETATM    7  C           1     -20.200  -4.729 -10.352  0.00  0.00     0.105 C 
BRANCH   7   8
HETATM    8  C           1     -21.095  -3.934 -11.271  0.00  0.00     0.215 C 
HETATM    9  N           1     -22.096  -4.562 -11.963  0.00  0.00    -0.370 N 
HETATM   10  H           1     -22.696  -4.028 -12.579  0.00  0.00     0.159 HD
HETATM   11  H           1     -22.236  -5.558 -11.859  0.00  0.00     0.159 HD
HETATM   12  O           1     -20.929  -2.744 -11.395  0.00  0.00    -0.274 OA
ENDBRANCH   7   8
ENDBRANCH   6   7
ENDBRANCH   5   6
BRANCH   5  13
HETATM   13  N           1     -22.601  -3.906  -8.102  0.00  0.00    -0.066 N 
HETATM   14  H           1     -22.961  -3.896  -7.121  0.00  0.00     0.275 HD
HETATM   15  H           1     -22.293  -2.946  -8.370  0.00  0.00     0.275 HD
HETATM   16  H           1     -23.361  -4.222  -8.748  0.00  0.00     0.275 HD
ENDBRANCH   5  13
ENDBRANCH   1   5
BRANCH   2  17
HETATM   17  C           1     -20.588  -6.910  -5.084  0.00  0.00     0.186 C 
BRANCH  17  18
HETATM   18  C           1     -19.828  -8.212  -5.145  0.00  0.00     0.196 C 
HETATM   19  O           1     -19.968  -9.061  -4.237  0.00  0.00    -0.646 OA
HETATM   20  O           1     -19.059  -8.442  -6.102  0.00  0.00    -0.646 OA
ENDBRANCH  17  18
BRANCH  17  21
HETATM   21  C           1     -21.801  -7.071  -4.178  0.00  0.00     0.045 C 
BRANCH  21  22
HETATM   22  C           1     -21.645  -6.179  -2.954  0.00  0.00     0.105 C 
BRANCH  22  23
HETATM   23  C           1     -21.805  -7.007  -1.703  0.00  0.00     0.215 C 
HETATM   24  N           1     -20.951  -8.047  -1.456  0.00  0.00    -0.370 N 
HETATM   25  H           1     -20.211  -8.261  -2.113  0.00  0.00     0.159 HD
HETATM   26  H           1     -21.058  -8.602  -0.616  0.00  0.00     0.159 HD
HETATM   27  O           1     -22.688  -6.751  -0.918  0.00  0.00    -0.274 OA
ENDBRANCH  22  23
ENDBRANCH  21  22
ENDBRANCH  17  21
ENDBRANCH   2  17
TORSDOF 10
ENDMDL
MODEL 7
REMARK VINA RESULT:      -6.0      1.550      6.635
REMARK  10 active torsions:
REMARK  status: ('A' for Active; 'I' for Inactive)
REMARK       I    between atoms: N_1  and  C_11 
REMARK    1  A    between atoms: C_2  and  C_3 
REMARK    2  A    between atoms: C_3  and  C_4 
REMARK    3  A    between atoms: C_3  and  N_7 
REMARK    4  A    between atoms: C_4  and  C_14 
REMARK    5  A    between atoms: C_5  and  C_6 
REMARK    6  A    between atoms: C_5  and  C_10 
REMARK    7  A    between atoms: C_5  and  N_22 
REMARK       I    between atoms: C_6  and  N_7 
REMARK    8  A    between atoms: C_8  and  C_9 
REMARK       I    between atoms: C_8  and  N_18 
REMARK    9  A    between atoms: C_9  and  C_10 
REMARK   10  A    between atoms: C_11  and  C_14 
ROOT
HETATM    1  C           1     -35.867  -1.194 -12.225  0.00  0.00     0.249 C 
HETATM    2  N           1     -35.293  -2.426 -12.387  0.00  0.00    -0.345 N 
HETATM    3  H           1     -35.251  -2.848 -13.306  0.00  0.00     0.163 HD
HETATM    4  O           1     -35.917  -0.690 -11.128  0.00  0.00    -0.271 OA
ENDROOT
BRANCH   1   5
HETATM    5  C           1     -36.437  -0.465 -13.417  0.00  0.00     0.275 C 
BRANCH   5   6
HETATM    6  C           1     -35.451   0.598 -13.883  0.00  0.00     0.052 C 
BRANCH   6   7
HETATM    7  C           1     -35.682   0.895 -15.358  0.00  0.00     0.105 C 
BRANCH   7   8
HETATM    8  C           1     -35.783  -0.401 -16.123  0.00  0.00     0.215 C 
HETATM    9  N           1     -36.947  -0.727 -16.767  0.00  0.00    -0.370 N 
HETATM   10  H           1     -37.014  -1.597 -17.280  0.00  0.00     0.159 HD
HETATM   11  H           1     -37.739  -0.099 -16.731  0.00  0.00     0.159 HD
HETATM   12  O           1     -34.838  -1.152 -16.167  0.00  0.00    -0.274 OA
ENDBRANCH   7   8
ENDBRANCH   6   7
ENDBRANCH   5   6
BRANCH   5  13
HETATM   13  N           1     -37.731   0.188 -13.031  0.00  0.00    -0.066 N 
HETATM   14  H           1     -38.524  -0.460 -13.237  0.00  0.00     0.275 HD
HETATM   15  H           1     -37.718   0.410 -12.011  0.00  0.00     0.275 HD
HETATM   16  H           1     -37.851   1.071 -13.578  0.00  0.00     0.275 HD
ENDBRANCH   5  13
ENDBRANCH   1   5
BRANCH   2  17
HETATM   17  C           1     -34.745  -3.126 -11.242  0.00  0.00     0.186 C 
BRANCH  17  18
HETATM   18  C           1     -33.293  -2.752 -11.071  0.00  0.00     0.196 C 
HETATM   19  O           1     -32.981  -1.759 -10.379  0.00  0.00    -0.646 OA
HETATM   20  O           1     -32.403  -3.435 -11.621  0.00  0.00    -0.646 OA
ENDBRANCH  17  18
BRANCH  17  21
HETATM   21  C           1     -34.860  -4.629 -11.463  0.00  0.00     0.045 C 
BRANCH  21  22
HETATM   22  C           1     -34.510  -5.361 -10.175  0.00  0.00     0.105 C 
BRANCH  22  23
HETATM   23  C           1     -34.739  -6.841 -10.358  0.00  0.00     0.215 C 
HETATM   24  N           1     -35.095  -7.332 -11.584  0.00  0.00    -0.370 N 
HETATM   25  H           1     -35.205  -6.702 -12.369  0.00  0.00     0.159 HD
HETATM   26  H           1     -35.249  -8.325 -11.707  0.00  0.00     0.159 HD
HETATM   27  O           1     -34.608  -7.593  -9.421  0.00  0.00    -0.274 OA
ENDBRANCH  22  23
ENDBRANCH  21  22
ENDBRANCH  17  21
ENDBRANCH   2  17
TORSDOF 10
ENDMDL
MODEL 8
REMARK VINA RESULT:      -6.0     13.755     17.217
REMARK  10 active torsions:
REMARK  status: ('A' for Active; 'I' for Inactive)
REMARK       I    between atoms: N_1  and  C_11 
REMARK    1  A    between atoms: C_2  and  C_3 
REMARK    2  A    between atoms: C_3  and  C_4 
REMARK    3  A    between atoms: C_3  and  N_7 
REMARK    4  A    between atoms: C_4  and  C_14 
REMARK    5  A    between atoms: C_5  and  C_6 
REMARK    6  A    between atoms: C_5  and  C_10 
REMARK    7  A    between atoms: C_5  and  N_22 
REMARK       I    between atoms: C_6  and  N_7 
REMARK    8  A    between atoms: C_8  and  C_9 
REMARK       I    between atoms: C_8  and  N_18 
REMARK    9  A    between atoms: C_9  and  C_10 
REMARK   10  A    between atoms: C_11  and  C_14 
ROOT
HETATM    1  C           1     -20.641  -4.780  -6.256  0.00  0.00     0.249 C 
HETATM    2  N           1     -21.416  -5.822  -5.824  0.00  0.00    -0.345 N 
HETATM    3  H           1     -22.232  -6.100  -6.355  0.00  0.00     0.163 HD
HETATM    4  O           1     -19.666  -4.449  -5.623  0.00  0.00    -0.271 OA
ENDROOT
BRANCH   1   5
HETATM    5  C           1     -21.003  -4.045  -7.523  0.00  0.00     0.275 C 
BRANCH   5   6
HETATM    6  C           1     -22.453  -4.338  -7.885  0.00  0.00     0.052 C 
BRANCH   6   7
HETATM    7  C           1     -22.584  -4.469  -9.396  0.00  0.00     0.105 C 
BRANCH   7   8
HETATM    8  C           1     -23.692  -3.570  -9.886  0.00  0.00     0.215 C 
HETATM    9  N           1     -24.702  -3.204  -9.037  0.00  0.00    -0.370 N 
HETATM   10  H           1     -25.445  -2.601  -9.367  0.00  0.00     0.159 HD
HETATM   11  H           1     -24.706  -3.536  -8.082  0.00  0.00     0.159 HD
HETATM   12  O           1     -23.687  -3.173 -11.027  0.00  0.00    -0.274 OA
ENDBRANCH   7   8
ENDBRANCH   6   7
ENDBRANCH   5   6
BRANCH   5  13
HETATM   13  N           1     -20.109  -4.499  -8.638  0.00  0.00    -0.066 N 
HETATM   14  H           1     -20.612  -4.406  -9.549  0.00  0.00     0.275 HD
HETATM   15  H           1     -19.247  -3.910  -8.654  0.00  0.00     0.275 HD
HETATM   16  H           1     -19.845  -5.500  -8.487  0.00  0.00     0.275 HD
ENDBRANCH   5  13
ENDBRANCH   1   5
BRANCH   2  17
HETATM   17  C           1     -21.068  -6.529  -4.608  0.00  0.00     0.186 C 
BRANCH  17  18
HETATM   18  C           1     -20.653  -7.940  -4.946  0.00  0.00     0.196 C 
HETATM   19  O           1     -19.871  -8.559  -4.193  0.00  0.00    -0.646 OA
HETATM   20  O           1     -21.090  -8.489  -5.980  0.00  0.00    -0.646 OA
ENDBRANCH  17  18
BRANCH  17  21
HETATM   21  C           1     -22.274  -6.564  -3.678  0.00  0.00     0.045 C 
BRANCH  21  22
HETATM   22  C           1     -21.867  -6.068  -2.297  0.00  0.00     0.105 C 
BRANCH  22  23
HETATM   23  C           1     -22.030  -7.182  -1.293  0.00  0.00     0.215 C 
HETATM   24  N           1     -21.229  -8.289  -1.362  0.00  0.00    -0.370 N 
HETATM   25  H           1     -20.526  -8.360  -2.087  0.00  0.00     0.159 HD
HETATM   26  H           1     -21.338  -9.036  -0.688  0.00  0.00     0.159 HD
HETATM   27  O           1     -22.869  -7.097  -0.428  0.00  0.00    -0.274 OA
ENDBRANCH  22  23
ENDBRANCH  21  22
ENDBRANCH  17  21
ENDBRANCH   2  17
TORSDOF 10
ENDMDL
MODEL 9
REMARK VINA RESULT:      -5.9     14.416     17.818
REMARK  10 active torsions:
REMARK  status: ('A' for Active; 'I' for Inactive)
REMARK       I    between atoms: N_1  and  C_11 
REMARK    1  A    between atoms: C_2  and  C_3 
REMARK    2  A    between atoms: C_3  and  C_4 
REMARK    3  A    between atoms: C_3  and  N_7 
REMARK    4  A    between atoms: C_4  and  C_14 
REMARK    5  A    between atoms: C_5  and  C_6 
REMARK    6  A    between atoms: C_5  and  C_10 
REMARK    7  A    between atoms: C_5  and  N_22 
REMARK       I    between atoms: C_6  and  N_7 
REMARK    8  A    between atoms: C_8  and  C_9 
REMARK       I    between atoms: C_8  and  N_18 
REMARK    9  A    between atoms: C_9  and  C_10 
REMARK   10  A    between atoms: C_11  and  C_14 
ROOT
HETATM    1  C           1     -21.371  -5.595  -5.725  0.00  0.00     0.249 C 
HETATM    2  N           1     -20.786  -6.497  -4.879  0.00  0.00    -0.345 N 
HETATM    3  H           1     -19.778  -6.556  -4.820  0.00  0.00     0.163 HD
HETATM    4  O           1     -22.576  -5.524  -5.796  0.00  0.00    -0.271 OA
ENDROOT
BRANCH   1   5
HETATM    5  C           1     -20.512  -4.688  -6.572  0.00  0.00     0.275 C 
BRANCH   5   6
HETATM    6  C           1     -21.385  -3.624  -7.225  0.00  0.00     0.052 C 
BRANCH   6   7
HETATM    7  C           1     -21.540  -3.933  -8.707  0.00  0.00     0.105 C 
BRANCH   7   8
HETATM    8  C           1     -22.998  -3.853  -9.088  0.00  0.00     0.215 C 
HETATM    9  N           1     -23.965  -4.028  -8.135  0.00  0.00    -0.370 N 
HETATM   10  H           1     -24.943  -3.974  -8.391  0.00  0.00     0.159 HD
HETATM   11  H           1     -23.703  -4.212  -7.176  0.00  0.00     0.159 HD
HETATM   12  O           1     -23.312  -3.633 -10.234  0.00  0.00    -0.274 OA
ENDBRANCH   7   8
ENDBRANCH   6   7
ENDBRANCH   5   6
BRANCH   5  13
HETATM   13  N           1     -19.830  -5.495  -7.636  0.00  0.00    -0.066 N 
HETATM   14  H           1     -19.192  -6.192  -7.190  0.00  0.00     0.275 HD
HETATM   15  H           1     -20.547  -5.996  -8.206  0.00  0.00     0.275 HD
HETATM   16  H           1     -19.275  -4.859  -8.253  0.00  0.00     0.275 HD
ENDBRANCH   5  13
ENDBRANCH   1   5
BRANCH   2  17
HETATM   17  C           1     -21.612  -7.368  -4.066  0.00  0.00     0.186 C 
BRANCH  17  18
HETATM   18  C           1     -21.632  -6.860  -2.645  0.00  0.00     0.196 C 
HETATM   19  O           1     -22.392  -5.919  -2.328  0.00  0.00    -0.646 OA
HETATM   20  O           1     -20.888  -7.379  -1.785  0.00  0.00    -0.646 OA
ENDBRANCH  17  18
BRANCH  17  21
HETATM   21  C           1     -21.040  -8.779  -4.092  0.00  0.00     0.045 C 
BRANCH  21  22
HETATM   22  C           1     -19.738  -8.786  -4.881  0.00  0.00     0.105 C 
BRANCH  22  23
HETATM   23  C           1     -18.613  -9.258  -3.993  0.00  0.00     0.215 C 
HETATM   24  N           1     -18.772  -9.271  -2.635  0.00  0.00    -0.370 N 
HETATM   25  H           1     -19.645  -8.963  -2.225  0.00  0.00     0.159 HD
HETATM   26  H           1     -18.017  -9.587  -2.039  0.00  0.00     0.159 HD
HETATM   27  O           1     -17.571  -9.625  -4.483  0.00  0.00    -0.274 OA
ENDBRANCH  22  23
ENDBRANCH  21  22
ENDBRANCH  17  21
ENDBRANCH   2  17
TORSDOF 10
ENDMDL
