MODEL 1
REMARK VINA RESULT:      -7.9      0.000      0.000
REMARK  8 active torsions:
REMARK  status: ('A' for Active; 'I' for Inactive)
REMARK    1  A    between atoms: C_2  and  C_3 
REMARK    2  A    between atoms: C_2  and  C_22 
REMARK    3  A    between atoms: C_2  and  N_23 
REMARK    4  A    between atoms: C_3  and  O_26 
REMARK    5  A    between atoms: C_4  and  C_5 
REMARK    6  A    between atoms: C_5  and  C_18 
REMARK    7  A    between atoms: N_11  and  C_18 
REMARK    8  A    between atoms: C_18  and  C_21 
REMARK       I    between atoms: C_21  and  N_23 
ROOT
HETATM    1  C           1     -21.124  -5.837  -6.879  0.00  0.00     0.278 C 
ENDROOT
BRANCH   1   2
HETATM    2  C           1     -21.091  -5.582  -5.378  0.00  0.00     0.083 C 
BRANCH   2   3
HETATM    3  C           1     -21.154  -6.887  -4.648  0.00  0.00    -0.028 A 
HETATM    4  C           1     -20.847  -8.124  -5.170  0.00  0.00     0.096 A 
HETATM    5  N           1     -21.033  -9.053  -4.180  0.00  0.00    -0.365 N 
HETATM    6  C           1     -21.455  -8.438  -3.023  0.00  0.00     0.042 A 
HETATM    7  H           1     -20.875 -10.085  -4.289  0.00  0.00     0.165 HD
HETATM    8  C           1     -21.767  -8.983  -1.771  0.00  0.00     0.030 A 
HETATM    9  C           1     -21.539  -7.072  -3.291  0.00  0.00    -0.002 A 
HETATM   10  C           1     -22.175  -8.101  -0.766  0.00  0.00     0.002 A 
HETATM   11  C           1     -22.268  -6.732  -1.006  0.00  0.00     0.001 A 
HETATM   12  C           1     -21.954  -6.204  -2.264  0.00  0.00     0.014 A 
ENDBRANCH   2   3
ENDBRANCH   1   2
BRANCH   1  13
HETATM   13  N           1     -19.733  -6.114  -7.369  0.00  0.00    -0.066 N 
HETATM   14  H           1     -19.444  -7.074  -7.074  0.00  0.00     0.275 HD
HETATM   15  H           1     -19.712  -6.049  -8.412  0.00  0.00     0.275 HD
HETATM   16  H           1     -19.075  -5.412  -6.963  0.00  0.00     0.275 HD
ENDBRANCH   1  13
BRANCH   1  17
HETATM   17  C           1     -21.671  -4.620  -7.584  0.00  0.00     0.249 C 
HETATM   18  O           1     -21.553  -3.527  -7.085  0.00  0.00    -0.271 OA
HETATM   19  N           1     -22.303  -4.756  -8.792  0.00  0.00    -0.343 N 
HETATM   20  H           1     -22.402  -5.671  -9.212  0.00  0.00     0.163 HD
BRANCH  19  21
HETATM   21  C           1     -22.829  -3.587  -9.469  0.00  0.00     0.209 C 
BRANCH  21  22
HETATM   22  C           1     -22.136  -3.424 -10.816  0.00  0.00     0.200 C 
BRANCH  22  23
HETATM   23  O           1     -23.031  -2.862 -11.738  0.00  0.00    -0.398 OA
HETATM   24  H           1     -22.544  -2.232 -12.243  0.00  0.00     0.209 HD
ENDBRANCH  22  23
ENDBRANCH  21  22
BRANCH  21  25
HETATM   25  C           1     -24.313  -3.757  -9.686  0.00  0.00     0.198 C 
HETATM   26  O           1     -24.775  -4.874  -9.999  0.00  0.00    -0.646 OA
HETATM   27  O           1     -25.080  -2.778  -9.553  0.00  0.00    -0.646 OA
ENDBRANCH  21  25
ENDBRANCH  19  21
ENDBRANCH   1  17
TORSDOF 8
ENDMDL
MODEL 2
REMARK VINA RESULT:      -7.4      3.056      7.752
REMARK  8 active torsions:
REMARK  status: ('A' for Active; 'I' for Inactive)
REMARK    1  A    between atoms: C_2  and  C_3 
REMARK    2  A    between atoms: C_2  and  C_22 
REMARK    3  A    between atoms: C_2  and  N_23 
REMARK    4  A    between atoms: C_3  and  O_26 
REMARK    5  A    between atoms: C_4  and  C_5 
REMARK    6  A    between atoms: C_5  and  C_18 
REMARK    7  A    between atoms: N_11  and  C_18 
REMARK    8  A    between atoms: C_18  and  C_21 
REMARK       I    between atoms: C_21  and  N_23 
ROOT
HETATM    1  C           1     -22.230  -5.153  -6.818  0.00  0.00     0.278 C 
ENDROOT
BRANCH   1   2
HETATM    2  C           1     -21.628  -3.847  -7.320  0.00  0.00     0.083 C 
BRANCH   2   3
HETATM    3  C           1     -21.391  -3.939  -8.794  0.00  0.00    -0.028 A 
HETATM    4  C           1     -20.194  -4.233  -9.407  0.00  0.00     0.096 A 
HETATM    5  N           1     -20.402  -4.218 -10.761  0.00  0.00    -0.365 N 
HETATM    6  C           1     -21.717  -3.920 -11.038  0.00  0.00     0.042 A 
HETATM    7  H           1     -19.664  -4.409 -11.483  0.00  0.00     0.165 HD
HETATM    8  C           1     -22.378  -3.796 -12.266  0.00  0.00     0.030 A 
HETATM    9  C           1     -22.363  -3.739  -9.814  0.00  0.00    -0.002 A 
HETATM   10  C           1     -23.739  -3.479 -12.239  0.00  0.00     0.002 A 
HETATM   11  C           1     -24.409  -3.293 -11.032  0.00  0.00     0.001 A 
HETATM   12  C           1     -23.733  -3.419  -9.812  0.00  0.00     0.014 A 
ENDBRANCH   2   3
ENDBRANCH   1   2
BRANCH   1  13
HETATM   13  N           1     -23.621  -4.902  -6.316  0.00  0.00    -0.066 N 
HETATM   14  H           1     -23.956  -3.976  -6.665  0.00  0.00     0.275 HD
HETATM   15  H           1     -24.258  -5.655  -6.662  0.00  0.00     0.275 HD
HETATM   16  H           1     -23.619  -4.900  -5.271  0.00  0.00     0.275 HD
ENDBRANCH   1  13
BRANCH   1  17
HETATM   17  C           1     -21.382  -5.701  -5.697  0.00  0.00     0.249 C 
HETATM   18  O           1     -20.183  -5.557  -5.720  0.00  0.00    -0.271 OA
HETATM   19  N           1     -21.973  -6.361  -4.652  0.00  0.00    -0.343 N 
HETATM   20  H           1     -22.977  -6.480  -4.632  0.00  0.00     0.163 HD
BRANCH  19  21
HETATM   21  C           1     -21.158  -6.886  -3.574  0.00  0.00     0.209 C 
BRANCH  21  22
HETATM   22  C           1     -21.435  -6.103  -2.298  0.00  0.00     0.200 C 
BRANCH  22  23
HETATM   23  O           1     -22.810  -5.855  -2.189  0.00  0.00    -0.398 OA
HETATM   24  H           1     -22.944  -5.410  -1.369  0.00  0.00     0.209 HD
ENDBRANCH  22  23
ENDBRANCH  21  22
BRANCH  21  25
HETATM   25  C           1     -21.496  -8.341  -3.353  0.00  0.00     0.198 C 
HETATM   26  O           1     -21.569  -9.120  -4.327  0.00  0.00    -0.646 OA
HETATM   27  O           1     -21.703  -8.765  -2.195  0.00  0.00    -0.646 OA
ENDBRANCH  21  25
ENDBRANCH  19  21
ENDBRANCH   1  17
TORSDOF 8
ENDMDL
MODEL 3
REMARK VINA RESULT:      -7.3      3.273      7.989
REMARK  8 active torsions:
REMARK  status: ('A' for Active; 'I' for Inactive)
REMARK    1  A    between atoms: C_2  and  C_3 
REMARK    2  A    between atoms: C_2  and  C_22 
REMARK    3  A    between atoms: C_2  and  N_23 
REMARK    4  A    between atoms: C_3  and  O_26 
REMARK    5  A    between atoms: C_4  and  C_5 
REMARK    6  A    between atoms: C_5  and  C_18 
REMARK    7  A    between atoms: N_11  and  C_18 
REMARK    8  A    between atoms: C_18  and  C_21 
REMARK       I    between atoms: C_21  and  N_23 
ROOT
HETATM    1  C           1     -21.130  -5.417  -6.027  0.00  0.00     0.278 C 
ENDROOT
BRANCH   1   2
HETATM    2  C           1     -20.870  -5.378  -7.527  0.00  0.00     0.083 C 
BRANCH   2   3
HETATM    3  C           1     -22.011  -4.697  -8.215  0.00  0.00    -0.028 A 
HETATM    4  C           1     -23.224  -4.377  -7.650  0.00  0.00     0.096 A 
HETATM    5  N           1     -23.985  -3.766  -8.611  0.00  0.00    -0.365 N 
HETATM    6  C           1     -23.284  -3.683  -9.793  0.00  0.00     0.042 A 
HETATM    7  H           1     -24.963  -3.410  -8.466  0.00  0.00     0.165 HD
HETATM    8  C           1     -23.657  -3.145 -11.031  0.00  0.00     0.030 A 
HETATM    9  C           1     -22.035  -4.264  -9.570  0.00  0.00    -0.002 A 
HETATM   10  C           1     -22.723  -3.204 -12.069  0.00  0.00     0.002 A 
HETATM   11  C           1     -21.468  -3.778 -11.874  0.00  0.00     0.001 A 
HETATM   12  C           1     -21.111  -4.312 -10.630  0.00  0.00     0.014 A 
ENDBRANCH   2   3
ENDBRANCH   1   2
BRANCH   1  13
HETATM   13  N           1     -20.079  -4.614  -5.317  0.00  0.00    -0.066 N 
HETATM   14  H           1     -19.441  -5.257  -4.797  0.00  0.00     0.275 HD
HETATM   15  H           1     -19.529  -4.067  -6.016  0.00  0.00     0.275 HD
HETATM   16  H           1     -20.538  -3.959  -4.644  0.00  0.00     0.275 HD
ENDBRANCH   1  13
BRANCH   1  17
HETATM   17  C           1     -21.081  -6.846  -5.544  0.00  0.00     0.249 C 
HETATM   18  O           1     -21.240  -7.754  -6.325  0.00  0.00    -0.271 OA
HETATM   19  N           1     -20.857  -7.114  -4.220  0.00  0.00    -0.343 N 
HETATM   20  H           1     -20.722  -6.354  -3.566  0.00  0.00     0.163 HD
BRANCH  19  21
HETATM   21  C           1     -20.810  -8.486  -3.757  0.00  0.00     0.209 C 
BRANCH  21  22
HETATM   22  C           1     -19.366  -8.970  -3.741  0.00  0.00     0.200 C 
BRANCH  22  23
HETATM   23  O           1     -18.998  -9.303  -2.430  0.00  0.00    -0.398 OA
HETATM   24  H           1     -19.422 -10.120  -2.226  0.00  0.00     0.209 HD
ENDBRANCH  22  23
ENDBRANCH  21  22
BRANCH  21  25
HETATM   25  C           1     -21.381  -8.565  -2.361  0.00  0.00     0.198 C 
HETATM   26  O           1     -21.910  -9.624  -1.962  0.00  0.00    -0.646 OA
HETATM   27  O           1     -21.324  -7.570  -1.606  0.00  0.00    -0.646 OA
ENDBRANCH  21  25
ENDBRANCH  19  21
ENDBRANCH   1  17
TORSDOF 8
ENDMDL
MODEL 4
REMARK VINA RESULT:      -7.2      3.536      7.839
REMARK  8 active torsions:
REMARK  status: ('A' for Active; 'I' for Inactive)
REMARK    1  A    between atoms: C_2  and  C_3 
REMARK    2  A    between atoms: C_2  and  C_22 
REMARK    3  A    between atoms: C_2  and  N_23 
REMARK    4  A    between atoms: C_3  and  O_26 
REMARK    5  A    between atoms: C_4  and  C_5 
REMARK    6  A    between atoms: C_5  and  C_18 
REMARK    7  A    between atoms: N_11  and  C_18 
REMARK    8  A    between atoms: C_18  and  C_21 
REMARK       I    between atoms: C_21  and  N_23 
ROOT
HETATM    1  C           1     -20.802  -5.450  -6.112  0.00  0.00     0.278 C 
ENDROOT
BRANCH   1   2
HETATM    2  C           1     -20.591  -5.095  -7.577  0.00  0.00     0.083 C 
BRANCH   2   3
HETATM    3  C           1     -21.867  -4.565  -8.152  0.00  0.00    -0.028 A 
HETATM    4  C           1     -23.063  -4.429  -7.483  0.00  0.00     0.096 A 
HETATM    5  N           1     -23.977  -3.910  -8.362  0.00  0.00    -0.365 N 
HETATM    6  C           1     -23.393  -3.706  -9.592  0.00  0.00     0.042 A 
HETATM    7  H           1     -24.979  -3.697  -8.130  0.00  0.00     0.165 HD
HETATM    8  C           1     -23.937  -3.200 -10.779  0.00  0.00     0.030 A 
HETATM    9  C           1     -22.062  -4.112  -9.486  0.00  0.00    -0.002 A 
HETATM   10  C           1     -23.091  -3.107 -11.888  0.00  0.00     0.002 A 
HETATM   11  C           1     -21.758  -3.504 -11.811  0.00  0.00     0.001 A 
HETATM   12  C           1     -21.231  -4.009 -10.617  0.00  0.00     0.014 A 
ENDBRANCH   2   3
ENDBRANCH   1   2
BRANCH   1  13
HETATM   13  N           1     -20.114  -4.434  -5.248  0.00  0.00    -0.066 N 
HETATM   14  H           1     -20.168  -3.495  -5.702  0.00  0.00     0.275 HD
HETATM   15  H           1     -20.582  -4.397  -4.314  0.00  0.00     0.275 HD
HETATM   16  H           1     -19.111  -4.704  -5.125  0.00  0.00     0.275 HD
ENDBRANCH   1  13
BRANCH   1  17
HETATM   17  C           1     -20.224  -6.817  -5.837  0.00  0.00     0.249 C 
HETATM   18  O           1     -19.405  -7.289  -6.588  0.00  0.00    -0.271 OA
HETATM   19  N           1     -20.629  -7.522  -4.735  0.00  0.00    -0.343 N 
HETATM   20  H           1     -21.314  -7.126  -4.104  0.00  0.00     0.163 HD
BRANCH  19  21
HETATM   21  C           1     -20.074  -8.834  -4.471  0.00  0.00     0.209 C 
BRANCH  21  22
HETATM   22  C           1     -19.781  -8.975  -2.982  0.00  0.00     0.200 C 
BRANCH  22  23
HETATM   23  O           1     -19.484 -10.313  -2.688  0.00  0.00    -0.398 OA
HETATM   24  H           1     -18.617 -10.479  -3.018  0.00  0.00     0.209 HD
ENDBRANCH  22  23
ENDBRANCH  21  22
BRANCH  21  25
HETATM   25  C           1     -21.066  -9.893  -4.889  0.00  0.00     0.198 C 
HETATM   26  O           1     -21.978 -10.238  -4.108  0.00  0.00    -0.646 OA
HETATM   27  O           1     -20.973 -10.424  -6.017  0.00  0.00    -0.646 OA
ENDBRANCH  21  25
ENDBRANCH  19  21
ENDBRANCH   1  17
TORSDOF 8
ENDMDL
MODEL 5
REMARK VINA RESULT:      -6.9      3.721      7.866
REMARK  8 active torsions:
REMARK  status: ('A' for Active; 'I' for Inactive)
REMARK    1  A    between atoms: C_2  and  C_3 
REMARK    2  A    between atoms: C_2  and  C_22 
REMARK    3  A    between atoms: C_2  and  N_23 
REMARK    4  A    between atoms: C_3  and  O_26 
REMARK    5  A    between atoms: C_4  and  C_5 
REMARK    6  A    between atoms: C_5  and  C_18 
REMARK    7  A    between atoms: N_11  and  C_18 
REMARK    8  A    between atoms: C_18  and  C_21 
REMARK       I    between atoms: C_21  and  N_23 
ROOT
HETATM    1  C           1     -21.488  -6.376  -5.329  0.00  0.00     0.278 C 
ENDROOT
BRANCH   1   2
HETATM    2  C           1     -20.760  -5.459  -6.304  0.00  0.00     0.083 C 
BRANCH   2   3
HETATM    3  C           1     -21.744  -4.872  -7.267  0.00  0.00    -0.028 A 
HETATM    4  C           1     -23.067  -4.594  -7.007  0.00  0.00     0.096 A 
HETATM    5  N           1     -23.616  -4.067  -8.146  0.00  0.00    -0.365 N 
HETATM    6  C           1     -22.669  -3.997  -9.143  0.00  0.00     0.042 A 
HETATM    7  H           1     -24.615  -3.759  -8.244  0.00  0.00     0.165 HD
HETATM    8  C           1     -22.774  -3.534 -10.460  0.00  0.00     0.030 A 
HETATM    9  C           1     -21.479  -4.499  -8.614  0.00  0.00    -0.002 A 
HETATM   10  C           1     -21.626  -3.586 -11.257  0.00  0.00     0.002 A 
HETATM   11  C           1     -20.425  -4.082 -10.755  0.00  0.00     0.001 A 
HETATM   12  C           1     -20.337  -4.542  -9.436  0.00  0.00     0.014 A 
ENDBRANCH   2   3
ENDBRANCH   1   2
BRANCH   1  13
HETATM   13  N           1     -21.299  -5.867  -3.931  0.00  0.00    -0.066 N 
HETATM   14  H           1     -20.422  -5.301  -3.880  0.00  0.00     0.275 HD
HETATM   15  H           1     -22.115  -5.270  -3.664  0.00  0.00     0.275 HD
HETATM   16  H           1     -21.229  -6.676  -3.273  0.00  0.00     0.275 HD
ENDBRANCH   1  13
BRANCH   1  17
HETATM   17  C           1     -20.926  -7.772  -5.436  0.00  0.00     0.249 C 
HETATM   18  O           1     -21.517  -8.615  -6.067  0.00  0.00    -0.271 OA
HETATM   19  N           1     -19.746  -8.084  -4.816  0.00  0.00    -0.343 N 
HETATM   20  H           1     -19.250  -7.378  -4.287  0.00  0.00     0.163 HD
BRANCH  19  21
HETATM   21  C           1     -19.206  -9.425  -4.918  0.00  0.00     0.209 C 
BRANCH  21  22
HETATM   22  C           1     -17.958  -9.408  -5.791  0.00  0.00     0.200 C 
BRANCH  22  23
HETATM   23  O           1     -16.853  -9.827  -5.037  0.00  0.00    -0.398 OA
HETATM   24  H           1     -16.969  -9.481  -4.168  0.00  0.00     0.209 HD
ENDBRANCH  22  23
ENDBRANCH  21  22
BRANCH  21  25
HETATM   25  C           1     -18.848  -9.930  -3.541  0.00  0.00     0.198 C 
HETATM   26  O           1     -18.839 -11.157  -3.308  0.00  0.00    -0.646 OA
HETATM   27  O           1     -18.562  -9.118  -2.634  0.00  0.00    -0.646 OA
ENDBRANCH  21  25
ENDBRANCH  19  21
ENDBRANCH   1  17
TORSDOF 8
ENDMDL
MODEL 6
REMARK VINA RESULT:      -6.8      1.863      3.005
REMARK  8 active torsions:
REMARK  status: ('A' for Active; 'I' for Inactive)
REMARK    1  A    between atoms: C_2  and  C_3 
REMARK    2  A    between atoms: C_2  and  C_22 
REMARK    3  A    between atoms: C_2  and  N_23 
REMARK    4  A    between atoms: C_3  and  O_26 
REMARK    5  A    between atoms: C_4  and  C_5 
REMARK    6  A    between atoms: C_5  and  C_18 
REMARK    7  A    between atoms: N_11  and  C_18 
REMARK    8  A    between atoms: C_18  and  C_21 
REMARK       I    between atoms: C_21  and  N_23 
ROOT
HETATM    1  C           1     -21.415  -7.094  -5.135  0.00  0.00     0.278 C 
ENDROOT
BRANCH   1   2
HETATM    2  C           1     -20.421  -7.293  -3.999  0.00  0.00     0.083 C 
BRANCH   2   3
HETATM    3  C           1     -21.144  -7.259  -2.689  0.00  0.00    -0.028 A 
HETATM    4  C           1     -21.977  -6.256  -2.248  0.00  0.00     0.096 A 
HETATM    5  N           1     -22.434  -6.608  -1.006  0.00  0.00    -0.365 N 
HETATM    6  C           1     -21.911  -7.826  -0.633  0.00  0.00     0.042 A 
HETATM    7  H           1     -23.091  -6.031  -0.423  0.00  0.00     0.165 HD
HETATM    8  C           1     -22.098  -8.570   0.539  0.00  0.00     0.030 A 
HETATM    9  C           1     -21.094  -8.258  -1.677  0.00  0.00    -0.002 A 
HETATM   10  C           1     -21.426  -9.791   0.641  0.00  0.00     0.002 A 
HETATM   11  C           1     -20.604 -10.248  -0.386  0.00  0.00     0.001 A 
HETATM   12  C           1     -20.428  -9.491  -1.551  0.00  0.00     0.014 A 
ENDBRANCH   2   3
ENDBRANCH   1   2
BRANCH   1  13
HETATM   13  N           1     -21.280  -8.217  -6.120  0.00  0.00    -0.066 N 
HETATM   14  H           1     -22.214  -8.660  -6.274  0.00  0.00     0.275 HD
HETATM   15  H           1     -20.918  -7.844  -7.026  0.00  0.00     0.275 HD
HETATM   16  H           1     -20.615  -8.930  -5.745  0.00  0.00     0.275 HD
ENDBRANCH   1  13
BRANCH   1  17
HETATM   17  C           1     -21.134  -5.783  -5.827  0.00  0.00     0.249 C 
HETATM   18  O           1     -20.553  -4.901  -5.239  0.00  0.00    -0.271 OA
HETATM   19  N           1     -21.537  -5.592  -7.122  0.00  0.00    -0.343 N 
HETATM   20  H           1     -22.022  -6.330  -7.614  0.00  0.00     0.163 HD
BRANCH  19  21
HETATM   21  C           1     -21.266  -4.332  -7.786  0.00  0.00     0.209 C 
BRANCH  21  22
HETATM   22  C           1     -19.985  -4.451  -8.601  0.00  0.00     0.200 C 
BRANCH  22  23
HETATM   23  O           1     -18.877  -4.269  -7.762  0.00  0.00    -0.398 OA
HETATM   24  H           1     -18.572  -5.129  -7.521  0.00  0.00     0.209 HD
ENDBRANCH  22  23
ENDBRANCH  21  22
BRANCH  21  25
HETATM   25  C           1     -22.415  -3.991  -8.704  0.00  0.00     0.198 C 
HETATM   26  O           1     -22.189  -3.545  -9.848  0.00  0.00    -0.646 OA
HETATM   27  O           1     -23.593  -4.155  -8.317  0.00  0.00    -0.646 OA
ENDBRANCH  21  25
ENDBRANCH  19  21
ENDBRANCH   1  17
TORSDOF 8
ENDMDL
MODEL 7
REMARK VINA RESULT:      -6.7      2.003      3.067
REMARK  8 active torsions:
REMARK  status: ('A' for Active; 'I' for Inactive)
REMARK    1  A    between atoms: C_2  and  C_3 
REMARK    2  A    between atoms: C_2  and  C_22 
REMARK    3  A    between atoms: C_2  and  N_23 
REMARK    4  A    between atoms: C_3  and  O_26 
REMARK    5  A    between atoms: C_4  and  C_5 
REMARK    6  A    between atoms: C_5  and  C_18 
REMARK    7  A    between atoms: N_11  and  C_18 
REMARK    8  A    between atoms: C_18  and  C_21 
REMARK       I    between atoms: C_21  and  N_23 
ROOT
HETATM    1  C           1     -21.046  -8.097  -4.796  0.00  0.00     0.278 C 
ENDROOT
BRANCH   1   2
HETATM    2  C           1     -19.791  -8.402  -3.989  0.00  0.00     0.083 C 
BRANCH   2   3
HETATM    3  C           1     -20.171  -9.067  -2.704  0.00  0.00    -0.028 A 
HETATM    4  C           1     -19.768 -10.315  -2.286  0.00  0.00     0.096 A 
HETATM    5  N           1     -20.334 -10.549  -1.061  0.00  0.00    -0.365 N 
HETATM    6  C           1     -21.099  -9.471  -0.676  0.00  0.00     0.042 A 
HETATM    7  H           1     -20.202 -11.425  -0.496  0.00  0.00     0.165 HD
HETATM    8  C           1     -21.855  -9.266   0.486  0.00  0.00     0.030 A 
HETATM    9  C           1     -21.014  -8.522  -1.695  0.00  0.00    -0.002 A 
HETATM   10  C           1     -22.540  -8.054   0.605  0.00  0.00     0.002 A 
HETATM   11  C           1     -22.472  -7.088  -0.397  0.00  0.00     0.001 A 
HETATM   12  C           1     -21.713  -7.310  -1.553  0.00  0.00     0.014 A 
ENDBRANCH   2   3
ENDBRANCH   1   2
BRANCH   1  13
HETATM   13  N           1     -21.140  -9.050  -5.952  0.00  0.00    -0.066 N 
HETATM   14  H           1     -20.562  -9.897  -5.754  0.00  0.00     0.275 HD
HETATM   15  H           1     -22.137  -9.333  -6.089  0.00  0.00     0.275 HD
HETATM   16  H           1     -20.788  -8.582  -6.817  0.00  0.00     0.275 HD
ENDBRANCH   1  13
BRANCH   1  17
HETATM   17  C           1     -20.981  -6.682  -5.315  0.00  0.00     0.249 C 
HETATM   18  O           1     -20.801  -5.765  -4.550  0.00  0.00    -0.271 OA
HETATM   19  N           1     -21.125  -6.437  -6.655  0.00  0.00    -0.343 N 
HETATM   20  H           1     -21.275  -7.205  -7.296  0.00  0.00     0.163 HD
BRANCH  19  21
HETATM   21  C           1     -21.062  -5.078  -7.153  0.00  0.00     0.209 C 
BRANCH  21  22
HETATM   22  C           1     -20.247  -5.044  -8.439  0.00  0.00     0.200 C 
BRANCH  22  23
HETATM   23  O           1     -19.731  -3.754  -8.633  0.00  0.00    -0.398 OA
HETATM   24  H           1     -19.962  -3.496  -9.510  0.00  0.00     0.209 HD
ENDBRANCH  22  23
ENDBRANCH  21  22
BRANCH  21  25
HETATM   25  C           1     -22.459  -4.579  -7.432  0.00  0.00     0.198 C 
HETATM   26  O           1     -22.718  -4.019  -8.518  0.00  0.00    -0.646 OA
HETATM   27  O           1     -23.357  -4.726  -6.574  0.00  0.00    -0.646 OA
ENDBRANCH  21  25
ENDBRANCH  19  21
ENDBRANCH   1  17
TORSDOF 8
ENDMDL
MODEL 8
REMARK VINA RESULT:      -6.7      2.961      7.564
REMARK  8 active torsions:
REMARK  status: ('A' for Active; 'I' for Inactive)
REMARK    1  A    between atoms: C_2  and  C_3 
REMARK    2  A    between atoms: C_2  and  C_22 
REMARK    3  A    between atoms: C_2  and  N_23 
REMARK    4  A    between atoms: C_3  and  O_26 
REMARK    5  A    between atoms: C_4  and  C_5 
REMARK    6  A    between atoms: C_5  and  C_18 
REMARK    7  A    between atoms: N_11  and  C_18 
REMARK    8  A    between atoms: C_18  and  C_21 
REMARK       I    between atoms: C_21  and  N_23 
ROOT
HETATM    1  C           1     -20.489  -5.616  -5.945  0.00  0.00     0.278 C 
ENDROOT
BRANCH   1   2
HETATM    2  C           1     -21.084  -4.281  -6.372  0.00  0.00     0.083 C 
BRANCH   2   3
HETATM    3  C           1     -21.002  -4.149  -7.860  0.00  0.00    -0.028 A 
HETATM    4  C           1     -19.847  -4.048  -8.604  0.00  0.00     0.096 A 
HETATM    5  N           1     -20.206  -3.946  -9.922  0.00  0.00    -0.365 N 
HETATM    6  C           1     -21.577  -3.980 -10.046  0.00  0.00     0.042 A 
HETATM    7  H           1     -19.532  -3.856 -10.722  0.00  0.00     0.165 HD
HETATM    8  C           1     -22.384  -3.906 -11.189  0.00  0.00     0.030 A 
HETATM    9  C           1     -22.103  -4.107  -8.761  0.00  0.00    -0.002 A 
HETATM   10  C           1     -23.768  -3.967 -11.007  0.00  0.00     0.002 A 
HETATM   11  C           1     -24.321  -4.094  -9.734  0.00  0.00     0.001 A 
HETATM   12  C           1     -23.500  -4.165  -8.602  0.00  0.00     0.014 A 
ENDBRANCH   2   3
ENDBRANCH   1   2
BRANCH   1  13
HETATM   13  N           1     -20.287  -6.482  -7.154  0.00  0.00    -0.066 N 
HETATM   14  H           1     -20.418  -5.910  -8.019  0.00  0.00     0.275 HD
HETATM   15  H           1     -19.320  -6.878  -7.141  0.00  0.00     0.275 HD
HETATM   16  H           1     -20.983  -7.261  -7.144  0.00  0.00     0.275 HD
ENDBRANCH   1  13
BRANCH   1  17
HETATM   17  C           1     -21.429  -6.303  -4.987  0.00  0.00     0.249 C 
HETATM   18  O           1     -22.624  -6.179  -5.118  0.00  0.00    -0.271 OA
HETATM   19  N           1     -20.929  -7.069  -3.967  0.00  0.00    -0.343 N 
HETATM   20  H           1     -19.929  -7.174  -3.858  0.00  0.00     0.163 HD
BRANCH  19  21
HETATM   21  C           1     -21.833  -7.729  -3.046  0.00  0.00     0.209 C 
BRANCH  21  22
HETATM   22  C           1     -21.306  -9.121  -2.725  0.00  0.00     0.200 C 
BRANCH  22  23
HETATM   23  O           1     -19.927  -9.055  -2.481  0.00  0.00    -0.398 OA
HETATM   24  H           1     -19.619  -8.252  -2.868  0.00  0.00     0.209 HD
ENDBRANCH  22  23
ENDBRANCH  21  22
BRANCH  21  25
HETATM   25  C           1     -21.931  -6.923  -1.773  0.00  0.00     0.198 C 
HETATM   26  O           1     -22.364  -5.752  -1.807  0.00  0.00    -0.646 OA
HETATM   27  O           1     -21.577  -7.429  -0.686  0.00  0.00    -0.646 OA
ENDBRANCH  21  25
ENDBRANCH  19  21
ENDBRANCH   1  17
TORSDOF 8
ENDMDL
MODEL 9
REMARK VINA RESULT:      -6.7      3.293      7.747
REMARK  8 active torsions:
REMARK  status: ('A' for Active; 'I' for Inactive)
REMARK    1  A    between atoms: C_2  and  C_3 
REMARK    2  A    between atoms: C_2  and  C_22 
REMARK    3  A    between atoms: C_2  and  N_23 
REMARK    4  A    between atoms: C_3  and  O_26 
REMARK    5  A    between atoms: C_4  and  C_5 
REMARK    6  A    between atoms: C_5  and  C_18 
REMARK    7  A    between atoms: N_11  and  C_18 
REMARK    8  A    between atoms: C_18  and  C_21 
REMARK       I    between atoms: C_21  and  N_23 
ROOT
HETATM    1  C           1     -21.674  -5.466  -6.966  0.00  0.00     0.278 C 
ENDROOT
BRANCH   1   2
HETATM    2  C           1     -21.039  -4.191  -7.505  0.00  0.00     0.083 C 
BRANCH   2   3
HETATM    3  C           1     -21.128  -4.180  -8.998  0.00  0.00    -0.028 A 
HETATM    4  C           1     -20.103  -4.455  -9.875  0.00  0.00     0.096 A 
HETATM    5  N           1     -20.596  -4.337 -11.147  0.00  0.00    -0.365 N 
HETATM    6  C           1     -21.928  -3.989 -11.111  0.00  0.00     0.042 A 
HETATM    7  H           1     -20.039  -4.491 -12.023  0.00  0.00     0.165 HD
HETATM    8  C           1     -22.832  -3.760 -12.155  0.00  0.00     0.030 A 
HETATM    9  C           1     -22.288  -3.883  -9.767  0.00  0.00    -0.002 A 
HETATM   10  C           1     -24.142  -3.415 -11.812  0.00  0.00     0.002 A 
HETATM   11  C           1     -24.530  -3.302 -10.478  0.00  0.00     0.001 A 
HETATM   12  C           1     -23.613  -3.533  -9.446  0.00  0.00     0.014 A 
ENDBRANCH   2   3
ENDBRANCH   1   2
BRANCH   1  13
HETATM   13  N           1     -22.985  -5.135  -6.317  0.00  0.00    -0.066 N 
HETATM   14  H           1     -22.812  -4.664  -5.400  0.00  0.00     0.275 HD
HETATM   15  H           1     -23.530  -4.496  -6.939  0.00  0.00     0.275 HD
HETATM   16  H           1     -23.527  -6.014  -6.160  0.00  0.00     0.275 HD
ENDBRANCH   1  13
BRANCH   1  17
HETATM   17  C           1     -20.755  -6.096  -5.949  0.00  0.00     0.249 C 
HETATM   18  O           1     -20.068  -5.399  -5.241  0.00  0.00    -0.271 OA
HETATM   19  N           1     -20.698  -7.459  -5.828  0.00  0.00    -0.343 N 
HETATM   20  H           1     -21.274  -8.043  -6.420  0.00  0.00     0.163 HD
BRANCH  19  21
HETATM   21  C           1     -19.816  -8.064  -4.851  0.00  0.00     0.209 C 
BRANCH  21  22
HETATM   22  C           1     -20.622  -8.492  -3.632  0.00  0.00     0.200 C 
BRANCH  22  23
HETATM   23  O           1     -21.852  -9.022  -4.046  0.00  0.00    -0.398 OA
HETATM   24  H           1     -22.514  -8.396  -3.806  0.00  0.00     0.209 HD
ENDBRANCH  22  23
ENDBRANCH  21  22
BRANCH  21  25
HETATM   25  C           1     -19.145  -9.272  -5.459  0.00  0.00     0.198 C 
HETATM   26  O           1     -19.495 -10.420  -5.114  0.00  0.00    -0.646 OA
HETATM   27  O           1     -18.239  -9.122  -6.308  0.00  0.00    -0.646 OA
ENDBRANCH  21  25
ENDBRANCH  19  21
ENDBRANCH   1  17
TORSDOF 8
ENDMDL
