MODEL 1
REMARK VINA RESULT:      -8.6      0.000      0.000
REMARK  13 active torsions:
REMARK  status: ('A' for Active; 'I' for Inactive)
REMARK       I    between atoms: N_9  and  C_10 
REMARK       I    between atoms: C_10  and  N_11 
REMARK    1  A    between atoms: N_12  and  C_13 
REMARK    2  A    between atoms: C_13  and  C_14 
REMARK    3  A    between atoms: C_14  and  C_15 
REMARK    4  A    between atoms: C_15  and  C_16 
REMARK    5  A    between atoms: C_16  and  C_17 
REMARK    6  A    between atoms: C_16  and  N_20 
REMARK       I    between atoms: N_20  and  C_21 
REMARK    7  A    between atoms: C_21  and  C_22 
REMARK    8  A    between atoms: C_22  and  C_23 
REMARK    9  A    between atoms: C_22  and  N_35 
REMARK   10  A    between atoms: C_23  and  C_24 
REMARK   11  A    between atoms: C_27  and  O_28 
REMARK   12  A    between atoms: O_28  and  P_29 
REMARK   13  A    between atoms: P_29  and  O_30 
ROOT
HETATM    1  O           1     -21.529  -3.231  -7.209  0.00  0.00    -0.271 OA
HETATM    2  H           1     -22.343  -5.734  -8.916  0.00  0.00     0.163 HD
HETATM    3  N           1     -22.241  -4.756  -8.677  0.00  0.00    -0.345 N 
HETATM    4  C           1     -21.650  -4.398  -7.495  0.00  0.00     0.249 C 
ENDROOT
BRANCH   4   5
HETATM    5  C           1     -21.150  -5.463  -6.549  0.00  0.00     0.278 C 
BRANCH   5   6
HETATM    6  C           1     -22.292  -5.925  -5.654  0.00  0.00     0.081 C 
BRANCH   6   7
HETATM    7  C           1     -21.751  -6.786  -4.557  0.00  0.00    -0.056 A 
HETATM    8  C           1     -21.735  -6.316  -3.244  0.00  0.00     0.010 A 
HETATM    9  C           1     -21.231  -7.119  -2.221  0.00  0.00     0.038 A 
HETATM   10  C           1     -20.742  -8.393  -2.512  0.00  0.00     0.081 A 
HETATM   11  C           1     -20.759  -8.864  -3.824  0.00  0.00     0.038 A 
HETATM   12  C           1     -21.263  -8.061  -4.846  0.00  0.00     0.010 A 
BRANCH  10  13
HETATM   13  O           1     -20.253  -9.173  -1.517  0.00  0.00    -0.247 OA
BRANCH  13  14
HETATM   14  P           1     -21.289  -9.730  -0.412  0.00  0.00     0.411 P 
HETATM   15  O           1     -20.804 -11.030   0.108  0.00  0.00    -0.624 OA
HETATM   16  O           1     -21.391  -8.761   0.702  0.00  0.00    -0.624 OA
BRANCH  14  17
HETATM   17  O           1     -22.742  -9.930  -1.086  0.00  0.00    -0.300 OA
HETATM   18  H           1     -23.352  -9.576  -0.461  0.00  0.00     0.223 HD
ENDBRANCH  14  17
ENDBRANCH  13  14
ENDBRANCH  10  13
ENDBRANCH   6   7
ENDBRANCH   5   6
BRANCH   5  19
HETATM   19  N           1     -20.048  -4.900  -5.701  0.00  0.00    -0.066 N 
HETATM   20  H           1     -19.508  -5.683  -5.267  0.00  0.00     0.275 HD
HETATM   21  H           1     -19.410  -4.326  -6.298  0.00  0.00     0.275 HD
HETATM   22  H           1     -20.458  -4.300  -4.951  0.00  0.00     0.275 HD
ENDBRANCH   5  19
ENDBRANCH   4   5
BRANCH   3  23
HETATM   23  C           1     -22.721  -3.734  -9.586  0.00  0.00     0.185 C 
BRANCH  23  24
HETATM   24  C           1     -22.085  -3.932 -10.955  0.00  0.00     0.038 C 
BRANCH  24  25
HETATM   25  C           1     -22.311  -2.690 -11.806  0.00  0.00     0.023 C 
BRANCH  25  26
HETATM   26  C           1     -23.112  -3.062 -13.047  0.00  0.00     0.138 C 
BRANCH  26  27
HETATM   27  N           1     -23.907  -1.905 -13.483  0.00  0.00    -0.227 N 
HETATM   28  H           1     -24.619  -1.483 -12.837  0.00  0.00     0.177 HD
HETATM   29  C           1     -23.732  -1.416 -14.637  0.00  0.00     0.665 C 
HETATM   30  N           1     -24.434  -0.391 -15.022  0.00  0.00    -0.235 N 
HETATM   31  N           1     -22.872  -1.923 -15.417  0.00  0.00    -0.235 N 
HETATM   32  H           1     -25.143   0.027 -14.379  0.00  0.00     0.174 HD
HETATM   33  H           1     -24.290   0.012 -15.976  0.00  0.00     0.174 HD
HETATM   34  H           1     -22.728  -1.517 -16.374  0.00  0.00     0.174 HD
HETATM   35  H           1     -22.305  -2.749 -15.105  0.00  0.00     0.174 HD
ENDBRANCH  26  27
ENDBRANCH  25  26
ENDBRANCH  24  25
ENDBRANCH  23  24
BRANCH  23  36
HETATM   36  C           1     -24.222  -3.835  -9.709  0.00  0.00     0.196 C 
HETATM   37  O           1     -24.940  -2.853  -9.423  0.00  0.00    -0.646 OA
HETATM   38  O           1     -24.747  -4.901 -10.096  0.00  0.00    -0.646 OA
ENDBRANCH  23  36
ENDBRANCH   3  23
TORSDOF 13
ENDMDL
MODEL 2
REMARK VINA RESULT:      -8.6      0.870      1.564
REMARK  13 active torsions:
REMARK  status: ('A' for Active; 'I' for Inactive)
REMARK       I    between atoms: N_9  and  C_10 
REMARK       I    between atoms: C_10  and  N_11 
REMARK    1  A    between atoms: N_12  and  C_13 
REMARK    2  A    between atoms: C_13  and  C_14 
REMARK    3  A    between atoms: C_14  and  C_15 
REMARK    4  A    between atoms: C_15  and  C_16 
REMARK    5  A    between atoms: C_16  and  C_17 
REMARK    6  A    between atoms: C_16  and  N_20 
REMARK       I    between atoms: N_20  and  C_21 
REMARK    7  A    between atoms: C_21  and  C_22 
REMARK    8  A    between atoms: C_22  and  C_23 
REMARK    9  A    between atoms: C_22  and  N_35 
REMARK   10  A    between atoms: C_23  and  C_24 
REMARK   11  A    between atoms: C_27  and  O_28 
REMARK   12  A    between atoms: O_28  and  P_29 
REMARK   13  A    between atoms: P_29  and  O_30 
ROOT
HETATM    1  O           1     -21.705  -3.508  -7.199  0.00  0.00    -0.271 OA
HETATM    2  H           1     -22.023  -5.806  -9.310  0.00  0.00     0.163 HD
HETATM    3  N           1     -22.071  -4.868  -8.931  0.00  0.00    -0.345 N 
HETATM    4  C           1     -21.647  -4.626  -7.652  0.00  0.00     0.249 C 
ENDROOT
BRANCH   4   5
HETATM    5  C           1     -21.109  -5.756  -6.808  0.00  0.00     0.278 C 
BRANCH   5   6
HETATM    6  C           1     -20.875  -5.262  -5.387  0.00  0.00     0.081 C 
BRANCH   6   7
HETATM    7  C           1     -21.148  -6.371  -4.421  0.00  0.00    -0.056 A 
HETATM    8  C           1     -21.323  -7.675  -4.886  0.00  0.00     0.010 A 
HETATM    9  C           1     -21.577  -8.709  -3.985  0.00  0.00     0.038 A 
HETATM   10  C           1     -21.656  -8.439  -2.619  0.00  0.00     0.081 A 
HETATM   11  C           1     -21.481  -7.137  -2.153  0.00  0.00     0.038 A 
HETATM   12  C           1     -21.227  -6.103  -3.054  0.00  0.00     0.010 A 
BRANCH  10  13
HETATM   13  O           1     -21.903  -9.445  -1.744  0.00  0.00    -0.247 OA
BRANCH  13  14
HETATM   14  P           1     -20.729 -10.522  -1.477  0.00  0.00     0.411 P 
HETATM   15  O           1     -20.677 -10.846  -0.034  0.00  0.00    -0.624 OA
HETATM   16  O           1     -21.005 -11.753  -2.251  0.00  0.00    -0.624 OA
BRANCH  14  17
HETATM   17  O           1     -19.312  -9.902  -1.940  0.00  0.00    -0.300 OA
HETATM   18  H           1     -18.774 -10.649  -2.144  0.00  0.00     0.223 HD
ENDBRANCH  14  17
ENDBRANCH  13  14
ENDBRANCH  10  13
ENDBRANCH   6   7
ENDBRANCH   5   6
BRANCH   5  19
HETATM   19  N           1     -19.813  -6.239  -7.389  0.00  0.00    -0.066 N 
HETATM   20  H           1     -19.241  -5.419  -7.693  0.00  0.00     0.275 HD
HETATM   21  H           1     -19.289  -6.780  -6.664  0.00  0.00     0.275 HD
HETATM   22  H           1     -20.008  -6.854  -8.211  0.00  0.00     0.275 HD
ENDBRANCH   5  19
ENDBRANCH   4   5
BRANCH   3  23
HETATM   23  C           1     -22.587  -3.783  -9.742  0.00  0.00     0.185 C 
BRANCH  23  24
HETATM   24  C           1     -22.041  -3.904 -11.159  0.00  0.00     0.038 C 
BRANCH  24  25
HETATM   25  C           1     -22.337  -2.624 -11.928  0.00  0.00     0.023 C 
BRANCH  25  26
HETATM   26  C           1     -23.102  -2.961 -13.201  0.00  0.00     0.138 C 
BRANCH  26  27
HETATM   27  N           1     -23.930  -1.813 -13.596  0.00  0.00    -0.227 N 
HETATM   28  H           1     -24.657  -1.438 -12.938  0.00  0.00     0.177 HD
HETATM   29  C           1     -23.765  -1.273 -14.729  0.00  0.00     0.665 C 
HETATM   30  N           1     -24.496  -0.256 -15.077  0.00  0.00    -0.235 N 
HETATM   31  N           1     -22.887  -1.723 -15.523  0.00  0.00    -0.235 N 
HETATM   32  H           1     -25.220   0.115 -14.422  0.00  0.00     0.174 HD
HETATM   33  H           1     -24.360   0.189 -16.013  0.00  0.00     0.174 HD
HETATM   34  H           1     -22.751  -1.275 -16.463  0.00  0.00     0.174 HD
HETATM   35  H           1     -22.296  -2.544 -15.241  0.00  0.00     0.174 HD
ENDBRANCH  26  27
ENDBRANCH  25  26
ENDBRANCH  24  25
ENDBRANCH  23  24
BRANCH  23  36
HETATM   36  C           1     -24.094  -3.854  -9.777  0.00  0.00     0.196 C 
HETATM   37  O           1     -24.774  -2.852  -9.471  0.00  0.00    -0.646 OA
HETATM   38  O           1     -24.662  -4.917 -10.110  0.00  0.00    -0.646 OA
ENDBRANCH  23  36
ENDBRANCH   3  23
TORSDOF 13
ENDMDL
MODEL 3
REMARK VINA RESULT:      -8.4      4.705     10.987
REMARK  13 active torsions:
REMARK  status: ('A' for Active; 'I' for Inactive)
REMARK       I    between atoms: N_9  and  C_10 
REMARK       I    between atoms: C_10  and  N_11 
REMARK    1  A    between atoms: N_12  and  C_13 
REMARK    2  A    between atoms: C_13  and  C_14 
REMARK    3  A    between atoms: C_14  and  C_15 
REMARK    4  A    between atoms: C_15  and  C_16 
REMARK    5  A    between atoms: C_16  and  C_17 
REMARK    6  A    between atoms: C_16  and  N_20 
REMARK       I    between atoms: N_20  and  C_21 
REMARK    7  A    between atoms: C_21  and  C_22 
REMARK    8  A    between atoms: C_22  and  C_23 
REMARK    9  A    between atoms: C_22  and  N_35 
REMARK   10  A    between atoms: C_23  and  C_24 
REMARK   11  A    between atoms: C_27  and  O_28 
REMARK   12  A    between atoms: O_28  and  P_29 
REMARK   13  A    between atoms: P_29  and  O_30 
ROOT
HETATM    1  O           1     -20.020  -4.844  -5.566  0.00  0.00    -0.271 OA
HETATM    2  H           1     -22.195  -7.066  -5.976  0.00  0.00     0.163 HD
HETATM    3  N           1     -21.392  -6.605  -5.568  0.00  0.00    -0.345 N 
HETATM    4  C           1     -20.980  -5.393  -6.052  0.00  0.00     0.249 C 
ENDROOT
BRANCH   4   5
HETATM    5  C           1     -21.724  -4.745  -7.194  0.00  0.00     0.278 C 
BRANCH   5   6
HETATM    6  C           1     -21.149  -5.232  -8.517  0.00  0.00     0.081 C 
BRANCH   6   7
HETATM    7  C           1     -21.664  -4.376  -9.631  0.00  0.00    -0.056 A 
HETATM    8  C           1     -23.036  -4.166  -9.773  0.00  0.00     0.010 A 
HETATM    9  C           1     -23.516  -3.369 -10.811  0.00  0.00     0.038 A 
HETATM   10  C           1     -22.625  -2.780 -11.708  0.00  0.00     0.081 A 
HETATM   11  C           1     -21.253  -2.989 -11.567  0.00  0.00     0.038 A 
HETATM   12  C           1     -20.773  -3.787 -10.528  0.00  0.00     0.010 A 
BRANCH  10  13
HETATM   13  O           1     -23.092  -2.005 -12.717  0.00  0.00    -0.247 OA
BRANCH  13  14
HETATM   14  P           1     -23.395  -2.711 -14.137  0.00  0.00     0.411 P 
HETATM   15  O           1     -24.219  -3.923 -13.919  0.00  0.00    -0.624 OA
HETATM   16  O           1     -24.127  -1.768 -15.011  0.00  0.00    -0.624 OA
BRANCH  14  17
HETATM   17  O           1     -22.004  -3.128 -14.841  0.00  0.00    -0.300 OA
HETATM   18  H           1     -22.200  -3.913 -15.323  0.00  0.00     0.223 HD
ENDBRANCH  14  17
ENDBRANCH  13  14
ENDBRANCH  10  13
ENDBRANCH   6   7
ENDBRANCH   5   6
BRANCH   5  19
HETATM   19  N           1     -21.576  -3.254  -7.104  0.00  0.00    -0.066 N 
HETATM   20  H           1     -20.716  -3.022  -6.556  0.00  0.00     0.275 HD
HETATM   21  H           1     -21.493  -2.855  -8.066  0.00  0.00     0.275 HD
HETATM   22  H           1     -22.413  -2.849  -6.627  0.00  0.00     0.275 HD
ENDBRANCH   5  19
ENDBRANCH   4   5
BRANCH   3  23
HETATM   23  C           1     -20.678  -7.229  -4.471  0.00  0.00     0.185 C 
BRANCH  23  24
HETATM   24  C           1     -21.651  -7.535  -3.340  0.00  0.00     0.038 C 
BRANCH  24  25
HETATM   25  C           1     -21.837  -6.293  -2.479  0.00  0.00     0.023 C 
BRANCH  25  26
HETATM   26  C           1     -22.257  -6.706  -1.075  0.00  0.00     0.138 C 
BRANCH  26  27
HETATM   27  N           1     -22.152  -8.166  -0.940  0.00  0.00    -0.227 N 
HETATM   28  H           1     -21.506  -8.706  -1.567  0.00  0.00     0.177 HD
HETATM   29  C           1     -22.839  -8.771  -0.067  0.00  0.00     0.665 C 
HETATM   30  N           1     -22.745 -10.062   0.054  0.00  0.00    -0.235 N 
HETATM   31  N           1     -23.618  -8.120   0.691  0.00  0.00    -0.235 N 
HETATM   32  H           1     -22.103 -10.599  -0.571  0.00  0.00     0.174 HD
HETATM   33  H           1     -23.314 -10.562   0.775  0.00  0.00     0.174 HD
HETATM   34  H           1     -24.188  -8.623   1.415  0.00  0.00     0.174 HD
HETATM   35  H           1     -23.693  -7.077   0.594  0.00  0.00     0.174 HD
ENDBRANCH  26  27
ENDBRANCH  25  26
ENDBRANCH  24  25
ENDBRANCH  23  24
BRANCH  23  36
HETATM   36  C           1     -20.042  -8.511  -4.949  0.00  0.00     0.196 C 
HETATM   37  O           1     -18.910  -8.840  -4.535  0.00  0.00    -0.646 OA
HETATM   38  O           1     -20.648  -9.245  -5.760  0.00  0.00    -0.646 OA
ENDBRANCH  23  36
ENDBRANCH   3  23
TORSDOF 13
ENDMDL
MODEL 4
REMARK VINA RESULT:      -8.0      4.837     10.790
REMARK  13 active torsions:
REMARK  status: ('A' for Active; 'I' for Inactive)
REMARK       I    between atoms: N_9  and  C_10 
REMARK       I    between atoms: C_10  and  N_11 
REMARK    1  A    between atoms: N_12  and  C_13 
REMARK    2  A    between atoms: C_13  and  C_14 
REMARK    3  A    between atoms: C_14  and  C_15 
REMARK    4  A    between atoms: C_15  and  C_16 
REMARK    5  A    between atoms: C_16  and  C_17 
REMARK    6  A    between atoms: C_16  and  N_20 
REMARK       I    between atoms: N_20  and  C_21 
REMARK    7  A    between atoms: C_21  and  C_22 
REMARK    8  A    between atoms: C_22  and  C_23 
REMARK    9  A    between atoms: C_22  and  N_35 
REMARK   10  A    between atoms: C_23  and  C_24 
REMARK   11  A    between atoms: C_27  and  O_28 
REMARK   12  A    between atoms: O_28  and  P_29 
REMARK   13  A    between atoms: P_29  and  O_30 
ROOT
HETATM    1  O           1     -21.948  -7.408  -5.554  0.00  0.00    -0.271 OA
HETATM    2  H           1     -20.508  -5.625  -3.412  0.00  0.00     0.163 HD
HETATM    3  N           1     -20.996  -6.429  -3.788  0.00  0.00    -0.345 N 
HETATM    4  C           1     -21.366  -6.450  -5.105  0.00  0.00     0.249 C 
ENDROOT
BRANCH   4   5
HETATM    5  C           1     -21.047  -5.274  -5.997  0.00  0.00     0.278 C 
BRANCH   5   6
HETATM    6  C           1     -20.596  -5.779  -7.362  0.00  0.00     0.081 C 
BRANCH   6   7
HETATM    7  C           1     -21.198  -4.927  -8.434  0.00  0.00    -0.056 A 
HETATM    8  C           1     -20.454  -4.602  -9.568  0.00  0.00     0.010 A 
HETATM    9  C           1     -21.015  -3.808 -10.568  0.00  0.00     0.038 A 
HETATM   10  C           1     -22.321  -3.339 -10.433  0.00  0.00     0.081 A 
HETATM   11  C           1     -23.067  -3.663  -9.301  0.00  0.00     0.038 A 
HETATM   12  C           1     -22.505  -4.458  -8.301  0.00  0.00     0.010 A 
BRANCH  10  13
HETATM   13  O           1     -22.867  -2.567 -11.405  0.00  0.00    -0.247 OA
BRANCH  13  14
HETATM   14  P           1     -23.455  -3.303 -12.716  0.00  0.00     0.411 P 
HETATM   15  O           1     -23.813  -4.700 -12.378  0.00  0.00    -0.624 OA
HETATM   16  O           1     -24.660  -2.585 -13.187  0.00  0.00    -0.624 OA
BRANCH  14  17
HETATM   17  O           1     -22.339  -3.303 -13.883  0.00  0.00    -0.300 OA
HETATM   18  H           1     -22.297  -2.409 -14.180  0.00  0.00     0.223 HD
ENDBRANCH  14  17
ENDBRANCH  13  14
ENDBRANCH  10  13
ENDBRANCH   6   7
ENDBRANCH   5   6
BRANCH   5  19
HETATM   19  N           1     -19.948  -4.461  -5.378  0.00  0.00    -0.066 N 
HETATM   20  H           1     -19.311  -4.109  -6.128  0.00  0.00     0.275 HD
HETATM   21  H           1     -20.363  -3.650  -4.866  0.00  0.00     0.275 HD
HETATM   22  H           1     -19.408  -5.057  -4.711  0.00  0.00     0.275 HD
ENDBRANCH   5  19
ENDBRANCH   4   5
BRANCH   3  23
HETATM   23  C           1     -21.301  -7.557  -2.930  0.00  0.00     0.185 C 
BRANCH  23  24
HETATM   24  C           1     -20.009  -8.261  -2.538  0.00  0.00     0.038 C 
BRANCH  24  25
HETATM   25  C           1     -19.934  -9.612  -3.237  0.00  0.00     0.023 C 
BRANCH  25  26
HETATM   26  C           1     -21.155 -10.444  -2.868  0.00  0.00     0.138 C 
BRANCH  26  27
HETATM   27  N           1     -21.026 -10.920  -1.483  0.00  0.00    -0.227 N 
HETATM   28  H           1     -20.087 -11.208  -1.113  0.00  0.00     0.177 HD
HETATM   29  C           1     -22.046 -10.980  -0.737  0.00  0.00     0.665 C 
HETATM   30  N           1     -21.932 -11.399   0.488  0.00  0.00    -0.235 N 
HETATM   31  N           1     -23.179 -10.631  -1.183  0.00  0.00    -0.235 N 
HETATM   32  H           1     -20.998 -11.687   0.856  0.00  0.00     0.174 HD
HETATM   33  H           1     -22.775 -11.450   1.104  0.00  0.00     0.174 HD
HETATM   34  H           1     -24.025 -10.681  -0.564  0.00  0.00     0.174 HD
HETATM   35  H           1     -23.271 -10.292  -2.173  0.00  0.00     0.174 HD
ENDBRANCH  26  27
ENDBRANCH  25  26
ENDBRANCH  24  25
ENDBRANCH  23  24
BRANCH  23  36
HETATM   36  C           1     -22.005  -7.069  -1.688  0.00  0.00     0.196 C 
HETATM   37  O           1     -22.571  -5.955  -1.687  0.00  0.00    -0.646 OA
HETATM   38  O           1     -22.022  -7.779  -0.660  0.00  0.00    -0.646 OA
ENDBRANCH  23  36
ENDBRANCH   3  23
TORSDOF 13
ENDMDL
MODEL 5
REMARK VINA RESULT:      -7.9      5.027     10.542
REMARK  13 active torsions:
REMARK  status: ('A' for Active; 'I' for Inactive)
REMARK       I    between atoms: N_9  and  C_10 
REMARK       I    between atoms: C_10  and  N_11 
REMARK    1  A    between atoms: N_12  and  C_13 
REMARK    2  A    between atoms: C_13  and  C_14 
REMARK    3  A    between atoms: C_14  and  C_15 
REMARK    4  A    between atoms: C_15  and  C_16 
REMARK    5  A    between atoms: C_16  and  C_17 
REMARK    6  A    between atoms: C_16  and  N_20 
REMARK       I    between atoms: N_20  and  C_21 
REMARK    7  A    between atoms: C_21  and  C_22 
REMARK    8  A    between atoms: C_22  and  C_23 
REMARK    9  A    between atoms: C_22  and  N_35 
REMARK   10  A    between atoms: C_23  and  C_24 
REMARK   11  A    between atoms: C_27  and  O_28 
REMARK   12  A    between atoms: O_28  and  P_29 
REMARK   13  A    between atoms: P_29  and  O_30 
ROOT
HETATM    1  O           1     -19.764  -8.049  -5.900  0.00  0.00    -0.271 OA
HETATM    2  H           1     -22.104  -8.136  -3.814  0.00  0.00     0.163 HD
HETATM    3  N           1     -21.255  -8.426  -4.282  0.00  0.00    -0.345 N 
HETATM    4  C           1     -20.776  -7.702  -5.341  0.00  0.00     0.249 C 
ENDROOT
BRANCH   4   5
HETATM    5  C           1     -21.514  -6.472  -5.809  0.00  0.00     0.278 C 
BRANCH   5   6
HETATM    6  C           1     -20.512  -5.428  -6.284  0.00  0.00     0.081 C 
BRANCH   6   7
HETATM    7  C           1     -20.994  -4.818  -7.562  0.00  0.00    -0.056 A 
HETATM    8  C           1     -20.179  -4.833  -8.694  0.00  0.00     0.010 A 
HETATM    9  C           1     -20.628  -4.265  -9.885  0.00  0.00     0.038 A 
HETATM   10  C           1     -21.893  -3.681  -9.945  0.00  0.00     0.081 A 
HETATM   11  C           1     -22.709  -3.665  -8.815  0.00  0.00     0.038 A 
HETATM   12  C           1     -22.259  -4.234  -7.623  0.00  0.00     0.010 A 
BRANCH  10  13
HETATM   13  O           1     -22.330  -3.129 -11.104  0.00  0.00    -0.247 OA
BRANCH  13  14
HETATM   14  P           1     -23.592  -3.814 -11.841  0.00  0.00     0.411 P 
HETATM   15  O           1     -23.642  -5.254 -11.497  0.00  0.00    -0.624 OA
HETATM   16  O           1     -24.841  -3.156 -11.396  0.00  0.00    -0.624 OA
BRANCH  14  17
HETATM   17  O           1     -23.438  -3.649 -13.440  0.00  0.00    -0.300 OA
HETATM   18  H           1     -23.787  -4.446 -13.802  0.00  0.00     0.223 HD
ENDBRANCH  14  17
ENDBRANCH  13  14
ENDBRANCH  10  13
ENDBRANCH   6   7
ENDBRANCH   5   6
BRANCH   5  19
HETATM   19  N           1     -22.320  -5.911  -4.674  0.00  0.00    -0.066 N 
HETATM   20  H           1     -21.791  -5.131  -4.224  0.00  0.00     0.275 HD
HETATM   21  H           1     -23.229  -5.549  -5.040  0.00  0.00     0.275 HD
HETATM   22  H           1     -22.501  -6.662  -3.971  0.00  0.00     0.275 HD
ENDBRANCH   5  19
ENDBRANCH   4   5
BRANCH   3  23
HETATM   23  C           1     -20.546  -9.608  -3.831  0.00  0.00     0.185 C 
BRANCH  23  24
HETATM   24  C           1     -20.176  -9.450  -2.363  0.00  0.00     0.038 C 
BRANCH  24  25
HETATM   25  C           1     -20.343  -7.993  -1.951  0.00  0.00     0.023 C 
BRANCH  25  26
HETATM   26  C           1     -21.406  -7.890  -0.866  0.00  0.00     0.138 C 
BRANCH  26  27
HETATM   27  N           1     -22.178  -9.139  -0.814  0.00  0.00    -0.227 N 
HETATM   28  H           1     -21.883  -9.964  -1.392  0.00  0.00     0.177 HD
HETATM   29  C           1     -23.200  -9.221  -0.071  0.00  0.00     0.665 C 
HETATM   30  N           1     -23.882 -10.327  -0.024  0.00  0.00    -0.235 N 
HETATM   31  N           1     -23.557  -8.227   0.628  0.00  0.00    -0.235 N 
HETATM   32  H           1     -23.588 -11.147  -0.601  0.00  0.00     0.174 HD
HETATM   33  H           1     -24.726 -10.394   0.589  0.00  0.00     0.174 HD
HETATM   34  H           1     -24.404  -8.296   1.244  0.00  0.00     0.174 HD
HETATM   35  H           1     -23.005  -7.335   0.590  0.00  0.00     0.174 HD
ENDBRANCH  26  27
ENDBRANCH  25  26
ENDBRANCH  24  25
ENDBRANCH  23  24
BRANCH  23  36
HETATM   36  C           1     -21.430 -10.819  -4.000  0.00  0.00     0.196 C 
HETATM   37  O           1     -21.114 -11.716  -4.810  0.00  0.00    -0.646 OA
HETATM   38  O           1     -22.480 -10.925  -3.329  0.00  0.00    -0.646 OA
ENDBRANCH  23  36
ENDBRANCH   3  23
TORSDOF 13
ENDMDL
MODEL 6
REMARK VINA RESULT:      -7.9      4.764     10.022
REMARK  13 active torsions:
REMARK  status: ('A' for Active; 'I' for Inactive)
REMARK       I    between atoms: N_9  and  C_10 
REMARK       I    between atoms: C_10  and  N_11 
REMARK    1  A    between atoms: N_12  and  C_13 
REMARK    2  A    between atoms: C_13  and  C_14 
REMARK    3  A    between atoms: C_14  and  C_15 
REMARK    4  A    between atoms: C_15  and  C_16 
REMARK    5  A    between atoms: C_16  and  C_17 
REMARK    6  A    between atoms: C_16  and  N_20 
REMARK       I    between atoms: N_20  and  C_21 
REMARK    7  A    between atoms: C_21  and  C_22 
REMARK    8  A    between atoms: C_22  and  C_23 
REMARK    9  A    between atoms: C_22  and  N_35 
REMARK   10  A    between atoms: C_23  and  C_24 
REMARK   11  A    between atoms: C_27  and  O_28 
REMARK   12  A    between atoms: O_28  and  P_29 
REMARK   13  A    between atoms: P_29  and  O_30 
ROOT
HETATM    1  O           1     -21.472  -7.510  -6.083  0.00  0.00    -0.271 OA
HETATM    2  H           1     -20.755  -5.528  -3.759  0.00  0.00     0.163 HD
HETATM    3  N           1     -21.029  -6.399  -4.198  0.00  0.00    -0.345 N 
HETATM    4  C           1     -21.145  -6.472  -5.560  0.00  0.00     0.249 C 
ENDROOT
BRANCH   4   5
HETATM    5  C           1     -20.864  -5.254  -6.407  0.00  0.00     0.278 C 
BRANCH   5   6
HETATM    6  C           1     -20.317  -5.692  -7.760  0.00  0.00     0.081 C 
BRANCH   6   7
HETATM    7  C           1     -20.949  -4.874  -8.842  0.00  0.00    -0.056 A 
HETATM    8  C           1     -20.225  -4.561  -9.993  0.00  0.00     0.010 A 
HETATM    9  C           1     -20.814  -3.800 -11.002  0.00  0.00     0.038 A 
HETATM   10  C           1     -22.127  -3.351 -10.860  0.00  0.00     0.081 A 
HETATM   11  C           1     -22.851  -3.664  -9.711  0.00  0.00     0.038 A 
HETATM   12  C           1     -22.262  -4.426  -8.702  0.00  0.00     0.010 A 
BRANCH  10  13
HETATM   13  O           1     -22.699  -2.611 -11.841  0.00  0.00    -0.247 OA
BRANCH  13  14
HETATM   14  P           1     -23.841  -3.306 -12.747  0.00  0.00     0.411 P 
HETATM   15  O           1     -25.176  -2.943 -12.220  0.00  0.00    -0.624 OA
HETATM   16  O           1     -23.716  -2.837 -14.144  0.00  0.00    -0.624 OA
BRANCH  14  17
HETATM   17  O           1     -23.664  -4.910 -12.701  0.00  0.00    -0.300 OA
HETATM   18  H           1     -24.349  -5.215 -12.129  0.00  0.00     0.223 HD
ENDBRANCH  14  17
ENDBRANCH  13  14
ENDBRANCH  10  13
ENDBRANCH   6   7
ENDBRANCH   5   6
BRANCH   5  19
HETATM   19  N           1     -19.852  -4.388  -5.716  0.00  0.00    -0.066 N 
HETATM   20  H           1     -19.381  -4.937  -4.962  0.00  0.00     0.275 HD
HETATM   21  H           1     -19.140  -4.066  -6.410  0.00  0.00     0.275 HD
HETATM   22  H           1     -20.332  -3.559  -5.298  0.00  0.00     0.275 HD
ENDBRANCH   5  19
ENDBRANCH   4   5
BRANCH   3  23
HETATM   23  C           1     -21.298  -7.567  -3.383  0.00  0.00     0.185 C 
BRANCH  23  24
HETATM   24  C           1     -19.987  -8.261  -3.041  0.00  0.00     0.038 C 
BRANCH  24  25
HETATM   25  C           1     -20.098  -9.746  -3.359  0.00  0.00     0.023 C 
BRANCH  25  26
HETATM   26  C           1     -21.309  -9.985  -4.250  0.00  0.00     0.138 C 
BRANCH  26  27
HETATM   27  N           1     -20.861 -10.422  -5.580  0.00  0.00    -0.227 N 
HETATM   28  H           1     -20.201  -9.824  -6.135  0.00  0.00     0.177 HD
HETATM   29  C           1     -21.270 -11.522  -6.056  0.00  0.00     0.665 C 
HETATM   30  N           1     -20.873 -11.909  -7.232  0.00  0.00    -0.235 N 
HETATM   31  N           1     -22.065 -12.245  -5.387  0.00  0.00    -0.235 N 
HETATM   32  H           1     -20.217 -11.312  -7.784  0.00  0.00     0.174 HD
HETATM   33  H           1     -21.211 -12.816  -7.625  0.00  0.00     0.174 HD
HETATM   34  H           1     -22.404 -13.157  -5.782  0.00  0.00     0.174 HD
HETATM   35  H           1     -22.386 -11.932  -4.437  0.00  0.00     0.174 HD
ENDBRANCH  26  27
ENDBRANCH  25  26
ENDBRANCH  24  25
ENDBRANCH  23  24
BRANCH  23  36
HETATM   36  C           1     -21.991  -7.145  -2.111  0.00  0.00     0.196 C 
HETATM   37  O           1     -22.181  -7.975  -1.197  0.00  0.00    -0.646 OA
HETATM   38  O           1     -22.377  -5.964  -1.972  0.00  0.00    -0.646 OA
ENDBRANCH  23  36
ENDBRANCH   3  23
TORSDOF 13
ENDMDL
MODEL 7
REMARK VINA RESULT:      -7.5      4.837     10.028
REMARK  13 active torsions:
REMARK  status: ('A' for Active; 'I' for Inactive)
REMARK       I    between atoms: N_9  and  C_10 
REMARK       I    between atoms: C_10  and  N_11 
REMARK    1  A    between atoms: N_12  and  C_13 
REMARK    2  A    between atoms: C_13  and  C_14 
REMARK    3  A    between atoms: C_14  and  C_15 
REMARK    4  A    between atoms: C_15  and  C_16 
REMARK    5  A    between atoms: C_16  and  C_17 
REMARK    6  A    between atoms: C_16  and  N_20 
REMARK       I    between atoms: N_20  and  C_21 
REMARK    7  A    between atoms: C_21  and  C_22 
REMARK    8  A    between atoms: C_22  and  C_23 
REMARK    9  A    between atoms: C_22  and  N_35 
REMARK   10  A    between atoms: C_23  and  C_24 
REMARK   11  A    between atoms: C_27  and  O_28 
REMARK   12  A    between atoms: O_28  and  P_29 
REMARK   13  A    between atoms: P_29  and  O_30 
ROOT
HETATM    1  O           1     -20.754  -8.194  -5.654  0.00  0.00    -0.271 OA
HETATM    2  H           1     -20.899  -6.302  -3.156  0.00  0.00     0.163 HD
HETATM    3  N           1     -20.853  -7.173  -3.671  0.00  0.00    -0.345 N 
HETATM    4  C           1     -20.809  -7.156  -5.039  0.00  0.00     0.249 C 
ENDROOT
BRANCH   4   5
HETATM    5  C           1     -20.831  -5.840  -5.778  0.00  0.00     0.278 C 
BRANCH   5   6
HETATM    6  C           1     -20.065  -5.980  -7.087  0.00  0.00     0.081 C 
BRANCH   6   7
HETATM    7  C           1     -20.724  -5.150  -8.143  0.00  0.00    -0.056 A 
HETATM    8  C           1     -20.052  -4.875  -9.335  0.00  0.00     0.010 A 
HETATM    9  C           1     -20.666  -4.102 -10.320  0.00  0.00     0.038 A 
HETATM   10  C           1     -21.953  -3.604 -10.113  0.00  0.00     0.081 A 
HETATM   11  C           1     -22.625  -3.879  -8.923  0.00  0.00     0.038 A 
HETATM   12  C           1     -22.010  -4.653  -7.938  0.00  0.00     0.010 A 
BRANCH  10  13
HETATM   13  O           1     -22.550  -2.853 -11.070  0.00  0.00    -0.247 OA
BRANCH  13  14
HETATM   14  P           1     -23.866  -3.450 -11.791  0.00  0.00     0.411 P 
HETATM   15  O           1     -24.044  -2.799 -13.109  0.00  0.00    -0.624 OA
HETATM   16  O           1     -23.707  -4.909 -11.978  0.00  0.00    -0.624 OA
BRANCH  14  17
HETATM   17  O           1     -25.162  -3.164 -10.871  0.00  0.00    -0.300 OA
HETATM   18  H           1     -24.876  -3.330  -9.988  0.00  0.00     0.223 HD
ENDBRANCH  14  17
ENDBRANCH  13  14
ENDBRANCH  10  13
ENDBRANCH   6   7
ENDBRANCH   5   6
BRANCH   5  19
HETATM   19  N           1     -20.186  -4.782  -4.933  0.00  0.00    -0.066 N 
HETATM   20  H           1     -19.147  -4.863  -5.007  0.00  0.00     0.275 HD
HETATM   21  H           1     -20.487  -3.839  -5.269  0.00  0.00     0.275 HD
HETATM   22  H           1     -20.477  -4.907  -3.937  0.00  0.00     0.275 HD
ENDBRANCH   5  19
ENDBRANCH   4   5
BRANCH   3  23
HETATM   23  C           1     -20.831  -8.436  -2.960  0.00  0.00     0.185 C 
BRANCH  23  24
HETATM   24  C           1     -19.406  -8.751  -2.525  0.00  0.00     0.038 C 
BRANCH  24  25
HETATM   25  C           1     -19.237 -10.258  -2.390  0.00  0.00     0.023 C 
BRANCH  25  26
HETATM   26  C           1     -18.431 -10.787  -3.569  0.00  0.00     0.138 C 
BRANCH  26  27
HETATM   27  N           1     -18.352  -9.755  -4.613  0.00  0.00    -0.227 N 
HETATM   28  H           1     -18.655  -8.772  -4.403  0.00  0.00     0.177 HD
HETATM   29  C           1     -17.919 -10.051  -5.764  0.00  0.00     0.665 C 
HETATM   30  N           1     -17.848  -9.139  -6.687  0.00  0.00    -0.235 N 
HETATM   31  N           1     -17.553 -11.237  -6.018  0.00  0.00    -0.235 N 
HETATM   32  H           1     -18.150  -8.161  -6.478  0.00  0.00     0.174 HD
HETATM   33  H           1     -17.490  -9.384  -7.638  0.00  0.00     0.174 HD
HETATM   34  H           1     -17.193 -11.483  -6.973  0.00  0.00     0.174 HD
HETATM   35  H           1     -17.609 -11.974  -5.272  0.00  0.00     0.174 HD
ENDBRANCH  26  27
ENDBRANCH  25  26
ENDBRANCH  24  25
ENDBRANCH  23  24
BRANCH  23  36
HETATM   36  C           1     -21.719  -8.343  -1.743  0.00  0.00     0.196 C 
HETATM   37  O           1     -22.397  -9.330  -1.387  0.00  0.00    -0.646 OA
HETATM   38  O           1     -21.777  -7.278  -1.092  0.00  0.00    -0.646 OA
ENDBRANCH  23  36
ENDBRANCH   3  23
TORSDOF 13
ENDMDL
MODEL 8
REMARK VINA RESULT:      -7.4     12.096     14.487
REMARK  13 active torsions:
REMARK  status: ('A' for Active; 'I' for Inactive)
REMARK       I    between atoms: N_9  and  C_10 
REMARK       I    between atoms: C_10  and  N_11 
REMARK    1  A    between atoms: N_12  and  C_13 
REMARK    2  A    between atoms: C_13  and  C_14 
REMARK    3  A    between atoms: C_14  and  C_15 
REMARK    4  A    between atoms: C_15  and  C_16 
REMARK    5  A    between atoms: C_16  and  C_17 
REMARK    6  A    between atoms: C_16  and  N_20 
REMARK       I    between atoms: N_20  and  C_21 
REMARK    7  A    between atoms: C_21  and  C_22 
REMARK    8  A    between atoms: C_22  and  C_23 
REMARK    9  A    between atoms: C_22  and  N_35 
REMARK   10  A    between atoms: C_23  and  C_24 
REMARK   11  A    between atoms: C_27  and  O_28 
REMARK   12  A    between atoms: O_28  and  P_29 
REMARK   13  A    between atoms: P_29  and  O_30 
ROOT
HETATM    1  O           1     -34.814  -5.162 -15.483  0.00  0.00    -0.271 OA
HETATM    2  H           1     -32.177  -3.774 -14.505  0.00  0.00     0.163 HD
HETATM    3  N           1     -33.124  -4.128 -14.454  0.00  0.00    -0.345 N 
HETATM    4  C           1     -33.684  -4.741 -15.543  0.00  0.00     0.249 C 
ENDROOT
BRANCH   4   5
HETATM    5  C           1     -32.890  -4.888 -16.818  0.00  0.00     0.278 C 
BRANCH   5   6
HETATM    6  C           1     -32.314  -6.295 -16.898  0.00  0.00     0.081 C 
BRANCH   6   7
HETATM    7  C           1     -30.824  -6.220 -17.008  0.00  0.00    -0.056 A 
HETATM    8  C           1     -30.050  -5.993 -15.869  0.00  0.00     0.010 A 
HETATM    9  C           1     -28.661  -5.923 -15.971  0.00  0.00     0.038 A 
HETATM   10  C           1     -28.045  -6.080 -17.213  0.00  0.00     0.081 A 
HETATM   11  C           1     -28.817  -6.307 -18.351  0.00  0.00     0.038 A 
HETATM   12  C           1     -30.206  -6.377 -18.249  0.00  0.00     0.010 A 
BRANCH  10  13
HETATM   13  O           1     -26.695  -6.012 -17.312  0.00  0.00    -0.247 OA
BRANCH  13  14
HETATM   14  P           1     -25.815  -6.665 -16.125  0.00  0.00     0.411 P 
HETATM   15  O           1     -25.259  -5.588 -15.274  0.00  0.00    -0.624 OA
HETATM   16  O           1     -26.671  -7.550 -15.305  0.00  0.00    -0.624 OA
BRANCH  14  17
HETATM   17  O           1     -24.606  -7.525 -16.761  0.00  0.00    -0.300 OA
HETATM   18  H           1     -24.806  -8.421 -16.550  0.00  0.00     0.223 HD
ENDBRANCH  14  17
ENDBRANCH  13  14
ENDBRANCH  10  13
ENDBRANCH   6   7
ENDBRANCH   5   6
BRANCH   5  19
HETATM   19  N           1     -31.771  -3.889 -16.827  0.00  0.00    -0.066 N 
HETATM   20  H           1     -31.395  -3.795 -17.798  0.00  0.00     0.275 HD
HETATM   21  H           1     -32.130  -2.963 -16.502  0.00  0.00     0.275 HD
HETATM   22  H           1     -31.010  -4.213 -16.188  0.00  0.00     0.275 HD
ENDBRANCH   5  19
ENDBRANCH   4   5
BRANCH   3  23
HETATM   23  C           1     -33.886  -3.987 -13.229  0.00  0.00     0.185 C 
BRANCH  23  24
HETATM   24  C           1     -32.958  -4.146 -12.033  0.00  0.00     0.038 C 
BRANCH  24  25
HETATM   25  C           1     -33.753  -4.647 -10.835  0.00  0.00     0.023 C 
BRANCH  25  26
HETATM   26  C           1     -34.632  -5.816 -11.261  0.00  0.00     0.138 C 
BRANCH  26  27
HETATM   27  N           1     -33.885  -7.073 -11.109  0.00  0.00    -0.227 N 
HETATM   28  H           1     -33.071  -7.279 -11.738  0.00  0.00     0.177 HD
HETATM   29  C           1     -34.224  -7.906 -10.218  0.00  0.00     0.665 C 
HETATM   30  N           1     -33.563  -9.017 -10.083  0.00  0.00    -0.235 N 
HETATM   31  N           1     -35.206  -7.657  -9.459  0.00  0.00    -0.235 N 
HETATM   32  H           1     -32.753  -9.222 -10.710  0.00  0.00     0.174 HD
HETATM   33  H           1     -33.843  -9.706  -9.348  0.00  0.00     0.174 HD
HETATM   34  H           1     -35.487  -8.349  -8.720  0.00  0.00     0.174 HD
HETATM   35  H           1     -35.740  -6.759  -9.568  0.00  0.00     0.174 HD
ENDBRANCH  26  27
ENDBRANCH  25  26
ENDBRANCH  24  25
ENDBRANCH  23  24
BRANCH  23  36
HETATM   36  C           1     -34.528  -2.622 -13.191  0.00  0.00     0.196 C 
HETATM   37  O           1     -35.006  -2.126 -14.233  0.00  0.00    -0.646 OA
HETATM   38  O           1     -34.579  -1.986 -12.115  0.00  0.00    -0.646 OA
ENDBRANCH  23  36
ENDBRANCH   3  23
TORSDOF 13
ENDMDL
MODEL 9
REMARK VINA RESULT:      -7.4      4.519     10.306
REMARK  13 active torsions:
REMARK  status: ('A' for Active; 'I' for Inactive)
REMARK       I    between atoms: N_9  and  C_10 
REMARK       I    between atoms: C_10  and  N_11 
REMARK    1  A    between atoms: N_12  and  C_13 
REMARK    2  A    between atoms: C_13  and  C_14 
REMARK    3  A    between atoms: C_14  and  C_15 
REMARK    4  A    between atoms: C_15  and  C_16 
REMARK    5  A    between atoms: C_16  and  C_17 
REMARK    6  A    between atoms: C_16  and  N_20 
REMARK       I    between atoms: N_20  and  C_21 
REMARK    7  A    between atoms: C_21  and  C_22 
REMARK    8  A    between atoms: C_22  and  C_23 
REMARK    9  A    between atoms: C_22  and  N_35 
REMARK   10  A    between atoms: C_23  and  C_24 
REMARK   11  A    between atoms: C_27  and  O_28 
REMARK   12  A    between atoms: O_28  and  P_29 
REMARK   13  A    between atoms: P_29  and  O_30 
ROOT
HETATM    1  O           1     -22.585  -5.770  -5.576  0.00  0.00    -0.271 OA
HETATM    2  H           1     -19.792  -6.867  -4.662  0.00  0.00     0.163 HD
HETATM    3  N           1     -20.799  -6.767  -4.681  0.00  0.00    -0.345 N 
HETATM    4  C           1     -21.383  -5.891  -5.555  0.00  0.00     0.249 C 
ENDROOT
BRANCH   4   5
HETATM    5  C           1     -20.526  -5.075  -6.492  0.00  0.00     0.278 C 
BRANCH   5   6
HETATM    6  C           1     -21.289  -3.830  -6.924  0.00  0.00     0.081 C 
BRANCH   6   7
HETATM    7  C           1     -21.861  -4.043  -8.290  0.00  0.00    -0.056 A 
HETATM    8  C           1     -21.019  -4.075  -9.402  0.00  0.00     0.010 A 
HETATM    9  C           1     -21.552  -4.275 -10.675  0.00  0.00     0.038 A 
HETATM   10  C           1     -22.927  -4.443 -10.837  0.00  0.00     0.081 A 
HETATM   11  C           1     -23.769  -4.412  -9.726  0.00  0.00     0.038 A 
HETATM   12  C           1     -23.236  -4.212  -8.453  0.00  0.00     0.010 A 
BRANCH  10  13
HETATM   13  O           1     -23.445  -4.637 -12.074  0.00  0.00    -0.247 OA
BRANCH  13  14
HETATM   14  P           1     -23.913  -3.338 -12.912  0.00  0.00     0.411 P 
HETATM   15  O           1     -25.309  -2.996 -12.551  0.00  0.00    -0.624 OA
HETATM   16  O           1     -23.027  -2.198 -12.590  0.00  0.00    -0.624 OA
BRANCH  14  17
HETATM   17  O           1     -23.830  -3.656 -14.492  0.00  0.00    -0.300 OA
HETATM   18  H           1     -24.276  -4.479 -14.600  0.00  0.00     0.223 HD
ENDBRANCH  14  17
ENDBRANCH  13  14
ENDBRANCH  10  13
ENDBRANCH   6   7
ENDBRANCH   5   6
BRANCH   5  19
HETATM   19  N           1     -20.185  -5.896  -7.700  0.00  0.00    -0.066 N 
HETATM   20  H           1     -19.209  -6.259  -7.611  0.00  0.00     0.275 HD
HETATM   21  H           1     -20.849  -6.700  -7.771  0.00  0.00     0.275 HD
HETATM   22  H           1     -20.261  -5.303  -8.557  0.00  0.00     0.275 HD
ENDBRANCH   5  19
ENDBRANCH   4   5
BRANCH   3  23
HETATM   23  C           1     -21.622  -7.551  -3.781  0.00  0.00     0.185 C 
BRANCH  23  24
HETATM   24  C           1     -21.052  -8.959  -3.668  0.00  0.00     0.038 C 
BRANCH  24  25
HETATM   25  C           1     -19.638  -8.981  -4.232  0.00  0.00     0.023 C 
BRANCH  25  26
HETATM   26  C           1     -19.293 -10.394  -4.685  0.00  0.00     0.138 C 
BRANCH  26  27
HETATM   27  N           1     -18.078 -10.848  -3.994  0.00  0.00    -0.227 N 
HETATM   28  H           1     -18.119 -11.111  -2.978  0.00  0.00     0.177 HD
HETATM   29  C           1     -16.983 -10.925  -4.624  0.00  0.00     0.665 C 
HETATM   30  N           1     -15.909 -11.328  -4.013  0.00  0.00    -0.235 N 
HETATM   31  N           1     -16.933 -10.609  -5.849  0.00  0.00    -0.235 N 
HETATM   32  H           1     -15.949 -11.588  -3.002  0.00  0.00     0.174 HD
HETATM   33  H           1     -15.004 -11.391  -4.533  0.00  0.00     0.174 HD
HETATM   34  H           1     -16.025 -10.673  -6.371  0.00  0.00     0.174 HD
HETATM   35  H           1     -17.802 -10.285  -6.343  0.00  0.00     0.174 HD
ENDBRANCH  26  27
ENDBRANCH  25  26
ENDBRANCH  24  25
ENDBRANCH  23  24
BRANCH  23  36
HETATM   36  C           1     -21.636  -6.903  -2.418  0.00  0.00     0.196 C 
HETATM   37  O           1     -22.344  -5.895  -2.213  0.00  0.00    -0.646 OA
HETATM   38  O           1     -20.938  -7.375  -1.495  0.00  0.00    -0.646 OA
ENDBRANCH  23  36
ENDBRANCH   3  23
TORSDOF 13
ENDMDL
