MODEL 1
REMARK VINA RESULT:      -5.4      0.000      0.000
REMARK  8 active torsions:
REMARK  status: ('A' for Active; 'I' for Inactive)
REMARK    1  A    between atoms: C_1  and  C_9 
REMARK    2  A    between atoms: C_1  and  C_20 
REMARK    3  A    between atoms: C_1  and  N_15 
REMARK    4  A    between atoms: N_6  and  C_19 
REMARK    5  A    between atoms: O_7  and  C_11 
REMARK    6  A    between atoms: C_9  and  S_17 
REMARK       I    between atoms: C_10  and  N_15 
REMARK    7  A    between atoms: C_10  and  C_19 
REMARK    8  A    between atoms: C_11  and  C_19 
ROOT
HETATM    1  H           1     -35.315  -2.045 -13.762  0.00  0.00     0.163 HD
HETATM    2  C           1     -34.115  -2.554 -12.154  0.00  0.00     0.251 C 
HETATM    3  O           1     -33.577  -2.148 -11.152  0.00  0.00    -0.271 OA
HETATM    4  N           1     -34.864  -1.703 -12.922  0.00  0.00    -0.344 N 
ENDROOT
BRANCH   2   5
HETATM    5  C           1     -33.963  -4.000 -12.560  0.00  0.00     0.302 C 
BRANCH   5   6
HETATM    6  N           1     -32.552  -4.442 -12.309  0.00  0.00    -0.064 N 
HETATM    7  H           1     -31.937  -3.604 -12.204  0.00  0.00     0.275 HD
HETATM    8  H           1     -32.516  -5.011 -11.432  0.00  0.00     0.275 HD
HETATM    9  H           1     -32.220  -5.022 -13.113  0.00  0.00     0.275 HD
ENDBRANCH   5   6
BRANCH   5  10
HETATM   10  C           1     -34.917  -4.861 -11.743  0.00  0.00     0.153 C 
HETATM   11  C           1     -34.123  -5.686 -10.739  0.00  0.00     0.042 C 
BRANCH  10  12
HETATM   12  O           1     -35.821  -4.036 -11.058  0.00  0.00    -0.393 OA
HETATM   13  H           1     -35.312  -3.369 -10.628  0.00  0.00     0.210 HD
ENDBRANCH  10  12
ENDBRANCH   5  10
ENDBRANCH   2   5
BRANCH   4  14
HETATM   14  C           1     -35.012  -0.314 -12.533  0.00  0.00     0.194 C 
BRANCH  14  15
HETATM   15  C           1     -35.098   0.555 -13.779  0.00  0.00     0.106 C 
BRANCH  15  16
HETATM   16  S           1     -35.626  -0.459 -15.189  0.00  0.00    -0.180 SA
HETATM   17  H           1     -34.826  -1.505 -14.916  0.00  0.00     0.101 HD
ENDBRANCH  15  16
ENDBRANCH  14  15
BRANCH  14  18
HETATM   18  C           1     -36.271  -0.153 -11.716  0.00  0.00     0.197 C 
HETATM   19  O           1     -37.336  -0.684 -12.100  0.00  0.00    -0.646 OA
HETATM   20  O           1     -36.249   0.511 -10.658  0.00  0.00    -0.646 OA
ENDBRANCH  14  18
ENDBRANCH   4  14
TORSDOF 8
ENDMDL
MODEL 2
REMARK VINA RESULT:      -5.1      2.567      3.113
REMARK  8 active torsions:
REMARK  status: ('A' for Active; 'I' for Inactive)
REMARK    1  A    between atoms: C_1  and  C_9 
REMARK    2  A    between atoms: C_1  and  C_20 
REMARK    3  A    between atoms: C_1  and  N_15 
REMARK    4  A    between atoms: N_6  and  C_19 
REMARK    5  A    between atoms: O_7  and  C_11 
REMARK    6  A    between atoms: C_9  and  S_17 
REMARK       I    between atoms: C_10  and  N_15 
REMARK    7  A    between atoms: C_10  and  C_19 
REMARK    8  A    between atoms: C_11  and  C_19 
ROOT
HETATM    1  H           1     -33.919  -1.396 -14.291  0.00  0.00     0.163 HD
HETATM    2  C           1     -35.061  -1.885 -12.635  0.00  0.00     0.251 C 
HETATM    3  O           1     -36.177  -1.911 -12.174  0.00  0.00    -0.271 OA
HETATM    4  N           1     -34.855  -1.418 -13.906  0.00  0.00    -0.344 N 
ENDROOT
BRANCH   2   5
HETATM    5  C           1     -33.892  -2.367 -11.810  0.00  0.00     0.302 C 
BRANCH   5   6
HETATM    6  N           1     -34.114  -2.005 -10.372  0.00  0.00    -0.064 N 
HETATM    7  H           1     -34.989  -2.461 -10.029  0.00  0.00     0.275 HD
HETATM    8  H           1     -33.303  -2.335  -9.801  0.00  0.00     0.275 HD
HETATM    9  H           1     -34.202  -0.967 -10.284  0.00  0.00     0.275 HD
ENDBRANCH   5   6
BRANCH   5  10
HETATM   10  C           1     -33.769  -3.879 -11.939  0.00  0.00     0.153 C 
HETATM   11  C           1     -34.008  -4.525 -10.581  0.00  0.00     0.042 C 
BRANCH  10  12
HETATM   12  O           1     -34.721  -4.351 -12.854  0.00  0.00    -0.393 OA
HETATM   13  H           1     -35.552  -4.349 -12.409  0.00  0.00     0.210 HD
ENDBRANCH  10  12
ENDBRANCH   5  10
ENDBRANCH   2   5
BRANCH   4  14
HETATM   14  C           1     -35.978  -0.955 -14.699  0.00  0.00     0.194 C 
BRANCH  14  15
HETATM   15  C           1     -36.225   0.520 -14.415  0.00  0.00     0.106 C 
BRANCH  15  16
HETATM   16  S           1     -34.657   1.323 -13.975  0.00  0.00    -0.180 SA
HETATM   17  H           1     -34.665   2.208 -14.989  0.00  0.00     0.101 HD
ENDBRANCH  15  16
ENDBRANCH  14  15
BRANCH  14  18
HETATM   18  C           1     -35.667  -1.141 -16.164  0.00  0.00     0.197 C 
HETATM   19  O           1     -36.439  -0.675 -17.030  0.00  0.00    -0.646 OA
HETATM   20  O           1     -34.640  -1.761 -16.511  0.00  0.00    -0.646 OA
ENDBRANCH  14  18
ENDBRANCH   4  14
TORSDOF 8
ENDMDL
MODEL 3
REMARK VINA RESULT:      -5.1     12.516     13.868
REMARK  8 active torsions:
REMARK  status: ('A' for Active; 'I' for Inactive)
REMARK    1  A    between atoms: C_1  and  C_9 
REMARK    2  A    between atoms: C_1  and  C_20 
REMARK    3  A    between atoms: C_1  and  N_15 
REMARK    4  A    between atoms: N_6  and  C_19 
REMARK    5  A    between atoms: O_7  and  C_11 
REMARK    6  A    between atoms: C_9  and  S_17 
REMARK       I    between atoms: C_10  and  N_15 
REMARK    7  A    between atoms: C_10  and  C_19 
REMARK    8  A    between atoms: C_11  and  C_19 
ROOT
HETATM    1  H           1     -23.153  -5.451  -7.837  0.00  0.00     0.163 HD
HETATM    2  C           1     -21.621  -4.301  -7.053  0.00  0.00     0.251 C 
HETATM    3  O           1     -20.938  -3.317  -7.215  0.00  0.00    -0.271 OA
HETATM    4  N           1     -22.581  -4.626  -7.973  0.00  0.00    -0.344 N 
ENDROOT
BRANCH   2   5
HETATM    5  C           1     -21.415  -5.170  -5.837  0.00  0.00     0.302 C 
BRANCH   5   6
HETATM    6  N           1     -22.686  -5.905  -5.528  0.00  0.00    -0.064 N 
HETATM    7  H           1     -23.408  -5.667  -6.245  0.00  0.00     0.275 HD
HETATM    8  H           1     -22.506  -6.934  -5.544  0.00  0.00     0.275 HD
HETATM    9  H           1     -23.027  -5.625  -4.581  0.00  0.00     0.275 HD
ENDBRANCH   5   6
BRANCH   5  10
HETATM   10  C           1     -20.304  -6.175  -6.113  0.00  0.00     0.153 C 
HETATM   11  C           1     -20.701  -7.536  -5.558  0.00  0.00     0.042 C 
BRANCH  10  12
HETATM   12  O           1     -20.098  -6.277  -7.496  0.00  0.00    -0.393 OA
HETATM   13  H           1     -20.445  -5.491  -7.884  0.00  0.00     0.210 HD
ENDBRANCH  10  12
ENDBRANCH   5  10
ENDBRANCH   2   5
BRANCH   4  14
HETATM   14  C           1     -22.780  -3.791  -9.142  0.00  0.00     0.194 C 
BRANCH  14  15
HETATM   15  C           1     -21.911  -4.301 -10.283  0.00  0.00     0.106 C 
BRANCH  15  16
HETATM   16  S           1     -21.934  -3.102 -11.645  0.00  0.00    -0.180 SA
HETATM   17  H           1     -23.270  -3.093 -11.801  0.00  0.00     0.101 HD
ENDBRANCH  15  16
ENDBRANCH  14  15
BRANCH  14  18
HETATM   18  C           1     -24.231  -3.839  -9.552  0.00  0.00     0.197 C 
HETATM   19  O           1     -24.734  -4.913  -9.946  0.00  0.00    -0.646 OA
HETATM   20  O           1     -24.931  -2.805  -9.497  0.00  0.00    -0.646 OA
ENDBRANCH  14  18
ENDBRANCH   4  14
TORSDOF 8
ENDMDL
MODEL 4
REMARK VINA RESULT:      -4.5     25.374     26.647
REMARK  8 active torsions:
REMARK  status: ('A' for Active; 'I' for Inactive)
REMARK    1  A    between atoms: C_1  and  C_9 
REMARK    2  A    between atoms: C_1  and  C_20 
REMARK    3  A    between atoms: C_1  and  N_15 
REMARK    4  A    between atoms: N_6  and  C_19 
REMARK    5  A    between atoms: O_7  and  C_11 
REMARK    6  A    between atoms: C_9  and  S_17 
REMARK       I    between atoms: C_10  and  N_15 
REMARK    7  A    between atoms: C_10  and  C_19 
REMARK    8  A    between atoms: C_11  and  C_19 
ROOT
HETATM    1  H           1     -12.527   6.348 -21.362  0.00  0.00     0.163 HD
HETATM    2  C           1     -11.219   6.501 -19.765  0.00  0.00     0.251 C 
HETATM    3  O           1     -10.789   5.948 -18.781  0.00  0.00    -0.271 OA
HETATM    4  N           1     -12.166   5.883 -20.538  0.00  0.00    -0.344 N 
ENDROOT
BRANCH   2   5
HETATM    5  C           1     -10.714   7.871 -20.143  0.00  0.00     0.302 C 
BRANCH   5   6
HETATM    6  N           1     -10.236   8.584 -18.913  0.00  0.00    -0.064 N 
HETATM    7  H           1     -10.401   9.610 -19.018  0.00  0.00     0.275 HD
HETATM    8  H           1     -10.760   8.231 -18.080  0.00  0.00     0.275 HD
HETATM    9  H           1      -9.214   8.406 -18.782  0.00  0.00     0.275 HD
ENDBRANCH   5   6
BRANCH   5  10
HETATM   10  C           1      -9.561   7.734 -21.129  0.00  0.00     0.153 C 
HETATM   11  C           1      -8.837   9.068 -21.252  0.00  0.00     0.042 C 
BRANCH  10  12
HETATM   12  O           1      -8.666   6.758 -20.669  0.00  0.00    -0.393 OA
HETATM   13  H           1      -8.697   6.779 -19.727  0.00  0.00     0.210 HD
ENDBRANCH  10  12
ENDBRANCH   5  10
ENDBRANCH   2   5
BRANCH   4  14
HETATM   14  C           1     -12.653   4.567 -20.175  0.00  0.00     0.194 C 
BRANCH  14  15
HETATM   15  C           1     -14.175   4.560 -20.214  0.00  0.00     0.106 C 
BRANCH  15  16
HETATM   16  S           1     -14.741   5.105 -21.850  0.00  0.00    -0.180 SA
HETATM   17  H           1     -15.977   5.464 -21.458  0.00  0.00     0.101 HD
ENDBRANCH  15  16
ENDBRANCH  14  15
BRANCH  14  18
HETATM   18  C           1     -12.118   3.548 -21.152  0.00  0.00     0.197 C 
HETATM   19  O           1     -11.269   3.886 -22.004  0.00  0.00    -0.646 OA
HETATM   20  O           1     -12.525   2.367 -21.109  0.00  0.00    -0.646 OA
ENDBRANCH  14  18
ENDBRANCH   4  14
TORSDOF 8
ENDMDL
MODEL 5
REMARK VINA RESULT:      -4.5      2.122      2.512
REMARK  8 active torsions:
REMARK  status: ('A' for Active; 'I' for Inactive)
REMARK    1  A    between atoms: C_1  and  C_9 
REMARK    2  A    between atoms: C_1  and  C_20 
REMARK    3  A    between atoms: C_1  and  N_15 
REMARK    4  A    between atoms: N_6  and  C_19 
REMARK    5  A    between atoms: O_7  and  C_11 
REMARK    6  A    between atoms: C_9  and  S_17 
REMARK       I    between atoms: C_10  and  N_15 
REMARK    7  A    between atoms: C_10  and  C_19 
REMARK    8  A    between atoms: C_11  and  C_19 
ROOT
HETATM    1  H           1     -33.887  -1.452 -13.727  0.00  0.00     0.163 HD
HETATM    2  C           1     -34.791  -2.819 -12.463  0.00  0.00     0.251 C 
HETATM    3  O           1     -35.802  -3.096 -11.863  0.00  0.00    -0.271 OA
HETATM    4  N           1     -34.736  -1.684 -13.226  0.00  0.00    -0.344 N 
ENDROOT
BRANCH   2   5
HETATM    5  C           1     -33.587  -3.725 -12.371  0.00  0.00     0.302 C 
BRANCH   5   6
HETATM    6  N           1     -32.709  -3.275 -11.241  0.00  0.00    -0.064 N 
HETATM    7  H           1     -31.709  -3.311 -11.542  0.00  0.00     0.275 HD
HETATM    8  H           1     -32.957  -2.294 -10.977  0.00  0.00     0.275 HD
HETATM    9  H           1     -32.850  -3.903 -10.418  0.00  0.00     0.275 HD
ENDBRANCH   5   6
BRANCH   5  10
HETATM   10  C           1     -34.045  -5.155 -12.117  0.00  0.00     0.153 C 
HETATM   11  C           1     -34.495  -5.294 -10.669  0.00  0.00     0.042 C 
BRANCH  10  12
HETATM   12  O           1     -35.115  -5.461 -12.970  0.00  0.00    -0.393 OA
HETATM   13  H           1     -35.720  -4.740 -12.921  0.00  0.00     0.210 HD
ENDBRANCH  10  12
ENDBRANCH   5  10
ENDBRANCH   2   5
BRANCH   4  14
HETATM   14  C           1     -35.892  -0.813 -13.315  0.00  0.00     0.194 C 
BRANCH  14  15
HETATM   15  C           1     -35.895   0.148 -12.134  0.00  0.00     0.106 C 
BRANCH  15  16
HETATM   16  S           1     -37.408  -0.093 -11.161  0.00  0.00    -0.180 SA
HETATM   17  H           1     -38.034   1.015 -11.598  0.00  0.00     0.101 HD
ENDBRANCH  15  16
ENDBRANCH  14  15
BRANCH  14  18
HETATM   18  C           1     -35.831  -0.029 -14.603  0.00  0.00     0.197 C 
HETATM   19  O           1     -34.726   0.322 -15.069  0.00  0.00    -0.646 OA
HETATM   20  O           1     -36.886   0.270 -15.203  0.00  0.00    -0.646 OA
ENDBRANCH  14  18
ENDBRANCH   4  14
TORSDOF 8
ENDMDL
MODEL 6
REMARK VINA RESULT:      -4.4     14.545     16.319
REMARK  8 active torsions:
REMARK  status: ('A' for Active; 'I' for Inactive)
REMARK    1  A    between atoms: C_1  and  C_9 
REMARK    2  A    between atoms: C_1  and  C_20 
REMARK    3  A    between atoms: C_1  and  N_15 
REMARK    4  A    between atoms: N_6  and  C_19 
REMARK    5  A    between atoms: O_7  and  C_11 
REMARK    6  A    between atoms: C_9  and  S_17 
REMARK       I    between atoms: C_10  and  N_15 
REMARK    7  A    between atoms: C_10  and  C_19 
REMARK    8  A    between atoms: C_11  and  C_19 
ROOT
HETATM    1  H           1     -20.846  -4.850  -4.439  0.00  0.00     0.163 HD
HETATM    2  C           1     -20.942  -5.590  -6.370  0.00  0.00     0.251 C 
HETATM    3  O           1     -21.140  -6.572  -7.046  0.00  0.00    -0.271 OA
HETATM    4  N           1     -21.013  -5.673  -5.005  0.00  0.00    -0.344 N 
ENDROOT
BRANCH   2   5
HETATM    5  C           1     -20.615  -4.273  -7.029  0.00  0.00     0.302 C 
BRANCH   5   6
HETATM    6  N           1     -19.549  -4.483  -8.063  0.00  0.00    -0.064 N 
HETATM    7  H           1     -18.610  -4.329  -7.632  0.00  0.00     0.275 HD
HETATM    8  H           1     -19.608  -5.460  -8.430  0.00  0.00     0.275 HD
HETATM    9  H           1     -19.688  -3.808  -8.849  0.00  0.00     0.275 HD
ENDBRANCH   5   6
BRANCH   5  10
HETATM   10  C           1     -21.865  -3.714  -7.696  0.00  0.00     0.153 C 
HETATM   11  C           1     -21.820  -4.012  -9.189  0.00  0.00     0.042 C 
BRANCH  10  12
HETATM   12  O           1     -23.002  -4.314  -7.136  0.00  0.00    -0.393 OA
HETATM   13  H           1     -22.990  -5.220  -7.394  0.00  0.00     0.210 HD
ENDBRANCH  10  12
ENDBRANCH   5  10
ENDBRANCH   2   5
BRANCH   4  14
HETATM   14  C           1     -21.327  -6.939  -4.370  0.00  0.00     0.194 C 
BRANCH  14  15
HETATM   15  C           1     -20.144  -7.886  -4.515  0.00  0.00     0.106 C 
BRANCH  15  16
HETATM   16  S           1     -20.744  -9.542  -4.952  0.00  0.00    -0.180 SA
HETATM   17  H           1     -19.544 -10.147  -4.888  0.00  0.00     0.101 HD
ENDBRANCH  15  16
ENDBRANCH  14  15
BRANCH  14  18
HETATM   18  C           1     -21.613  -6.709  -2.906  0.00  0.00     0.197 C 
HETATM   19  O           1     -22.515  -5.913  -2.564  0.00  0.00    -0.646 OA
HETATM   20  O           1     -20.949  -7.313  -2.037  0.00  0.00    -0.646 OA
ENDBRANCH  14  18
ENDBRANCH   4  14
TORSDOF 8
ENDMDL
MODEL 7
REMARK VINA RESULT:      -4.1     16.574     18.089
REMARK  8 active torsions:
REMARK  status: ('A' for Active; 'I' for Inactive)
REMARK    1  A    between atoms: C_1  and  C_9 
REMARK    2  A    between atoms: C_1  and  C_20 
REMARK    3  A    between atoms: C_1  and  N_15 
REMARK    4  A    between atoms: N_6  and  C_19 
REMARK    5  A    between atoms: O_7  and  C_11 
REMARK    6  A    between atoms: C_9  and  S_17 
REMARK       I    between atoms: C_10  and  N_15 
REMARK    7  A    between atoms: C_10  and  C_19 
REMARK    8  A    between atoms: C_11  and  C_19 
ROOT
HETATM    1  H           1     -20.262  -7.578  -1.766  0.00  0.00     0.163 HD
HETATM    2  C           1     -21.203  -8.530  -3.344  0.00  0.00     0.251 C 
HETATM    3  O           1     -22.075  -9.307  -3.655  0.00  0.00    -0.271 OA
HETATM    4  N           1     -20.993  -8.229  -2.025  0.00  0.00    -0.344 N 
ENDROOT
BRANCH   2   5
HETATM    5  C           1     -20.347  -7.891  -4.410  0.00  0.00     0.302 C 
BRANCH   5   6
HETATM    6  N           1     -20.404  -8.719  -5.659  0.00  0.00    -0.064 N 
HETATM    7  H           1     -20.661  -8.110  -6.469  0.00  0.00     0.275 HD
HETATM    8  H           1     -19.469  -9.152  -5.832  0.00  0.00     0.275 HD
HETATM    9  H           1     -21.120  -9.471  -5.546  0.00  0.00     0.275 HD
ENDBRANCH   5   6
BRANCH   5  10
HETATM   10  C           1     -20.867  -6.490  -4.706  0.00  0.00     0.153 C 
HETATM   11  C           1     -21.273  -6.399  -6.171  0.00  0.00     0.042 C 
BRANCH  10  12
HETATM   12  O           1     -21.979  -6.222  -3.896  0.00  0.00    -0.393 OA
HETATM   13  H           1     -22.710  -6.079  -4.474  0.00  0.00     0.210 HD
ENDBRANCH  10  12
ENDBRANCH   5  10
ENDBRANCH   2   5
BRANCH   4  14
HETATM   14  C           1     -21.815  -8.843  -1.000  0.00  0.00     0.194 C 
BRANCH  14  15
HETATM   15  C           1     -20.920  -9.484   0.051  0.00  0.00     0.106 C 
BRANCH  15  16
HETATM   16  S           1     -21.388 -11.225   0.264  0.00  0.00    -0.180 SA
HETATM   17  H           1     -22.105 -11.041   1.387  0.00  0.00     0.101 HD
ENDBRANCH  15  16
ENDBRANCH  14  15
BRANCH  14  18
HETATM   18  C           1     -22.679  -7.789  -0.352  0.00  0.00     0.197 C 
HETATM   19  O           1     -22.737  -6.641  -0.844  0.00  0.00    -0.646 OA
HETATM   20  O           1     -23.335  -8.063   0.675  0.00  0.00    -0.646 OA
ENDBRANCH  14  18
ENDBRANCH   4  14
TORSDOF 8
ENDMDL
MODEL 8
REMARK VINA RESULT:      -4.1     16.244     17.844
REMARK  8 active torsions:
REMARK  status: ('A' for Active; 'I' for Inactive)
REMARK    1  A    between atoms: C_1  and  C_9 
REMARK    2  A    between atoms: C_1  and  C_20 
REMARK    3  A    between atoms: C_1  and  N_15 
REMARK    4  A    between atoms: N_6  and  C_19 
REMARK    5  A    between atoms: O_7  and  C_11 
REMARK    6  A    between atoms: C_9  and  S_17 
REMARK       I    between atoms: C_10  and  N_15 
REMARK    7  A    between atoms: C_10  and  C_19 
REMARK    8  A    between atoms: C_11  and  C_19 
ROOT
HETATM    1  H           1     -22.367  -8.781  -3.659  0.00  0.00     0.163 HD
HETATM    2  C           1     -21.139  -8.430  -2.030  0.00  0.00     0.251 C 
HETATM    3  O           1     -20.096  -7.944  -1.662  0.00  0.00    -0.271 OA
HETATM    4  N           1     -21.493  -8.372  -3.351  0.00  0.00    -0.344 N 
ENDROOT
BRANCH   2   5
HETATM    5  C           1     -22.052  -9.101  -1.033  0.00  0.00     0.302 C 
BRANCH   5   6
HETATM    6  N           1     -21.244  -9.992  -0.138  0.00  0.00    -0.064 N 
HETATM    7  H           1     -20.605 -10.581  -0.717  0.00  0.00     0.275 HD
HETATM    8  H           1     -20.679  -9.407   0.518  0.00  0.00     0.275 HD
HETATM    9  H           1     -21.885 -10.608   0.411  0.00  0.00     0.275 HD
ENDBRANCH   5   6
BRANCH   5  10
HETATM   10  C           1     -22.754  -8.041  -0.194  0.00  0.00     0.153 C 
HETATM   11  C           1     -22.086  -7.951   1.172  0.00  0.00     0.042 C 
BRANCH  10  12
HETATM   12  O           1     -22.666  -6.800  -0.838  0.00  0.00    -0.393 OA
HETATM   13  H           1     -22.790  -6.139  -0.178  0.00  0.00     0.210 HD
ENDBRANCH  10  12
ENDBRANCH   5  10
ENDBRANCH   2   5
BRANCH   4  14
HETATM   14  C           1     -20.617  -7.728  -4.310  0.00  0.00     0.194 C 
BRANCH  14  15
HETATM   15  C           1     -19.813  -8.786  -5.053  0.00  0.00     0.106 C 
BRANCH  15  16
HETATM   16  S           1     -20.808 -10.295  -5.220  0.00  0.00    -0.180 SA
HETATM   17  H           1     -19.773 -11.117  -5.473  0.00  0.00     0.101 HD
ENDBRANCH  15  16
ENDBRANCH  14  15
BRANCH  14  18
HETATM   18  C           1     -21.444  -6.938  -5.295  0.00  0.00     0.197 C 
HETATM   19  O           1     -22.417  -6.264  -4.893  0.00  0.00    -0.646 OA
HETATM   20  O           1     -21.157  -6.959  -6.510  0.00  0.00    -0.646 OA
ENDBRANCH  14  18
ENDBRANCH   4  14
TORSDOF 8
ENDMDL
MODEL 9
REMARK VINA RESULT:      -4.0     17.280     18.395
REMARK  8 active torsions:
REMARK  status: ('A' for Active; 'I' for Inactive)
REMARK    1  A    between atoms: C_1  and  C_9 
REMARK    2  A    between atoms: C_1  and  C_20 
REMARK    3  A    between atoms: C_1  and  N_15 
REMARK    4  A    between atoms: N_6  and  C_19 
REMARK    5  A    between atoms: O_7  and  C_11 
REMARK    6  A    between atoms: C_9  and  S_17 
REMARK       I    between atoms: C_10  and  N_15 
REMARK    7  A    between atoms: C_10  and  C_19 
REMARK    8  A    between atoms: C_11  and  C_19 
ROOT
HETATM    1  H           1     -22.367  -9.454  -2.806  0.00  0.00     0.163 HD
HETATM    2  C           1     -21.460 -10.074  -1.052  0.00  0.00     0.251 C 
HETATM    3  O           1     -20.740  -9.745  -0.139  0.00  0.00    -0.271 OA
HETATM    4  N           1     -21.764  -9.177  -2.041  0.00  0.00    -0.344 N 
ENDROOT
BRANCH   2   5
HETATM    5  C           1     -22.024 -11.472  -1.102  0.00  0.00     0.302 C 
BRANCH   5   6
HETATM    6  N           1     -21.172 -12.384  -0.269  0.00  0.00    -0.064 N 
HETATM    7  H           1     -21.587 -12.471   0.686  0.00  0.00     0.275 HD
HETATM    8  H           1     -21.130 -13.327  -0.717  0.00  0.00     0.275 HD
HETATM    9  H           1     -20.207 -11.989  -0.197  0.00  0.00     0.275 HD
ENDBRANCH   5   6
BRANCH   5  10
HETATM   10  C           1     -23.445 -11.467  -0.556  0.00  0.00     0.153 C 
HETATM   11  C           1     -23.550 -12.459   0.595  0.00  0.00     0.042 C 
BRANCH  10  12
HETATM   12  O           1     -23.765 -10.182  -0.095  0.00  0.00    -0.393 OA
HETATM   13  H           1     -23.476 -10.132   0.800  0.00  0.00     0.210 HD
ENDBRANCH  10  12
ENDBRANCH   5  10
ENDBRANCH   2   5
BRANCH   4  14
HETATM   14  C           1     -21.223  -7.833  -1.994  0.00  0.00     0.194 C 
BRANCH  14  15
HETATM   15  C           1     -20.799  -7.408  -3.392  0.00  0.00     0.106 C 
BRANCH  15  16
HETATM   16  S           1     -21.336  -8.656  -4.594  0.00  0.00    -0.180 SA
HETATM   17  H           1     -20.572  -8.212  -5.609  0.00  0.00     0.101 HD
ENDBRANCH  15  16
ENDBRANCH  14  15
BRANCH  14  18
HETATM   18  C           1     -22.278  -6.885  -1.477  0.00  0.00     0.197 C 
HETATM   19  O           1     -22.531  -5.832  -2.101  0.00  0.00    -0.646 OA
HETATM   20  O           1     -22.898  -7.153  -0.425  0.00  0.00    -0.646 OA
ENDBRANCH  14  18
ENDBRANCH   4  14
TORSDOF 8
ENDMDL
