MODEL 1
REMARK VINA RESULT:      -7.7      0.000      0.000
REMARK  11 active torsions:
REMARK  status: ('A' for Active; 'I' for Inactive)
REMARK    1  A    between atoms: S_1  and  C_2 
REMARK    2  A    between atoms: C_2  and  C_3 
REMARK    3  A    between atoms: C_3  and  C_4 
REMARK    4  A    between atoms: C_3  and  N_7 
REMARK       I    between atoms: N_7  and  C_8 
REMARK    5  A    between atoms: C_8  and  C_9 
REMARK    6  A    between atoms: C_9  and  C_10 
REMARK    7  A    between atoms: C_9  and  N_22 
REMARK    8  A    between atoms: C_10  and  C_11 
REMARK    9  A    between atoms: C_14  and  O_15 
REMARK   10  A    between atoms: O_15  and  P_16 
REMARK   11  A    between atoms: P_16  and  O_17 
ROOT
HETATM    1  C           1     -20.828  -4.810  -6.615  0.00  0.00     0.278 C 
ENDROOT
BRANCH   1   2
HETATM    2  C           1     -21.613  -5.706  -5.688  0.00  0.00     0.249 C 
HETATM    3  N           1     -20.958  -6.584  -4.867  0.00  0.00    -0.344 N 
HETATM    4  H           1     -19.947  -6.632  -4.882  0.00  0.00     0.163 HD
HETATM    5  O           1     -22.820  -5.648  -5.672  0.00  0.00    -0.271 OA
BRANCH   3   6
HETATM    6  C           1     -21.712  -7.445  -3.978  0.00  0.00     0.194 C 
BRANCH   6   7
HETATM    7  C           1     -21.103  -8.841  -3.982  0.00  0.00     0.106 C 
BRANCH   7   8
HETATM    8  S           1     -19.487  -8.796  -4.807  0.00  0.00    -0.180 SA
HETATM    9  H           1     -19.203 -10.098  -4.631  0.00  0.00     0.101 HD
ENDBRANCH   7   8
ENDBRANCH   6   7
BRANCH   6  10
HETATM   10  C           1     -21.668  -6.883  -2.577  0.00  0.00     0.197 C 
HETATM   11  O           1     -20.890  -7.374  -1.731  0.00  0.00    -0.646 OA
HETATM   12  O           1     -22.412  -5.929  -2.264  0.00  0.00    -0.646 OA
ENDBRANCH   6  10
ENDBRANCH   3   6
ENDBRANCH   1   2
BRANCH   1  13
HETATM   13  C           1     -20.602  -5.524  -7.942  0.00  0.00     0.081 C 
BRANCH  13  14
HETATM   14  C           1     -21.205  -4.720  -9.051  0.00  0.00    -0.056 A 
HETATM   15  C           1     -22.543  -4.328  -8.980  0.00  0.00     0.010 A 
HETATM   16  C           1     -23.105  -3.579 -10.013  0.00  0.00     0.038 A 
HETATM   17  C           1     -22.332  -3.222 -11.117  0.00  0.00     0.081 A 
HETATM   18  C           1     -20.994  -3.613 -11.188  0.00  0.00     0.038 A 
HETATM   19  C           1     -20.432  -4.362 -10.155  0.00  0.00     0.010 A 
BRANCH  17  20
HETATM   20  O           1     -22.877  -2.493 -12.121  0.00  0.00    -0.247 OA
BRANCH  20  21
HETATM   21  P           1     -23.943  -3.220 -13.094  0.00  0.00     0.411 P 
HETATM   22  O           1     -25.314  -2.816 -12.710  0.00  0.00    -0.624 OA
HETATM   23  O           1     -23.682  -2.821 -14.495  0.00  0.00    -0.624 OA
BRANCH  21  24
HETATM   24  O           1     -23.795  -4.821 -12.954  0.00  0.00    -0.300 OA
HETATM   25  H           1     -24.151  -5.170 -13.754  0.00  0.00     0.223 HD
ENDBRANCH  21  24
ENDBRANCH  20  21
ENDBRANCH  17  20
ENDBRANCH  13  14
ENDBRANCH   1  13
BRANCH   1  26
HETATM   26  N           1     -19.503  -4.484  -5.992  0.00  0.00    -0.066 N 
HETATM   27  H           1     -19.396  -3.447  -5.923  0.00  0.00     0.275 HD
HETATM   28  H           1     -19.456  -4.904  -5.036  0.00  0.00     0.275 HD
HETATM   29  H           1     -18.735  -4.875  -6.583  0.00  0.00     0.275 HD
ENDBRANCH   1  26
TORSDOF 11
ENDMDL
MODEL 2
REMARK VINA RESULT:      -7.4      0.639      1.308
REMARK  11 active torsions:
REMARK  status: ('A' for Active; 'I' for Inactive)
REMARK    1  A    between atoms: S_1  and  C_2 
REMARK    2  A    between atoms: C_2  and  C_3 
REMARK    3  A    between atoms: C_3  and  C_4 
REMARK    4  A    between atoms: C_3  and  N_7 
REMARK       I    between atoms: N_7  and  C_8 
REMARK    5  A    between atoms: C_8  and  C_9 
REMARK    6  A    between atoms: C_9  and  C_10 
REMARK    7  A    between atoms: C_9  and  N_22 
REMARK    8  A    between atoms: C_10  and  C_11 
REMARK    9  A    between atoms: C_14  and  O_15 
REMARK   10  A    between atoms: O_15  and  P_16 
REMARK   11  A    between atoms: P_16  and  O_17 
ROOT
HETATM    1  C           1     -21.035  -4.986  -6.331  0.00  0.00     0.278 C 
ENDROOT
BRANCH   1   2
HETATM    2  C           1     -21.708  -6.093  -5.558  0.00  0.00     0.249 C 
HETATM    3  N           1     -20.965  -7.127  -5.054  0.00  0.00    -0.344 N 
HETATM    4  H           1     -19.964  -7.149  -5.202  0.00  0.00     0.163 HD
HETATM    5  O           1     -22.904  -6.067  -5.382  0.00  0.00    -0.271 OA
BRANCH   3   6
HETATM    6  C           1     -21.612  -8.190  -4.312  0.00  0.00     0.194 C 
BRANCH   6   7
HETATM    7  C           1     -21.038  -9.534  -4.741  0.00  0.00     0.106 C 
BRANCH   7   8
HETATM    8  S           1     -19.248  -9.376  -4.996  0.00  0.00    -0.180 SA
HETATM    9  H           1     -19.183  -8.061  -4.722  0.00  0.00     0.101 HD
ENDBRANCH   7   8
ENDBRANCH   6   7
BRANCH   6  10
HETATM   10  C           1     -21.372  -7.990  -2.835  0.00  0.00     0.197 C 
HETATM   11  O           1     -20.943  -6.894  -2.414  0.00  0.00    -0.646 OA
HETATM   12  O           1     -21.602  -8.921  -2.034  0.00  0.00    -0.646 OA
ENDBRANCH   6  10
ENDBRANCH   3   6
ENDBRANCH   1   2
BRANCH   1  13
HETATM   13  C           1     -20.535  -5.528  -7.664  0.00  0.00     0.081 C 
BRANCH  13  14
HETATM   14  C           1     -21.142  -4.743  -8.784  0.00  0.00    -0.056 A 
HETATM   15  C           1     -20.396  -4.474  -9.932  0.00  0.00     0.010 A 
HETATM   16  C           1     -20.961  -3.742 -10.976  0.00  0.00     0.038 A 
HETATM   17  C           1     -22.273  -3.279 -10.872  0.00  0.00     0.081 A 
HETATM   18  C           1     -23.020  -3.549  -9.725  0.00  0.00     0.038 A 
HETATM   19  C           1     -22.454  -4.280  -8.681  0.00  0.00     0.010 A 
BRANCH  17  20
HETATM   20  O           1     -22.824  -2.569 -11.886  0.00  0.00    -0.247 OA
BRANCH  20  21
HETATM   21  P           1     -23.862  -3.323 -12.866  0.00  0.00     0.411 P 
HETATM   22  O           1     -25.246  -2.937 -12.508  0.00  0.00    -0.624 OA
HETATM   23  O           1     -23.587  -2.937 -14.267  0.00  0.00    -0.624 OA
BRANCH  21  24
HETATM   24  O           1     -23.691  -4.920 -12.705  0.00  0.00    -0.300 OA
HETATM   25  H           1     -24.015  -5.283 -13.512  0.00  0.00     0.223 HD
ENDBRANCH  21  24
ENDBRANCH  20  21
ENDBRANCH  17  20
ENDBRANCH  13  14
ENDBRANCH   1  13
BRANCH   1  26
HETATM   26  N           1     -19.875  -4.458  -5.541  0.00  0.00    -0.066 N 
HETATM   27  H           1     -19.790  -3.427  -5.692  0.00  0.00     0.275 HD
HETATM   28  H           1     -20.030  -4.649  -4.525  0.00  0.00     0.275 HD
HETATM   29  H           1     -18.997  -4.929  -5.854  0.00  0.00     0.275 HD
ENDBRANCH   1  26
TORSDOF 11
ENDMDL
MODEL 3
REMARK VINA RESULT:      -7.0      1.908      2.151
REMARK  11 active torsions:
REMARK  status: ('A' for Active; 'I' for Inactive)
REMARK    1  A    between atoms: S_1  and  C_2 
REMARK    2  A    between atoms: C_2  and  C_3 
REMARK    3  A    between atoms: C_3  and  C_4 
REMARK    4  A    between atoms: C_3  and  N_7 
REMARK       I    between atoms: N_7  and  C_8 
REMARK    5  A    between atoms: C_8  and  C_9 
REMARK    6  A    between atoms: C_9  and  C_10 
REMARK    7  A    between atoms: C_9  and  N_22 
REMARK    8  A    between atoms: C_10  and  C_11 
REMARK    9  A    between atoms: C_14  and  O_15 
REMARK   10  A    between atoms: O_15  and  P_16 
REMARK   11  A    between atoms: P_16  and  O_17 
ROOT
HETATM    1  C           1     -21.573  -5.711  -7.057  0.00  0.00     0.278 C 
ENDROOT
BRANCH   1   2
HETATM    2  C           1     -20.791  -6.730  -6.264  0.00  0.00     0.249 C 
HETATM    3  N           1     -21.330  -7.276  -5.131  0.00  0.00    -0.344 N 
HETATM    4  H           1     -22.253  -6.997  -4.825  0.00  0.00     0.163 HD
HETATM    5  O           1     -19.688  -7.062  -6.630  0.00  0.00    -0.271 OA
BRANCH   3   6
HETATM    6  C           1     -20.579  -8.254  -4.370  0.00  0.00     0.194 C 
BRANCH   6   7
HETATM    7  C           1     -20.748  -7.980  -2.881  0.00  0.00     0.106 C 
BRANCH   7   8
HETATM    8  S           1     -21.759  -6.491  -2.649  0.00  0.00    -0.180 SA
HETATM    9  H           1     -22.714  -7.084  -1.911  0.00  0.00     0.101 HD
ENDBRANCH   7   8
ENDBRANCH   6   7
BRANCH   6  10
HETATM   10  C           1     -21.089  -9.639  -4.686  0.00  0.00     0.197 C 
HETATM   11  O           1     -20.757 -10.198  -5.754  0.00  0.00    -0.646 OA
HETATM   12  O           1     -21.844 -10.225  -3.881  0.00  0.00    -0.646 OA
ENDBRANCH   6  10
ENDBRANCH   3   6
ENDBRANCH   1   2
BRANCH   1  13
HETATM   13  C           1     -20.620  -4.669  -7.627  0.00  0.00     0.081 C 
BRANCH  13  14
HETATM   14  C           1     -21.190  -4.108  -8.892  0.00  0.00    -0.056 A 
HETATM   15  C           1     -22.523  -3.699  -8.934  0.00  0.00     0.010 A 
HETATM   16  C           1     -23.055  -3.175 -10.112  0.00  0.00     0.038 A 
HETATM   17  C           1     -22.254  -3.061 -11.248  0.00  0.00     0.081 A 
HETATM   18  C           1     -20.921  -3.469 -11.206  0.00  0.00     0.038 A 
HETATM   19  C           1     -20.389  -3.992 -10.028  0.00  0.00     0.010 A 
BRANCH  17  20
HETATM   20  O           1     -22.770  -2.552 -12.393  0.00  0.00    -0.247 OA
BRANCH  20  21
HETATM   21  P           1     -23.921  -3.397 -13.149  0.00  0.00     0.411 P 
HETATM   22  O           1     -25.251  -2.933 -12.693  0.00  0.00    -0.624 OA
HETATM   23  O           1     -23.801  -3.195 -14.610  0.00  0.00    -0.624 OA
BRANCH  21  24
HETATM   24  O           1     -23.751  -4.965 -12.805  0.00  0.00    -0.300 OA
HETATM   25  H           1     -22.849  -5.160 -12.997  0.00  0.00     0.223 HD
ENDBRANCH  21  24
ENDBRANCH  20  21
ENDBRANCH  17  20
ENDBRANCH  13  14
ENDBRANCH   1  13
BRANCH   1  26
HETATM   26  N           1     -22.570  -5.039  -6.160  0.00  0.00    -0.066 N 
HETATM   27  H           1     -23.195  -4.426  -6.731  0.00  0.00     0.275 HD
HETATM   28  H           1     -23.143  -5.764  -5.672  0.00  0.00     0.275 HD
HETATM   29  H           1     -22.066  -4.458  -5.453  0.00  0.00     0.275 HD
ENDBRANCH   1  26
TORSDOF 11
ENDMDL
MODEL 4
REMARK VINA RESULT:      -6.9      2.358      3.225
REMARK  11 active torsions:
REMARK  status: ('A' for Active; 'I' for Inactive)
REMARK    1  A    between atoms: S_1  and  C_2 
REMARK    2  A    between atoms: C_2  and  C_3 
REMARK    3  A    between atoms: C_3  and  C_4 
REMARK    4  A    between atoms: C_3  and  N_7 
REMARK       I    between atoms: N_7  and  C_8 
REMARK    5  A    between atoms: C_8  and  C_9 
REMARK    6  A    between atoms: C_9  and  C_10 
REMARK    7  A    between atoms: C_9  and  N_22 
REMARK    8  A    between atoms: C_10  and  C_11 
REMARK    9  A    between atoms: C_14  and  O_15 
REMARK   10  A    between atoms: O_15  and  P_16 
REMARK   11  A    between atoms: P_16  and  O_17 
ROOT
HETATM    1  C           1     -21.430  -6.317  -5.387  0.00  0.00     0.278 C 
ENDROOT
BRANCH   1   2
HETATM    2  C           1     -20.655  -7.611  -5.443  0.00  0.00     0.249 C 
HETATM    3  N           1     -21.093  -8.702  -4.742  0.00  0.00    -0.344 N 
HETATM    4  H           1     -21.937  -8.641  -4.186  0.00  0.00     0.163 HD
HETATM    5  O           1     -19.648  -7.683  -6.107  0.00  0.00    -0.271 OA
BRANCH   3   6
HETATM    6  C           1     -20.349  -9.944  -4.795  0.00  0.00     0.194 C 
BRANCH   6   7
HETATM    7  C           1     -19.987 -10.383  -3.382  0.00  0.00     0.106 C 
BRANCH   7   8
HETATM    8  S           1     -18.436  -9.588  -2.877  0.00  0.00    -0.180 SA
HETATM    9  H           1     -17.880 -10.690  -2.345  0.00  0.00     0.101 HD
ENDBRANCH   7   8
ENDBRANCH   6   7
BRANCH   6  10
HETATM   10  C           1     -21.194 -11.010  -5.451  0.00  0.00     0.197 C 
HETATM   11  O           1     -21.119 -11.195  -6.685  0.00  0.00    -0.646 OA
HETATM   12  O           1     -21.968 -11.705  -4.760  0.00  0.00    -0.646 OA
ENDBRANCH   6  10
ENDBRANCH   3   6
ENDBRANCH   1   2
BRANCH   1  13
HETATM   13  C           1     -20.540  -5.171  -5.850  0.00  0.00     0.081 C 
BRANCH  13  14
HETATM   14  C           1     -21.010  -4.679  -7.183  0.00  0.00    -0.056 A 
HETATM   15  C           1     -20.170  -4.766  -8.294  0.00  0.00     0.010 A 
HETATM   16  C           1     -20.608  -4.309  -9.537  0.00  0.00     0.038 A 
HETATM   17  C           1     -21.885  -3.765  -9.669  0.00  0.00     0.081 A 
HETATM   18  C           1     -22.726  -3.679  -8.559  0.00  0.00     0.038 A 
HETATM   19  C           1     -22.288  -4.136  -7.317  0.00  0.00     0.010 A 
BRANCH  17  20
HETATM   20  O           1     -22.312  -3.320 -10.877  0.00  0.00    -0.247 OA
BRANCH  20  21
HETATM   21  P           1     -23.641  -3.988 -11.505  0.00  0.00     0.411 P 
HETATM   22  O           1     -23.777  -5.375 -11.007  0.00  0.00    -0.624 OA
HETATM   23  O           1     -24.826  -3.199 -11.102  0.00  0.00    -0.624 OA
BRANCH  21  24
HETATM   24  O           1     -23.526  -4.003 -13.115  0.00  0.00    -0.300 OA
HETATM   25  H           1     -24.128  -4.672 -13.396  0.00  0.00     0.223 HD
ENDBRANCH  21  24
ENDBRANCH  20  21
ENDBRANCH  17  20
ENDBRANCH  13  14
ENDBRANCH   1  13
BRANCH   1  26
HETATM   26  N           1     -21.878  -6.063  -3.978  0.00  0.00    -0.066 N 
HETATM   27  H           1     -22.908  -5.886  -3.966  0.00  0.00     0.275 HD
HETATM   28  H           1     -21.662  -6.898  -3.389  0.00  0.00     0.275 HD
HETATM   29  H           1     -21.376  -5.229  -3.599  0.00  0.00     0.275 HD
ENDBRANCH   1  26
TORSDOF 11
ENDMDL
MODEL 5
REMARK VINA RESULT:      -6.7      4.258      9.211
REMARK  11 active torsions:
REMARK  status: ('A' for Active; 'I' for Inactive)
REMARK    1  A    between atoms: S_1  and  C_2 
REMARK    2  A    between atoms: C_2  and  C_3 
REMARK    3  A    between atoms: C_3  and  C_4 
REMARK    4  A    between atoms: C_3  and  N_7 
REMARK       I    between atoms: N_7  and  C_8 
REMARK    5  A    between atoms: C_8  and  C_9 
REMARK    6  A    between atoms: C_9  and  C_10 
REMARK    7  A    between atoms: C_9  and  N_22 
REMARK    8  A    between atoms: C_10  and  C_11 
REMARK    9  A    between atoms: C_14  and  O_15 
REMARK   10  A    between atoms: O_15  and  P_16 
REMARK   11  A    between atoms: P_16  and  O_17 
ROOT
HETATM    1  C           1     -21.151  -5.548  -6.438  0.00  0.00     0.278 C 
ENDROOT
BRANCH   1   2
HETATM    2  C           1     -21.605  -4.488  -7.412  0.00  0.00     0.249 C 
HETATM    3  N           1     -22.234  -4.849  -8.572  0.00  0.00    -0.344 N 
HETATM    4  H           1     -22.395  -5.826  -8.778  0.00  0.00     0.163 HD
HETATM    5  O           1     -21.412  -3.320  -7.166  0.00  0.00    -0.271 OA
BRANCH   3   6
HETATM    6  C           1     -22.669  -3.831  -9.508  0.00  0.00     0.194 C 
BRANCH   6   7
HETATM    7  C           1     -22.019  -4.072 -10.864  0.00  0.00     0.106 C 
BRANCH   7   8
HETATM    8  S           1     -22.606  -2.829 -12.048  0.00  0.00    -0.180 SA
HETATM    9  H           1     -23.437  -3.651 -12.713  0.00  0.00     0.101 HD
ENDBRANCH   7   8
ENDBRANCH   6   7
BRANCH   6  10
HETATM   10  C           1     -24.170  -3.890  -9.654  0.00  0.00     0.197 C 
HETATM   11  O           1     -24.726  -4.965  -9.967  0.00  0.00    -0.646 OA
HETATM   12  O           1     -24.857  -2.864  -9.463  0.00  0.00    -0.646 OA
ENDBRANCH   6  10
ENDBRANCH   3   6
ENDBRANCH   1   2
BRANCH   1  13
HETATM   13  C           1     -22.316  -5.948  -5.542  0.00  0.00     0.081 C 
BRANCH  13  14
HETATM   14  C           1     -21.815  -6.805  -4.422  0.00  0.00    -0.056 A 
HETATM   15  C           1     -21.407  -8.115  -4.677  0.00  0.00     0.010 A 
HETATM   16  C           1     -20.939  -8.915  -3.634  0.00  0.00     0.038 A 
HETATM   17  C           1     -20.880  -8.405  -2.337  0.00  0.00     0.081 A 
HETATM   18  C           1     -21.287  -7.096  -2.083  0.00  0.00     0.038 A 
HETATM   19  C           1     -21.755  -6.296  -3.125  0.00  0.00     0.010 A 
BRANCH  17  20
HETATM   20  O           1     -20.425  -9.181  -1.323  0.00  0.00    -0.247 OA
BRANCH  20  21
HETATM   21  P           1     -21.469  -9.607  -0.167  0.00  0.00     0.411 P 
HETATM   22  O           1     -21.041 -10.891   0.434  0.00  0.00    -0.624 OA
HETATM   23  O           1     -21.501  -8.559   0.877  0.00  0.00    -0.624 OA
BRANCH  21  24
HETATM   24  O           1     -22.941  -9.776  -0.805  0.00  0.00    -0.300 OA
HETATM   25  H           1     -22.792  -9.982  -1.713  0.00  0.00     0.223 HD
ENDBRANCH  21  24
ENDBRANCH  20  21
ENDBRANCH  17  20
ENDBRANCH  13  14
ENDBRANCH   1  13
BRANCH   1  26
HETATM   26  N           1     -20.035  -5.008  -5.595  0.00  0.00    -0.066 N 
HETATM   27  H           1     -19.305  -5.744  -5.469  0.00  0.00     0.275 HD
HETATM   28  H           1     -19.614  -4.176  -6.067  0.00  0.00     0.275 HD
HETATM   29  H           1     -20.410  -4.725  -4.661  0.00  0.00     0.275 HD
ENDBRANCH   1  26
TORSDOF 11
ENDMDL
MODEL 6
REMARK VINA RESULT:      -6.7      2.302      3.012
REMARK  11 active torsions:
REMARK  status: ('A' for Active; 'I' for Inactive)
REMARK    1  A    between atoms: S_1  and  C_2 
REMARK    2  A    between atoms: C_2  and  C_3 
REMARK    3  A    between atoms: C_3  and  C_4 
REMARK    4  A    between atoms: C_3  and  N_7 
REMARK       I    between atoms: N_7  and  C_8 
REMARK    5  A    between atoms: C_8  and  C_9 
REMARK    6  A    between atoms: C_9  and  C_10 
REMARK    7  A    between atoms: C_9  and  N_22 
REMARK    8  A    between atoms: C_10  and  C_11 
REMARK    9  A    between atoms: C_14  and  O_15 
REMARK   10  A    between atoms: O_15  and  P_16 
REMARK   11  A    between atoms: P_16  and  O_17 
ROOT
HETATM    1  C           1     -21.558  -6.634  -5.645  0.00  0.00     0.278 C 
ENDROOT
BRANCH   1   2
HETATM    2  C           1     -20.844  -7.569  -4.700  0.00  0.00     0.249 C 
HETATM    3  N           1     -21.423  -7.914  -3.509  0.00  0.00    -0.344 N 
HETATM    4  H           1     -22.332  -7.543  -3.263  0.00  0.00     0.163 HD
HETATM    5  O           1     -19.758  -8.012  -4.995  0.00  0.00    -0.271 OA
BRANCH   3   6
HETATM    6  C           1     -20.737  -8.811  -2.602  0.00  0.00     0.194 C 
BRANCH   6   7
HETATM    7  C           1     -20.660  -8.177  -1.219  0.00  0.00     0.106 C 
BRANCH   7   8
HETATM    8  S           1     -22.216  -7.316  -0.859  0.00  0.00    -0.180 SA
HETATM    9  H           1     -21.680  -6.393  -0.041  0.00  0.00     0.101 HD
ENDBRANCH   7   8
ENDBRANCH   6   7
BRANCH   6  10
HETATM   10  C           1     -21.492 -10.115  -2.515  0.00  0.00     0.197 C 
HETATM   11  O           1     -22.268 -10.450  -3.436  0.00  0.00    -0.646 OA
HETATM   12  O           1     -21.344 -10.858  -1.521  0.00  0.00    -0.646 OA
ENDBRANCH   6  10
ENDBRANCH   3   6
ENDBRANCH   1   2
BRANCH   1  13
HETATM   13  C           1     -20.664  -5.441  -5.953  0.00  0.00     0.081 C 
BRANCH  13  14
HETATM   14  C           1     -21.032  -4.870  -7.287  0.00  0.00    -0.056 A 
HETATM   15  C           1     -20.186  -5.055  -8.381  0.00  0.00     0.010 A 
HETATM   16  C           1     -20.529  -4.525  -9.625  0.00  0.00     0.038 A 
HETATM   17  C           1     -21.716  -3.809  -9.775  0.00  0.00     0.081 A 
HETATM   18  C           1     -22.563  -3.626  -8.681  0.00  0.00     0.038 A 
HETATM   19  C           1     -22.220  -4.156  -7.437  0.00  0.00     0.010 A 
BRANCH  17  20
HETATM   20  O           1     -22.050  -3.294 -10.983  0.00  0.00    -0.247 OA
BRANCH  20  21
HETATM   21  P           1     -23.451  -3.753 -11.643  0.00  0.00     0.411 P 
HETATM   22  O           1     -23.436  -3.446 -13.091  0.00  0.00    -0.624 OA
HETATM   23  O           1     -23.634  -5.208 -11.448  0.00  0.00    -0.624 OA
BRANCH  21  24
HETATM   24  O           1     -24.665  -2.958 -10.937  0.00  0.00    -0.300 OA
HETATM   25  H           1     -24.648  -3.235 -10.037  0.00  0.00     0.223 HD
ENDBRANCH  21  24
ENDBRANCH  20  21
ENDBRANCH  17  20
ENDBRANCH  13  14
ENDBRANCH   1  13
BRANCH   1  26
HETATM   26  N           1     -22.829  -6.155  -5.008  0.00  0.00    -0.066 N 
HETATM   27  H           1     -22.676  -5.208  -4.594  0.00  0.00     0.275 HD
HETATM   28  H           1     -23.582  -6.103  -5.730  0.00  0.00     0.275 HD
HETATM   29  H           1     -23.114  -6.822  -4.255  0.00  0.00     0.275 HD
ENDBRANCH   1  26
TORSDOF 11
ENDMDL
MODEL 7
REMARK VINA RESULT:      -6.3      1.875      2.385
REMARK  11 active torsions:
REMARK  status: ('A' for Active; 'I' for Inactive)
REMARK    1  A    between atoms: S_1  and  C_2 
REMARK    2  A    between atoms: C_2  and  C_3 
REMARK    3  A    between atoms: C_3  and  C_4 
REMARK    4  A    between atoms: C_3  and  N_7 
REMARK       I    between atoms: N_7  and  C_8 
REMARK    5  A    between atoms: C_8  and  C_9 
REMARK    6  A    between atoms: C_9  and  C_10 
REMARK    7  A    between atoms: C_9  and  N_22 
REMARK    8  A    between atoms: C_10  and  C_11 
REMARK    9  A    between atoms: C_14  and  O_15 
REMARK   10  A    between atoms: O_15  and  P_16 
REMARK   11  A    between atoms: P_16  and  O_17 
ROOT
HETATM    1  C           1     -20.228  -6.382  -5.539  0.00  0.00     0.278 C 
ENDROOT
BRANCH   1   2
HETATM    2  C           1     -21.131  -7.064  -4.541  0.00  0.00     0.249 C 
HETATM    3  N           1     -20.732  -7.203  -3.239  0.00  0.00    -0.344 N 
HETATM    4  H           1     -19.831  -6.847  -2.946  0.00  0.00     0.163 HD
HETATM    5  O           1     -22.207  -7.489  -4.892  0.00  0.00    -0.271 OA
BRANCH   3   6
HETATM    6  C           1     -21.599  -7.859  -2.281  0.00  0.00     0.194 C 
BRANCH   6   7
HETATM    7  C           1     -20.767  -8.742  -1.361  0.00  0.00     0.106 C 
BRANCH   7   8
HETATM    8  S           1     -21.474 -10.413  -1.321  0.00  0.00    -0.180 SA
HETATM    9  H           1     -20.894 -10.783  -0.165  0.00  0.00     0.101 HD
ENDBRANCH   7   8
ENDBRANCH   6   7
BRANCH   6  10
HETATM   10  C           1     -22.320  -6.818  -1.459  0.00  0.00     0.197 C 
HETATM   11  O           1     -22.342  -5.627  -1.839  0.00  0.00    -0.646 OA
HETATM   12  O           1     -22.894  -7.146  -0.399  0.00  0.00    -0.646 OA
ENDBRANCH   6  10
ENDBRANCH   3   6
ENDBRANCH   1   2
BRANCH   1  13
HETATM   13  C           1     -20.474  -4.879  -5.503  0.00  0.00     0.081 C 
BRANCH  13  14
HETATM   14  C           1     -21.167  -4.455  -6.760  0.00  0.00    -0.056 A 
HETATM   15  C           1     -22.559  -4.518  -6.844  0.00  0.00     0.010 A 
HETATM   16  C           1     -23.206  -4.123  -8.015  0.00  0.00     0.038 A 
HETATM   17  C           1     -22.462  -3.666  -9.102  0.00  0.00     0.081 A 
HETATM   18  C           1     -21.070  -3.602  -9.018  0.00  0.00     0.038 A 
HETATM   19  C           1     -20.424  -3.997  -7.847  0.00  0.00     0.010 A 
BRANCH  17  20
HETATM   20  O           1     -23.089  -3.281 -10.240  0.00  0.00    -0.247 OA
BRANCH  20  21
HETATM   21  P           1     -23.247  -4.369 -11.424  0.00  0.00     0.411 P 
HETATM   22  O           1     -23.817  -5.618 -10.872  0.00  0.00    -0.624 OA
HETATM   23  O           1     -24.148  -3.833 -12.468  0.00  0.00    -0.624 OA
BRANCH  21  24
HETATM   24  O           1     -21.800  -4.677 -12.069  0.00  0.00    -0.300 OA
HETATM   25  H           1     -21.955  -5.358 -12.702  0.00  0.00     0.223 HD
ENDBRANCH  21  24
ENDBRANCH  20  21
ENDBRANCH  17  20
ENDBRANCH  13  14
ENDBRANCH   1  13
BRANCH   1  26
HETATM   26  N           1     -20.519  -6.903  -6.915  0.00  0.00    -0.066 N 
HETATM   27  H           1     -21.497  -7.267  -6.951  0.00  0.00     0.275 HD
HETATM   28  H           1     -20.408  -6.130  -7.609  0.00  0.00     0.275 HD
HETATM   29  H           1     -19.852  -7.674  -7.142  0.00  0.00     0.275 HD
ENDBRANCH   1  26
TORSDOF 11
ENDMDL
MODEL 8
REMARK VINA RESULT:      -6.0      1.842      2.622
REMARK  11 active torsions:
REMARK  status: ('A' for Active; 'I' for Inactive)
REMARK    1  A    between atoms: S_1  and  C_2 
REMARK    2  A    between atoms: C_2  and  C_3 
REMARK    3  A    between atoms: C_3  and  C_4 
REMARK    4  A    between atoms: C_3  and  N_7 
REMARK       I    between atoms: N_7  and  C_8 
REMARK    5  A    between atoms: C_8  and  C_9 
REMARK    6  A    between atoms: C_9  and  C_10 
REMARK    7  A    between atoms: C_9  and  N_22 
REMARK    8  A    between atoms: C_10  and  C_11 
REMARK    9  A    between atoms: C_14  and  O_15 
REMARK   10  A    between atoms: O_15  and  P_16 
REMARK   11  A    between atoms: P_16  and  O_17 
ROOT
HETATM    1  C           1     -20.270  -6.283  -6.280  0.00  0.00     0.278 C 
ENDROOT
BRANCH   1   2
HETATM    2  C           1     -20.451  -6.747  -4.856  0.00  0.00     0.249 C 
HETATM    3  N           1     -20.106  -8.023  -4.503  0.00  0.00    -0.344 N 
HETATM    4  H           1     -19.730  -8.656  -5.197  0.00  0.00     0.163 HD
HETATM    5  O           1     -20.901  -5.991  -4.027  0.00  0.00    -0.271 OA
BRANCH   3   6
HETATM    6  C           1     -20.281  -8.469  -3.135  0.00  0.00     0.194 C 
BRANCH   6   7
HETATM    7  C           1     -21.559  -9.291  -3.025  0.00  0.00     0.106 C 
BRANCH   7   8
HETATM    8  S           1     -21.537 -10.614  -4.267  0.00  0.00    -0.180 SA
HETATM    9  H           1     -20.988 -11.547  -3.469  0.00  0.00     0.101 HD
ENDBRANCH   7   8
ENDBRANCH   6   7
BRANCH   6  10
HETATM   10  C           1     -19.101  -9.319  -2.728  0.00  0.00     0.197 C 
HETATM   11  O           1     -18.054  -9.302  -3.411  0.00  0.00    -0.646 OA
HETATM   12  O           1     -19.172 -10.040  -1.710  0.00  0.00    -0.646 OA
ENDBRANCH   6  10
ENDBRANCH   3   6
ENDBRANCH   1   2
BRANCH   1  13
HETATM   13  C           1     -20.317  -4.761  -6.329  0.00  0.00     0.081 C 
BRANCH  13  14
HETATM   14  C           1     -20.881  -4.320  -7.644  0.00  0.00    -0.056 A 
HETATM   15  C           1     -20.105  -4.410  -8.800  0.00  0.00     0.010 A 
HETATM   16  C           1     -20.630  -3.999 -10.025  0.00  0.00     0.038 A 
HETATM   17  C           1     -21.930  -3.498 -10.094  0.00  0.00     0.081 A 
HETATM   18  C           1     -22.706  -3.409  -8.938  0.00  0.00     0.038 A 
HETATM   19  C           1     -22.181  -3.820  -7.713  0.00  0.00     0.010 A 
BRANCH  17  20
HETATM   20  O           1     -22.442  -3.099 -11.284  0.00  0.00    -0.247 OA
BRANCH  20  21
HETATM   21  P           1     -23.813  -3.785 -11.790  0.00  0.00     0.411 P 
HETATM   22  O           1     -24.004  -3.502 -13.230  0.00  0.00    -0.624 OA
HETATM   23  O           1     -23.739  -5.248 -11.579  0.00  0.00    -0.624 OA
BRANCH  21  24
HETATM   24  O           1     -25.056  -3.184 -10.954  0.00  0.00    -0.300 OA
HETATM   25  H           1     -25.601  -2.762 -11.597  0.00  0.00     0.223 HD
ENDBRANCH  21  24
ENDBRANCH  20  21
ENDBRANCH  17  20
ENDBRANCH  13  14
ENDBRANCH   1  13
BRANCH   1  26
HETATM   26  N           1     -21.370  -6.844  -7.132  0.00  0.00    -0.066 N 
HETATM   27  H           1     -21.125  -6.726  -8.141  0.00  0.00     0.275 HD
HETATM   28  H           1     -21.491  -7.859  -6.919  0.00  0.00     0.275 HD
HETATM   29  H           1     -22.261  -6.336  -6.929  0.00  0.00     0.275 HD
ENDBRANCH   1  26
TORSDOF 11
ENDMDL
MODEL 9
REMARK VINA RESULT:      -6.0      4.148      8.443
REMARK  11 active torsions:
REMARK  status: ('A' for Active; 'I' for Inactive)
REMARK    1  A    between atoms: S_1  and  C_2 
REMARK    2  A    between atoms: C_2  and  C_3 
REMARK    3  A    between atoms: C_3  and  C_4 
REMARK    4  A    between atoms: C_3  and  N_7 
REMARK       I    between atoms: N_7  and  C_8 
REMARK    5  A    between atoms: C_8  and  C_9 
REMARK    6  A    between atoms: C_9  and  C_10 
REMARK    7  A    between atoms: C_9  and  N_22 
REMARK    8  A    between atoms: C_10  and  C_11 
REMARK    9  A    between atoms: C_14  and  O_15 
REMARK   10  A    between atoms: O_15  and  P_16 
REMARK   11  A    between atoms: P_16  and  O_17 
ROOT
HETATM    1  C           1     -20.665  -4.558  -9.825  0.00  0.00     0.278 C 
ENDROOT
BRANCH   1   2
HETATM    2  C           1     -21.366  -3.648 -10.803  0.00  0.00     0.249 C 
HETATM    3  N           1     -22.637  -3.939 -11.219  0.00  0.00    -0.344 N 
HETATM    4  H           1     -23.107  -4.765 -10.869  0.00  0.00     0.163 HD
HETATM    5  O           1     -20.805  -2.662 -11.220  0.00  0.00    -0.271 OA
BRANCH   3   6
HETATM    6  C           1     -23.311  -3.066 -12.159  0.00  0.00     0.194 C 
BRANCH   6   7
HETATM    7  C           1     -23.105  -3.587 -13.576  0.00  0.00     0.106 C 
BRANCH   7   8
HETATM    8  S           1     -23.024  -2.189 -14.730  0.00  0.00    -0.180 SA
HETATM    9  H           1     -23.058  -1.228 -13.790  0.00  0.00     0.101 HD
ENDBRANCH   7   8
ENDBRANCH   6   7
BRANCH   6  10
HETATM   10  C           1     -24.787  -3.032 -11.846  0.00  0.00     0.197 C 
HETATM   11  O           1     -25.180  -3.185 -10.669  0.00  0.00    -0.646 OA
HETATM   12  O           1     -25.616  -2.854 -12.764  0.00  0.00    -0.646 OA
ENDBRANCH   6  10
ENDBRANCH   3   6
ENDBRANCH   1   2
BRANCH   1  13
HETATM   13  C           1     -20.211  -3.751  -8.616  0.00  0.00     0.081 C 
BRANCH  13  14
HETATM   14  C           1     -20.554  -4.492  -7.361  0.00  0.00    -0.056 A 
HETATM   15  C           1     -19.747  -4.360  -6.231  0.00  0.00     0.010 A 
HETATM   16  C           1     -20.066  -5.049  -5.062  0.00  0.00     0.038 A 
HETATM   17  C           1     -21.192  -5.872  -5.022  0.00  0.00     0.081 A 
HETATM   18  C           1     -22.000  -6.003  -6.153  0.00  0.00     0.038 A 
HETATM   19  C           1     -21.680  -5.313  -7.322  0.00  0.00     0.010 A 
BRANCH  17  20
HETATM   20  O           1     -21.504  -6.542  -3.887  0.00  0.00    -0.247 OA
BRANCH  20  21
HETATM   21  P           1     -20.903  -8.029  -3.694  0.00  0.00     0.411 P 
HETATM   22  O           1     -21.926  -9.027  -4.082  0.00  0.00    -0.624 OA
HETATM   23  O           1     -19.706  -8.191  -4.548  0.00  0.00    -0.624 OA
BRANCH  21  24
HETATM   24  O           1     -20.496  -8.250  -2.148  0.00  0.00    -0.300 OA
HETATM   25  H           1     -19.999  -9.050  -2.139  0.00  0.00     0.223 HD
ENDBRANCH  21  24
ENDBRANCH  20  21
ENDBRANCH  17  20
ENDBRANCH  13  14
ENDBRANCH   1  13
BRANCH   1  26
HETATM   26  N           1     -19.471  -5.179 -10.487  0.00  0.00    -0.066 N 
HETATM   27  H           1     -19.276  -4.687 -11.388  0.00  0.00     0.275 HD
HETATM   28  H           1     -18.641  -5.095  -9.858  0.00  0.00     0.275 HD
HETATM   29  H           1     -19.664  -6.188 -10.676  0.00  0.00     0.275 HD
ENDBRANCH   1  26
TORSDOF 11
ENDMDL
