MODEL 1
REMARK VINA RESULT:      -7.2      0.000      0.000
REMARK  10 active torsions:
REMARK  status: ('A' for Active; 'I' for Inactive)
REMARK    1  A    between atoms: C_5  and  C_20 
REMARK    2  A    between atoms: S_7  and  C_23 
REMARK    3  A    between atoms: C_8  and  C_9 
REMARK    4  A    between atoms: C_9  and  C_16 
REMARK    5  A    between atoms: C_12  and  O_25 
REMARK    6  A    between atoms: N_14  and  C_16 
REMARK    7  A    between atoms: C_16  and  C_21 
REMARK    8  A    between atoms: C_20  and  C_24 
REMARK    9  A    between atoms: C_20  and  N_22 
REMARK       I    between atoms: C_21  and  N_22 
REMARK   10  A    between atoms: C_23  and  C_24 
ROOT
HETATM    1  C           1     -21.095  -5.698  -6.891  0.00  0.00     0.278 C 
ENDROOT
BRANCH   1   2
HETATM    2  C           1     -20.873  -5.193  -5.471  0.00  0.00     0.081 C 
BRANCH   2   3
HETATM    3  C           1     -21.139  -6.300  -4.500  0.00  0.00    -0.056 A 
HETATM    4  C           1     -21.259  -6.019  -3.139  0.00  0.00     0.010 A 
HETATM    5  C           1     -21.506  -7.052  -2.234  0.00  0.00     0.037 A 
HETATM    6  C           1     -21.633  -8.364  -2.689  0.00  0.00     0.065 A 
HETATM    7  C           1     -21.513  -8.644  -4.050  0.00  0.00     0.037 A 
HETATM    8  C           1     -21.265  -7.612  -4.955  0.00  0.00     0.010 A 
BRANCH   6   9
HETATM    9  O           1     -21.873  -9.366  -1.810  0.00  0.00    -0.361 OA
HETATM   10  H           1     -22.407 -10.040  -2.262  0.00  0.00     0.217 HD
ENDBRANCH   6   9
ENDBRANCH   2   3
ENDBRANCH   1   2
BRANCH   1  11
HETATM   11  N           1     -19.786  -6.138  -7.475  0.00  0.00    -0.066 N 
HETATM   12  H           1     -19.039  -6.066  -6.748  0.00  0.00     0.275 HD
HETATM   13  H           1     -19.543  -5.526  -8.286  0.00  0.00     0.275 HD
HETATM   14  H           1     -19.863  -7.129  -7.798  0.00  0.00     0.275 HD
ENDBRANCH   1  11
BRANCH   1  15
HETATM   15  C           1     -21.675  -4.589  -7.735  0.00  0.00     0.249 C 
HETATM   16  N           1     -22.204  -4.871  -8.965  0.00  0.00    -0.345 N 
HETATM   17  H           1     -22.208  -5.823  -9.309  0.00  0.00     0.163 HD
HETATM   18  O           1     -21.670  -3.453  -7.326  0.00  0.00    -0.271 OA
BRANCH  16  19
HETATM   19  C           1     -22.761  -3.806  -9.777  0.00  0.00     0.186 C 
BRANCH  19  20
HETATM   20  C           1     -24.267  -3.851  -9.702  0.00  0.00     0.196 C 
HETATM   21  O           1     -24.869  -4.934  -9.876  0.00  0.00    -0.646 OA
HETATM   22  O           1     -24.913  -2.807  -9.468  0.00  0.00    -0.646 OA
ENDBRANCH  19  20
BRANCH  19  23
HETATM   23  C           1     -22.319  -3.986 -11.224  0.00  0.00     0.046 C 
BRANCH  23  24
HETATM   24  C           1     -22.546  -2.689 -11.990  0.00  0.00     0.076 C 
BRANCH  24  25
HETATM   25  S           1     -23.898  -2.915 -13.178  0.00  0.00    -0.173 SA
HETATM   26  C           1     -22.919  -2.558 -14.664  0.00  0.00     0.089 C 
ENDBRANCH  24  25
ENDBRANCH  23  24
ENDBRANCH  19  23
ENDBRANCH  16  19
ENDBRANCH   1  15
TORSDOF 10
ENDMDL
MODEL 2
REMARK VINA RESULT:      -7.1      3.830      8.565
REMARK  10 active torsions:
REMARK  status: ('A' for Active; 'I' for Inactive)
REMARK    1  A    between atoms: C_5  and  C_20 
REMARK    2  A    between atoms: S_7  and  C_23 
REMARK    3  A    between atoms: C_8  and  C_9 
REMARK    4  A    between atoms: C_9  and  C_16 
REMARK    5  A    between atoms: C_12  and  O_25 
REMARK    6  A    between atoms: N_14  and  C_16 
REMARK    7  A    between atoms: C_16  and  C_21 
REMARK    8  A    between atoms: C_20  and  C_24 
REMARK    9  A    between atoms: C_20  and  N_22 
REMARK       I    between atoms: C_21  and  N_22 
REMARK   10  A    between atoms: C_23  and  C_24 
ROOT
HETATM    1  C           1     -22.255  -5.092  -6.858  0.00  0.00     0.278 C 
ENDROOT
BRANCH   1   2
HETATM    2  C           1     -21.646  -3.794  -7.372  0.00  0.00     0.081 C 
BRANCH   2   3
HETATM    3  C           1     -21.670  -3.788  -8.868  0.00  0.00    -0.056 A 
HETATM    4  C           1     -22.853  -3.494  -9.545  0.00  0.00     0.010 A 
HETATM    5  C           1     -22.875  -3.490 -10.940  0.00  0.00     0.037 A 
HETATM    6  C           1     -21.715  -3.780 -11.658  0.00  0.00     0.065 A 
HETATM    7  C           1     -20.531  -4.074 -10.980  0.00  0.00     0.037 A 
HETATM    8  C           1     -20.509  -4.079  -9.585  0.00  0.00     0.010 A 
BRANCH   6   9
HETATM    9  O           1     -21.736  -3.775 -13.012  0.00  0.00    -0.361 OA
HETATM   10  H           1     -22.431  -3.160 -13.299  0.00  0.00     0.217 HD
ENDBRANCH   6   9
ENDBRANCH   2   3
ENDBRANCH   1   2
BRANCH   1  11
HETATM   11  N           1     -23.675  -4.848  -6.444  0.00  0.00    -0.066 N 
HETATM   12  H           1     -24.274  -5.639  -6.771  0.00  0.00     0.275 HD
HETATM   13  H           1     -24.013  -3.956  -6.870  0.00  0.00     0.275 HD
HETATM   14  H           1     -23.728  -4.778  -5.403  0.00  0.00     0.275 HD
ENDBRANCH   1  11
BRANCH   1  15
HETATM   15  C           1     -21.463  -5.586  -5.672  0.00  0.00     0.249 C 
HETATM   16  N           1     -22.092  -6.263  -4.663  0.00  0.00    -0.345 N 
HETATM   17  H           1     -23.088  -6.434  -4.712  0.00  0.00     0.163 HD
HETATM   18  O           1     -20.274  -5.382  -5.613  0.00  0.00    -0.271 OA
BRANCH  16  19
HETATM   19  C           1     -21.332  -6.737  -3.523  0.00  0.00     0.186 C 
BRANCH  19  20
HETATM   20  C           1     -20.947  -8.180  -3.740  0.00  0.00     0.196 C 
HETATM   21  O           1     -19.742  -8.511  -3.746  0.00  0.00    -0.646 OA
HETATM   22  O           1     -21.834  -9.044  -3.914  0.00  0.00    -0.646 OA
ENDBRANCH  19  20
BRANCH  19  23
HETATM   23  C           1     -22.180  -6.622  -2.263  0.00  0.00     0.046 C 
BRANCH  23  24
HETATM   24  C           1     -21.484  -7.340  -1.114  0.00  0.00     0.076 C 
BRANCH  24  25
HETATM   25  S           1     -22.722  -7.909   0.085  0.00  0.00    -0.173 SA
HETATM   26  C           1     -22.799  -9.622  -0.507  0.00  0.00     0.089 C 
ENDBRANCH  24  25
ENDBRANCH  23  24
ENDBRANCH  19  23
ENDBRANCH  16  19
ENDBRANCH   1  15
TORSDOF 10
ENDMDL
MODEL 3
REMARK VINA RESULT:      -7.0      3.474      8.343
REMARK  10 active torsions:
REMARK  status: ('A' for Active; 'I' for Inactive)
REMARK    1  A    between atoms: C_5  and  C_20 
REMARK    2  A    between atoms: S_7  and  C_23 
REMARK    3  A    between atoms: C_8  and  C_9 
REMARK    4  A    between atoms: C_9  and  C_16 
REMARK    5  A    between atoms: C_12  and  O_25 
REMARK    6  A    between atoms: N_14  and  C_16 
REMARK    7  A    between atoms: C_16  and  C_21 
REMARK    8  A    between atoms: C_20  and  C_24 
REMARK    9  A    between atoms: C_20  and  N_22 
REMARK       I    between atoms: C_21  and  N_22 
REMARK   10  A    between atoms: C_23  and  C_24 
ROOT
HETATM    1  C           1     -21.806  -4.399  -7.318  0.00  0.00     0.278 C 
ENDROOT
BRANCH   1   2
HETATM    2  C           1     -21.253  -4.873  -8.656  0.00  0.00     0.081 C 
BRANCH   2   3
HETATM    3  C           1     -21.990  -4.198  -9.769  0.00  0.00    -0.056 A 
HETATM    4  C           1     -21.283  -3.602 -10.814  0.00  0.00     0.010 A 
HETATM    5  C           1     -21.971  -2.972 -11.851  0.00  0.00     0.037 A 
HETATM    6  C           1     -23.365  -2.936 -11.844  0.00  0.00     0.065 A 
HETATM    7  C           1     -24.072  -3.532 -10.799  0.00  0.00     0.037 A 
HETATM    8  C           1     -23.384  -4.162  -9.761  0.00  0.00     0.010 A 
BRANCH   6   9
HETATM    9  O           1     -24.033  -2.325 -12.851  0.00  0.00    -0.361 OA
HETATM   10  H           1     -24.780  -1.839 -12.465  0.00  0.00     0.217 HD
ENDBRANCH   6   9
ENDBRANCH   2   3
ENDBRANCH   1   2
BRANCH   1  11
HETATM   11  N           1     -21.585  -2.922  -7.182  0.00  0.00    -0.066 N 
HETATM   12  H           1     -20.810  -2.626  -7.817  0.00  0.00     0.275 HD
HETATM   13  H           1     -21.330  -2.698  -6.194  0.00  0.00     0.275 HD
HETATM   14  H           1     -22.460  -2.413  -7.440  0.00  0.00     0.275 HD
ENDBRANCH   1  11
BRANCH   1  15
HETATM   15  C           1     -21.098  -5.119  -6.197  0.00  0.00     0.249 C 
HETATM   16  N           1     -21.601  -6.297  -5.715  0.00  0.00    -0.345 N 
HETATM   17  H           1     -22.446  -6.687  -6.111  0.00  0.00     0.163 HD
HETATM   18  O           1     -20.089  -4.654  -5.723  0.00  0.00    -0.271 OA
BRANCH  16  19
HETATM   19  C           1     -20.921  -6.989  -4.637  0.00  0.00     0.186 C 
BRANCH  19  20
HETATM   20  C           1     -20.312  -8.265  -5.163  0.00  0.00     0.196 C 
HETATM   21  O           1     -20.805  -9.370  -4.846  0.00  0.00    -0.646 OA
HETATM   22  O           1     -19.314  -8.218  -5.915  0.00  0.00    -0.646 OA
ENDBRANCH  19  20
BRANCH  19  23
HETATM   23  C           1     -21.920  -7.321  -3.536  0.00  0.00     0.046 C 
BRANCH  23  24
HETATM   24  C           1     -21.817  -6.283  -2.426  0.00  0.00     0.076 C 
BRANCH  24  25
HETATM   25  S           1     -22.270  -7.044  -0.841  0.00  0.00    -0.173 SA
HETATM   26  C           1     -21.824  -8.742  -1.301  0.00  0.00     0.089 C 
ENDBRANCH  24  25
ENDBRANCH  23  24
ENDBRANCH  19  23
ENDBRANCH  16  19
ENDBRANCH   1  15
TORSDOF 10
ENDMDL
MODEL 4
REMARK VINA RESULT:      -6.6      3.892      8.272
REMARK  10 active torsions:
REMARK  status: ('A' for Active; 'I' for Inactive)
REMARK    1  A    between atoms: C_5  and  C_20 
REMARK    2  A    between atoms: S_7  and  C_23 
REMARK    3  A    between atoms: C_8  and  C_9 
REMARK    4  A    between atoms: C_9  and  C_16 
REMARK    5  A    between atoms: C_12  and  O_25 
REMARK    6  A    between atoms: N_14  and  C_16 
REMARK    7  A    between atoms: C_16  and  C_21 
REMARK    8  A    between atoms: C_20  and  C_24 
REMARK    9  A    between atoms: C_20  and  N_22 
REMARK       I    between atoms: C_21  and  N_22 
REMARK   10  A    between atoms: C_23  and  C_24 
ROOT
HETATM    1  C           1     -21.573  -5.933  -6.564  0.00  0.00     0.278 C 
ENDROOT
BRANCH   1   2
HETATM    2  C           1     -20.966  -4.599  -6.979  0.00  0.00     0.081 C 
BRANCH   2   3
HETATM    3  C           1     -21.147  -4.405  -8.452  0.00  0.00    -0.056 A 
HETATM    4  C           1     -20.070  -4.597  -9.318  0.00  0.00     0.010 A 
HETATM    5  C           1     -20.239  -4.416 -10.691  0.00  0.00     0.037 A 
HETATM    6  C           1     -21.484  -4.041 -11.198  0.00  0.00     0.065 A 
HETATM    7  C           1     -22.560  -3.848 -10.331  0.00  0.00     0.037 A 
HETATM    8  C           1     -22.391  -4.030  -8.958  0.00  0.00     0.010 A 
BRANCH   6   9
HETATM    9  O           1     -21.648  -3.865 -12.531  0.00  0.00    -0.361 OA
HETATM   10  H           1     -21.160  -4.569 -12.989  0.00  0.00     0.217 HD
ENDBRANCH   6   9
ENDBRANCH   2   3
ENDBRANCH   1   2
BRANCH   1  11
HETATM   11  N           1     -22.526  -5.714  -5.426  0.00  0.00    -0.066 N 
HETATM   12  H           1     -23.290  -5.071  -5.732  0.00  0.00     0.275 HD
HETATM   13  H           1     -22.014  -5.290  -4.620  0.00  0.00     0.275 HD
HETATM   14  H           1     -22.937  -6.629  -5.135  0.00  0.00     0.275 HD
ENDBRANCH   1  11
BRANCH   1  15
HETATM   15  C           1     -20.476  -6.872  -6.128  0.00  0.00     0.249 C 
HETATM   16  N           1     -20.684  -7.727  -5.079  0.00  0.00    -0.345 N 
HETATM   17  H           1     -21.573  -7.731  -4.597  0.00  0.00     0.163 HD
HETATM   18  O           1     -19.414  -6.868  -6.702  0.00  0.00    -0.271 OA
BRANCH  16  19
HETATM   19  C           1     -19.630  -8.630  -4.659  0.00  0.00     0.186 C 
BRANCH  19  20
HETATM   20  C           1     -19.783  -9.950  -5.374  0.00  0.00     0.196 C 
HETATM   21  O           1     -20.873 -10.247  -5.910  0.00  0.00    -0.646 OA
HETATM   22  O           1     -18.822 -10.747  -5.428  0.00  0.00    -0.646 OA
ENDBRANCH  19  20
BRANCH  19  23
HETATM   23  C           1     -19.721  -8.854  -3.155  0.00  0.00     0.046 C 
BRANCH  23  24
HETATM   24  C           1     -21.168  -8.703  -2.706  0.00  0.00     0.076 C 
BRANCH  24  25
HETATM   25  S           1     -21.216  -7.931  -1.064  0.00  0.00    -0.173 SA
HETATM   26  C           1     -22.269  -6.529  -1.534  0.00  0.00     0.089 C 
ENDBRANCH  24  25
ENDBRANCH  23  24
ENDBRANCH  19  23
ENDBRANCH  16  19
ENDBRANCH   1  15
TORSDOF 10
ENDMDL
MODEL 5
REMARK VINA RESULT:      -6.4      3.518      8.022
REMARK  10 active torsions:
REMARK  status: ('A' for Active; 'I' for Inactive)
REMARK    1  A    between atoms: C_5  and  C_20 
REMARK    2  A    between atoms: S_7  and  C_23 
REMARK    3  A    between atoms: C_8  and  C_9 
REMARK    4  A    between atoms: C_9  and  C_16 
REMARK    5  A    between atoms: C_12  and  O_25 
REMARK    6  A    between atoms: N_14  and  C_16 
REMARK    7  A    between atoms: C_16  and  C_21 
REMARK    8  A    between atoms: C_20  and  C_24 
REMARK    9  A    between atoms: C_20  and  N_22 
REMARK       I    between atoms: C_21  and  N_22 
REMARK   10  A    between atoms: C_23  and  C_24 
ROOT
HETATM    1  C           1     -20.295  -5.277  -6.440  0.00  0.00     0.278 C 
ENDROOT
BRANCH   1   2
HETATM    2  C           1     -20.896  -3.974  -6.951  0.00  0.00     0.081 C 
BRANCH   2   3
HETATM    3  C           1     -21.240  -4.116  -8.400  0.00  0.00    -0.056 A 
HETATM    4  C           1     -20.250  -3.962  -9.370  0.00  0.00     0.010 A 
HETATM    5  C           1     -20.571  -4.095 -10.721  0.00  0.00     0.037 A 
HETATM    6  C           1     -21.882  -4.380 -11.102  0.00  0.00     0.065 A 
HETATM    7  C           1     -22.873  -4.534 -10.132  0.00  0.00     0.037 A 
HETATM    8  C           1     -22.552  -4.401  -8.781  0.00  0.00     0.010 A 
BRANCH   6   9
HETATM    9  O           1     -22.194  -4.509 -12.414  0.00  0.00    -0.361 OA
HETATM   10  H           1     -22.404  -3.626 -12.762  0.00  0.00     0.217 HD
ENDBRANCH   6   9
ENDBRANCH   2   3
ENDBRANCH   1   2
BRANCH   1  11
HETATM   11  N           1     -20.005  -6.181  -7.601  0.00  0.00    -0.066 N 
HETATM   12  H           1     -20.890  -6.641  -7.913  0.00  0.00     0.275 HD
HETATM   13  H           1     -19.317  -6.912  -7.309  0.00  0.00     0.275 HD
HETATM   14  H           1     -19.607  -5.622  -8.388  0.00  0.00     0.275 HD
ENDBRANCH   1  11
BRANCH   1  15
HETATM   15  C           1     -21.271  -5.951  -5.508  0.00  0.00     0.249 C 
HETATM   16  N           1     -20.830  -6.900  -4.626  0.00  0.00    -0.345 N 
HETATM   17  H           1     -19.850  -7.148  -4.596  0.00  0.00     0.163 HD
HETATM   18  O           1     -22.442  -5.656  -5.543  0.00  0.00    -0.271 OA
BRANCH  16  19
HETATM   19  C           1     -21.769  -7.549  -3.730  0.00  0.00     0.186 C 
BRANCH  19  20
HETATM   20  C           1     -21.646  -6.948  -2.351  0.00  0.00     0.196 C 
HETATM   21  O           1     -20.939  -7.509  -1.486  0.00  0.00    -0.646 OA
HETATM   22  O           1     -22.252  -5.890  -2.074  0.00  0.00    -0.646 OA
ENDBRANCH  19  20
BRANCH  19  23
HETATM   23  C           1     -21.459  -9.039  -3.663  0.00  0.00     0.046 C 
BRANCH  23  24
HETATM   24  C           1     -20.215  -9.338  -4.488  0.00  0.00     0.076 C 
BRANCH  24  25
HETATM   25  S           1     -19.198 -10.570  -3.627  0.00  0.00    -0.173 SA
HETATM   26  C           1     -17.993  -9.395  -2.950  0.00  0.00     0.089 C 
ENDBRANCH  24  25
ENDBRANCH  23  24
ENDBRANCH  19  23
ENDBRANCH  16  19
ENDBRANCH   1  15
TORSDOF 10
ENDMDL
MODEL 6
REMARK VINA RESULT:      -6.0      4.550      8.599
REMARK  10 active torsions:
REMARK  status: ('A' for Active; 'I' for Inactive)
REMARK    1  A    between atoms: C_5  and  C_20 
REMARK    2  A    between atoms: S_7  and  C_23 
REMARK    3  A    between atoms: C_8  and  C_9 
REMARK    4  A    between atoms: C_9  and  C_16 
REMARK    5  A    between atoms: C_12  and  O_25 
REMARK    6  A    between atoms: N_14  and  C_16 
REMARK    7  A    between atoms: C_16  and  C_21 
REMARK    8  A    between atoms: C_20  and  C_24 
REMARK    9  A    between atoms: C_20  and  N_22 
REMARK       I    between atoms: C_21  and  N_22 
REMARK   10  A    between atoms: C_23  and  C_24 
ROOT
HETATM    1  C           1     -21.192  -6.144  -5.562  0.00  0.00     0.278 C 
ENDROOT
BRANCH   1   2
HETATM    2  C           1     -20.539  -4.831  -5.974  0.00  0.00     0.081 C 
BRANCH   2   3
HETATM    3  C           1     -20.977  -4.467  -7.358  0.00  0.00    -0.056 A 
HETATM    4  C           1     -20.042  -4.404  -8.391  0.00  0.00     0.010 A 
HETATM    5  C           1     -20.451  -4.064  -9.681  0.00  0.00     0.037 A 
HETATM    6  C           1     -21.794  -3.787  -9.938  0.00  0.00     0.065 A 
HETATM    7  C           1     -22.728  -3.850  -8.904  0.00  0.00     0.037 A 
HETATM    8  C           1     -22.319  -4.190  -7.614  0.00  0.00     0.010 A 
BRANCH   6   9
HETATM    9  O           1     -22.190  -3.458 -11.190  0.00  0.00    -0.361 OA
HETATM   10  H           1     -22.957  -2.866 -11.116  0.00  0.00     0.217 HD
ENDBRANCH   6   9
ENDBRANCH   2   3
ENDBRANCH   1   2
BRANCH   1  11
HETATM   11  N           1     -21.773  -6.002  -4.186  0.00  0.00    -0.066 N 
HETATM   12  H           1     -22.342  -6.849  -3.961  0.00  0.00     0.275 HD
HETATM   13  H           1     -22.381  -5.154  -4.151  0.00  0.00     0.275 HD
HETATM   14  H           1     -21.000  -5.907  -3.490  0.00  0.00     0.275 HD
ENDBRANCH   1  11
BRANCH   1  15
HETATM   15  C           1     -20.159  -7.243  -5.562  0.00  0.00     0.249 C 
HETATM   16  N           1     -20.163  -8.185  -4.569  0.00  0.00    -0.345 N 
HETATM   17  H           1     -20.859  -8.147  -3.836  0.00  0.00     0.163 HD
HETATM   18  O           1     -19.327  -7.290  -6.436  0.00  0.00    -0.271 OA
BRANCH  16  19
HETATM   19  C           1     -19.169  -9.242  -4.568  0.00  0.00     0.186 C 
BRANCH  19  20
HETATM   20  C           1     -19.769 -10.497  -5.154  0.00  0.00     0.196 C 
HETATM   21  O           1     -20.748 -10.420  -5.927  0.00  0.00    -0.646 OA
HETATM   22  O           1     -19.287 -11.614  -4.865  0.00  0.00    -0.646 OA
ENDBRANCH  19  20
BRANCH  19  23
HETATM   23  C           1     -18.719  -9.515  -3.139  0.00  0.00     0.046 C 
BRANCH  23  24
HETATM   24  C           1     -17.200  -9.433  -3.060  0.00  0.00     0.076 C 
BRANCH  24  25
HETATM   25  S           1     -16.543 -10.988  -2.394  0.00  0.00    -0.173 SA
HETATM   26  C           1     -15.788 -11.563  -3.941  0.00  0.00     0.089 C 
ENDBRANCH  24  25
ENDBRANCH  23  24
ENDBRANCH  19  23
ENDBRANCH  16  19
ENDBRANCH   1  15
TORSDOF 10
ENDMDL
MODEL 7
REMARK VINA RESULT:      -6.0      4.184      8.482
REMARK  10 active torsions:
REMARK  status: ('A' for Active; 'I' for Inactive)
REMARK    1  A    between atoms: C_5  and  C_20 
REMARK    2  A    between atoms: S_7  and  C_23 
REMARK    3  A    between atoms: C_8  and  C_9 
REMARK    4  A    between atoms: C_9  and  C_16 
REMARK    5  A    between atoms: C_12  and  O_25 
REMARK    6  A    between atoms: N_14  and  C_16 
REMARK    7  A    between atoms: C_16  and  C_21 
REMARK    8  A    between atoms: C_20  and  C_24 
REMARK    9  A    between atoms: C_20  and  N_22 
REMARK       I    between atoms: C_21  and  N_22 
REMARK   10  A    between atoms: C_23  and  C_24 
ROOT
HETATM    1  C           1     -21.590  -6.268  -4.903  0.00  0.00     0.278 C 
ENDROOT
BRANCH   1   2
HETATM    2  C           1     -20.582  -5.219  -5.356  0.00  0.00     0.081 C 
BRANCH   2   3
HETATM    3  C           1     -20.874  -4.825  -6.770  0.00  0.00    -0.056 A 
HETATM    4  C           1     -22.173  -4.480  -7.144  0.00  0.00     0.010 A 
HETATM    5  C           1     -22.444  -4.113  -8.462  0.00  0.00     0.037 A 
HETATM    6  C           1     -21.418  -4.091  -9.406  0.00  0.00     0.065 A 
HETATM    7  C           1     -20.119  -4.436  -9.032  0.00  0.00     0.037 A 
HETATM    8  C           1     -19.847  -4.803  -7.714  0.00  0.00     0.010 A 
BRANCH   6   9
HETATM    9  O           1     -21.682  -3.734 -10.686  0.00  0.00    -0.361 OA
HETATM   10  H           1     -20.885  -3.315 -11.052  0.00  0.00     0.217 HD
ENDBRANCH   6   9
ENDBRANCH   2   3
ENDBRANCH   1   2
BRANCH   1  11
HETATM   11  N           1     -21.984  -5.998  -3.481  0.00  0.00    -0.066 N 
HETATM   12  H           1     -21.534  -6.704  -2.855  0.00  0.00     0.275 HD
HETATM   13  H           1     -23.023  -6.065  -3.390  0.00  0.00     0.275 HD
HETATM   14  H           1     -21.672  -5.040  -3.207  0.00  0.00     0.275 HD
ENDBRANCH   1  11
BRANCH   1  15
HETATM   15  C           1     -20.968  -7.639  -5.001  0.00  0.00     0.249 C 
HETATM   16  N           1     -20.272  -8.152  -3.941  0.00  0.00    -0.345 N 
HETATM   17  H           1     -20.174  -7.614  -3.090  0.00  0.00     0.163 HD
HETATM   18  O           1     -21.084  -8.283  -6.016  0.00  0.00    -0.271 OA
BRANCH  16  19
HETATM   19  C           1     -19.674  -9.471  -4.035  0.00  0.00     0.186 C 
BRANCH  19  20
HETATM   20  C           1     -20.264 -10.367  -2.974  0.00  0.00     0.196 C 
HETATM   21  O           1     -19.565 -10.726  -2.001  0.00  0.00    -0.646 OA
HETATM   22  O           1     -21.449 -10.752  -3.069  0.00  0.00    -0.646 OA
ENDBRANCH  19  20
BRANCH  19  23
HETATM   23  C           1     -18.169  -9.362  -3.828  0.00  0.00     0.046 C 
BRANCH  23  24
HETATM   24  C           1     -17.446 -10.004  -5.005  0.00  0.00     0.076 C 
BRANCH  24  25
HETATM   25  S           1     -15.821 -10.603  -4.465  0.00  0.00    -0.173 SA
HETATM   26  C           1     -15.911  -9.933  -2.781  0.00  0.00     0.089 C 
ENDBRANCH  24  25
ENDBRANCH  23  24
ENDBRANCH  19  23
ENDBRANCH  16  19
ENDBRANCH   1  15
TORSDOF 10
ENDMDL
MODEL 8
REMARK VINA RESULT:      -6.0      7.974     11.014
REMARK  10 active torsions:
REMARK  status: ('A' for Active; 'I' for Inactive)
REMARK    1  A    between atoms: C_5  and  C_20 
REMARK    2  A    between atoms: S_7  and  C_23 
REMARK    3  A    between atoms: C_8  and  C_9 
REMARK    4  A    between atoms: C_9  and  C_16 
REMARK    5  A    between atoms: C_12  and  O_25 
REMARK    6  A    between atoms: N_14  and  C_16 
REMARK    7  A    between atoms: C_16  and  C_21 
REMARK    8  A    between atoms: C_20  and  C_24 
REMARK    9  A    between atoms: C_20  and  N_22 
REMARK       I    between atoms: C_21  and  N_22 
REMARK   10  A    between atoms: C_23  and  C_24 
ROOT
HETATM    1  C           1     -21.031 -11.597   0.121  0.00  0.00     0.278 C 
ENDROOT
BRANCH   1   2
HETATM    2  C           1     -20.707 -10.319   0.884  0.00  0.00     0.081 C 
BRANCH   2   3
HETATM    3  C           1     -21.207  -9.137   0.113  0.00  0.00    -0.056 A 
HETATM    4  C           1     -20.637  -8.818  -1.120  0.00  0.00     0.010 A 
HETATM    5  C           1     -21.103  -7.716  -1.838  0.00  0.00     0.037 A 
HETATM    6  C           1     -22.136  -6.933  -1.323  0.00  0.00     0.065 A 
HETATM    7  C           1     -22.705  -7.253  -0.090  0.00  0.00     0.037 A 
HETATM    8  C           1     -22.240  -8.354   0.628  0.00  0.00     0.010 A 
BRANCH   6   9
HETATM    9  O           1     -22.588  -5.863  -2.021  0.00  0.00    -0.361 OA
HETATM   10  H           1     -23.238  -6.180  -2.669  0.00  0.00     0.217 HD
ENDBRANCH   6   9
ENDBRANCH   2   3
ENDBRANCH   1   2
BRANCH   1  11
HETATM   11  N           1     -22.030 -12.402   0.898  0.00  0.00    -0.066 N 
HETATM   12  H           1     -22.608 -11.763   1.488  0.00  0.00     0.275 HD
HETATM   13  H           1     -21.528 -13.083   1.510  0.00  0.00     0.275 HD
HETATM   14  H           1     -22.651 -12.920   0.236  0.00  0.00     0.275 HD
ENDBRANCH   1  11
BRANCH   1  15
HETATM   15  C           1     -19.770 -12.405  -0.065  0.00  0.00     0.249 C 
HETATM   16  N           1     -18.591 -11.775  -0.357  0.00  0.00    -0.345 N 
HETATM   17  H           1     -18.563 -10.767  -0.447  0.00  0.00     0.163 HD
HETATM   18  O           1     -19.802 -13.608   0.041  0.00  0.00    -0.271 OA
BRANCH  16  19
HETATM   19  C           1     -17.379 -12.551  -0.537  0.00  0.00     0.186 C 
BRANCH  19  20
HETATM   20  C           1     -16.475 -12.357   0.656  0.00  0.00     0.196 C 
HETATM   21  O           1     -16.658 -13.030   1.694  0.00  0.00    -0.646 OA
HETATM   22  O           1     -15.545 -11.523   0.606  0.00  0.00    -0.646 OA
ENDBRANCH  19  20
BRANCH  19  23
HETATM   23  C           1     -16.661 -12.087  -1.798  0.00  0.00     0.046 C 
BRANCH  23  24
HETATM   24  C           1     -17.370 -10.866  -2.367  0.00  0.00     0.076 C 
BRANCH  24  25
HETATM   25  S           1     -16.140  -9.624  -2.857  0.00  0.00    -0.173 SA
HETATM   26  C           1     -16.075 -10.089  -4.610  0.00  0.00     0.089 C 
ENDBRANCH  24  25
ENDBRANCH  23  24
ENDBRANCH  19  23
ENDBRANCH  16  19
ENDBRANCH   1  15
TORSDOF 10
ENDMDL
MODEL 9
REMARK VINA RESULT:      -6.0      3.763      8.222
REMARK  10 active torsions:
REMARK  status: ('A' for Active; 'I' for Inactive)
REMARK    1  A    between atoms: C_5  and  C_20 
REMARK    2  A    between atoms: S_7  and  C_23 
REMARK    3  A    between atoms: C_8  and  C_9 
REMARK    4  A    between atoms: C_9  and  C_16 
REMARK    5  A    between atoms: C_12  and  O_25 
REMARK    6  A    between atoms: N_14  and  C_16 
REMARK    7  A    between atoms: C_16  and  C_21 
REMARK    8  A    between atoms: C_20  and  C_24 
REMARK    9  A    between atoms: C_20  and  N_22 
REMARK       I    between atoms: C_21  and  N_22 
REMARK   10  A    between atoms: C_23  and  C_24 
ROOT
HETATM    1  C           1     -20.198  -6.282  -5.512  0.00  0.00     0.278 C 
ENDROOT
BRANCH   1   2
HETATM    2  C           1     -20.600  -4.815  -5.585  0.00  0.00     0.081 C 
BRANCH   2   3
HETATM    3  C           1     -21.019  -4.481  -6.982  0.00  0.00    -0.056 A 
HETATM    4  C           1     -22.374  -4.418  -7.308  0.00  0.00     0.010 A 
HETATM    5  C           1     -22.764  -4.107  -8.610  0.00  0.00     0.037 A 
HETATM    6  C           1     -21.800  -3.859  -9.587  0.00  0.00     0.065 A 
HETATM    7  C           1     -20.445  -3.921  -9.262  0.00  0.00     0.037 A 
HETATM    8  C           1     -20.055  -4.233  -7.959  0.00  0.00     0.010 A 
BRANCH   6   9
HETATM    9  O           1     -22.179  -3.556 -10.852  0.00  0.00    -0.361 OA
HETATM   10  H           1     -23.109  -3.277 -10.828  0.00  0.00     0.217 HD
ENDBRANCH   6   9
ENDBRANCH   2   3
ENDBRANCH   1   2
BRANCH   1  11
HETATM   11  N           1     -20.342  -6.908  -6.868  0.00  0.00    -0.066 N 
HETATM   12  H           1     -20.221  -6.175  -7.603  0.00  0.00     0.275 HD
HETATM   13  H           1     -21.292  -7.335  -6.954  0.00  0.00     0.275 HD
HETATM   14  H           1     -19.614  -7.647  -6.990  0.00  0.00     0.275 HD
ENDBRANCH   1  11
BRANCH   1  15
HETATM   15  C           1     -21.089  -7.001  -4.529  0.00  0.00     0.249 C 
HETATM   16  N           1     -20.671  -7.193  -3.240  0.00  0.00    -0.345 N 
HETATM   17  H           1     -19.765  -6.854  -2.945  0.00  0.00     0.163 HD
HETATM   18  O           1     -22.171  -7.407  -4.881  0.00  0.00    -0.271 OA
BRANCH  16  19
HETATM   19  C           1     -21.528  -7.884  -2.296  0.00  0.00     0.186 C 
BRANCH  19  20
HETATM   20  C           1     -22.211  -6.876  -1.406  0.00  0.00     0.196 C 
HETATM   21  O           1     -22.542  -7.192  -0.242  0.00  0.00    -0.646 OA
HETATM   22  O           1     -22.448  -5.725  -1.832  0.00  0.00    -0.646 OA
ENDBRANCH  19  20
BRANCH  19  23
HETATM   23  C           1     -20.687  -8.826  -1.443  0.00  0.00     0.046 C 
BRANCH  23  24
HETATM   24  C           1     -20.808 -10.245  -1.982  0.00  0.00     0.076 C 
BRANCH  24  25
HETATM   25  S           1     -22.550 -10.756  -1.958  0.00  0.00    -0.173 SA
HETATM   26  C           1     -22.649 -11.204  -3.714  0.00  0.00     0.089 C 
ENDBRANCH  24  25
ENDBRANCH  23  24
ENDBRANCH  19  23
ENDBRANCH  16  19
ENDBRANCH   1  15
TORSDOF 10
ENDMDL
