MODEL 1
REMARK VINA RESULT:      -5.6      0.000      0.000
REMARK  10 active torsions:
REMARK  status: ('A' for Active; 'I' for Inactive)
REMARK    1  A    between atoms: C_1  and  C_13 
REMARK    2  A    between atoms: C_1  and  S_10 
REMARK    3  A    between atoms: C_2  and  C_11 
REMARK    4  A    between atoms: C_2  and  C_20 
REMARK    5  A    between atoms: N_3  and  C_14 
REMARK    6  A    between atoms: Se_5  and  C_11 
REMARK    7  A    between atoms: N_6  and  C_20 
REMARK       I    between atoms: N_6  and  C_7 
REMARK    8  A    between atoms: C_7  and  C_14 
REMARK    9  A    between atoms: C_13  and  C_14 
REMARK   10  A    between atoms: C_19  and  C_20 
ROOT
HETATM    1  N           1     -22.086  -4.819  -8.909  0.00  0.00    -0.345 N 
HETATM    2  C           1     -21.569  -4.492  -7.684  0.00  0.00     0.249 C 
HETATM    3  O           1     -21.587  -3.345  -7.307  0.00  0.00    -0.271 OA
HETATM    4  H           1     -22.071  -5.780  -9.224  0.00  0.00     0.163 HD
ENDROOT
BRANCH   2   5
HETATM    5  C           1     -20.977  -5.566  -6.804  0.00  0.00     0.275 C 
BRANCH   5   6
HETATM    6  N           1     -19.834  -6.223  -7.519  0.00  0.00    -0.066 N 
HETATM    7  H           1     -19.431  -6.976  -6.916  0.00  0.00     0.275 HD
HETATM    8  H           1     -20.177  -6.640  -8.415  0.00  0.00     0.275 HD
HETATM    9  H           1     -19.097  -5.511  -7.726  0.00  0.00     0.275 HD
ENDBRANCH   5   6
BRANCH   5  10
HETATM   10  C           1     -20.473  -4.942  -5.510  0.00  0.00     0.053 C 
BRANCH  10  11
HETATM   11  C           1     -20.938  -5.780  -4.327  0.00  0.00     0.076 C 
BRANCH  11  12
HETATM   12  S           1     -22.339  -6.818  -4.831  0.00  0.00    -0.173 SA
HETATM   13  C           1     -21.574  -8.407  -4.401  0.00  0.00     0.089 C 
ENDBRANCH  11  12
ENDBRANCH  10  11
ENDBRANCH   5  10
ENDBRANCH   2   5
BRANCH   1  14
HETATM   14  C           1     -22.655  -3.787  -9.754  0.00  0.00     0.185 C 
BRANCH  14  15
HETATM   15  C           1     -22.192  -3.995 -11.189  0.00  0.00     0.036 C 
BRANCH  15  16
HETATM   16  C           1     -22.479  -2.740 -12.004  0.00  0.00     0.003 C 
BRANCH  16  17
HETATM   17 Se           1     -23.912  -3.102 -13.274  0.00  0.00     0.000 Se
HETATM   18  C           1     -22.920  -2.465 -14.826  0.00  0.00     0.000 C 
ENDBRANCH  16  17
ENDBRANCH  15  16
ENDBRANCH  14  15
BRANCH  14  19
HETATM   19  C           1     -24.161  -3.864  -9.695  0.00  0.00     0.196 C 
HETATM   20  O           1     -24.743  -4.942  -9.946  0.00  0.00    -0.646 OA
HETATM   21  O           1     -24.828  -2.850  -9.396  0.00  0.00    -0.646 OA
ENDBRANCH  14  19
ENDBRANCH   1  14
TORSDOF 10
ENDMDL
MODEL 2
REMARK VINA RESULT:      -5.0      3.456      4.894
REMARK  10 active torsions:
REMARK  status: ('A' for Active; 'I' for Inactive)
REMARK    1  A    between atoms: C_1  and  C_13 
REMARK    2  A    between atoms: C_1  and  S_10 
REMARK    3  A    between atoms: C_2  and  C_11 
REMARK    4  A    between atoms: C_2  and  C_20 
REMARK    5  A    between atoms: N_3  and  C_14 
REMARK    6  A    between atoms: Se_5  and  C_11 
REMARK    7  A    between atoms: N_6  and  C_20 
REMARK       I    between atoms: N_6  and  C_7 
REMARK    8  A    between atoms: C_7  and  C_14 
REMARK    9  A    between atoms: C_13  and  C_14 
REMARK   10  A    between atoms: C_19  and  C_20 
ROOT
HETATM    1  N           1     -21.071  -5.497  -5.043  0.00  0.00    -0.345 N 
HETATM    2  C           1     -21.465  -6.604  -4.341  0.00  0.00     0.249 C 
HETATM    3  O           1     -21.923  -7.558  -4.925  0.00  0.00    -0.271 OA
HETATM    4  H           1     -20.687  -4.698  -4.555  0.00  0.00     0.163 HD
ENDROOT
BRANCH   2   5
HETATM    5  C           1     -21.326  -6.634  -2.839  0.00  0.00     0.275 C 
BRANCH   5   6
HETATM    6  N           1     -22.426  -5.823  -2.220  0.00  0.00    -0.066 N 
HETATM    7  H           1     -23.067  -6.453  -1.685  0.00  0.00     0.275 HD
HETATM    8  H           1     -22.013  -5.114  -1.572  0.00  0.00     0.275 HD
HETATM    9  H           1     -22.965  -5.335  -2.972  0.00  0.00     0.275 HD
ENDBRANCH   5   6
BRANCH   5  10
HETATM   10  C           1     -21.420  -8.072  -2.348  0.00  0.00     0.053 C 
BRANCH  10  11
HETATM   11  C           1     -20.816  -8.174  -0.954  0.00  0.00     0.076 C 
BRANCH  11  12
HETATM   12  S           1     -21.795  -9.327   0.048  0.00  0.00    -0.173 SA
HETATM   13  C           1     -23.107  -8.151   0.482  0.00  0.00     0.089 C 
ENDBRANCH  11  12
ENDBRANCH  10  11
ENDBRANCH   5  10
ENDBRANCH   2   5
BRANCH   1  14
HETATM   14  C           1     -21.204  -5.468  -6.487  0.00  0.00     0.185 C 
BRANCH  14  15
HETATM   15  C           1     -21.730  -4.107  -6.921  0.00  0.00     0.036 C 
BRANCH  15  16
HETATM   16  C           1     -23.040  -4.284  -7.678  0.00  0.00     0.003 C 
BRANCH  16  17
HETATM   17 Se           1     -22.700  -4.205  -9.595  0.00  0.00     0.000 Se
HETATM   18  C           1     -24.434  -3.431 -10.036  0.00  0.00     0.000 C 
ENDBRANCH  16  17
ENDBRANCH  15  16
ENDBRANCH  14  15
BRANCH  14  19
HETATM   19  C           1     -19.856  -5.713  -7.120  0.00  0.00     0.196 C 
HETATM   20  O           1     -19.350  -6.855  -7.093  0.00  0.00    -0.646 OA
HETATM   21  O           1     -19.245  -4.772  -7.672  0.00  0.00    -0.646 OA
ENDBRANCH  14  19
ENDBRANCH   1  14
TORSDOF 10
ENDMDL
MODEL 3
REMARK VINA RESULT:      -4.9      2.946      7.636
REMARK  10 active torsions:
REMARK  status: ('A' for Active; 'I' for Inactive)
REMARK    1  A    between atoms: C_1  and  C_13 
REMARK    2  A    between atoms: C_1  and  S_10 
REMARK    3  A    between atoms: C_2  and  C_11 
REMARK    4  A    between atoms: C_2  and  C_20 
REMARK    5  A    between atoms: N_3  and  C_14 
REMARK    6  A    between atoms: Se_5  and  C_11 
REMARK    7  A    between atoms: N_6  and  C_20 
REMARK       I    between atoms: N_6  and  C_7 
REMARK    8  A    between atoms: C_7  and  C_14 
REMARK    9  A    between atoms: C_13  and  C_14 
REMARK   10  A    between atoms: C_19  and  C_20 
ROOT
HETATM    1  N           1     -21.185  -6.523  -6.484  0.00  0.00    -0.345 N 
HETATM    2  C           1     -21.000  -5.217  -6.851  0.00  0.00     0.249 C 
HETATM    3  O           1     -20.460  -4.447  -6.094  0.00  0.00    -0.271 OA
HETATM    4  H           1     -21.638  -7.168  -7.118  0.00  0.00     0.163 HD
ENDROOT
BRANCH   2   5
HETATM    5  C           1     -21.472  -4.740  -8.203  0.00  0.00     0.275 C 
BRANCH   5   6
HETATM    6  N           1     -22.545  -3.707  -8.021  0.00  0.00    -0.066 N 
HETATM    7  H           1     -23.011  -3.522  -8.939  0.00  0.00     0.275 HD
HETATM    8  H           1     -23.252  -4.056  -7.335  0.00  0.00     0.275 HD
HETATM    9  H           1     -22.119  -2.822  -7.662  0.00  0.00     0.275 HD
ENDBRANCH   5   6
BRANCH   5  10
HETATM   10  C           1     -20.304  -4.128  -8.963  0.00  0.00     0.053 C 
BRANCH  10  11
HETATM   11  C           1     -20.362  -4.562 -10.421  0.00  0.00     0.076 C 
BRANCH  11  12
HETATM   12  S           1     -21.286  -3.332 -11.384  0.00  0.00    -0.173 SA
HETATM   13  C           1     -22.761  -4.355 -11.651  0.00  0.00     0.089 C 
ENDBRANCH  11  12
ENDBRANCH  10  11
ENDBRANCH   5  10
ENDBRANCH   2   5
BRANCH   1  14
HETATM   14  C           1     -20.732  -6.981  -5.185  0.00  0.00     0.185 C 
BRANCH  14  15
HETATM   15  C           1     -21.891  -6.939  -4.199  0.00  0.00     0.036 C 
BRANCH  15  16
HETATM   16  C           1     -21.412  -6.365  -2.872  0.00  0.00     0.003 C 
BRANCH  16  17
HETATM   17 Se           1     -21.035  -7.820  -1.631  0.00  0.00     0.000 Se
HETATM   18  C           1     -22.500  -7.386  -0.421  0.00  0.00     0.000 C 
ENDBRANCH  16  17
ENDBRANCH  15  16
ENDBRANCH  14  15
BRANCH  14  19
HETATM   19  C           1     -20.221  -8.396  -5.302  0.00  0.00     0.196 C 
HETATM   20  O           1     -20.939  -9.279  -5.820  0.00  0.00    -0.646 OA
HETATM   21  O           1     -19.080  -8.686  -4.881  0.00  0.00    -0.646 OA
ENDBRANCH  14  19
ENDBRANCH   1  14
TORSDOF 10
ENDMDL
MODEL 4
REMARK VINA RESULT:      -4.7      3.228      7.615
REMARK  10 active torsions:
REMARK  status: ('A' for Active; 'I' for Inactive)
REMARK    1  A    between atoms: C_1  and  C_13 
REMARK    2  A    between atoms: C_1  and  S_10 
REMARK    3  A    between atoms: C_2  and  C_11 
REMARK    4  A    between atoms: C_2  and  C_20 
REMARK    5  A    between atoms: N_3  and  C_14 
REMARK    6  A    between atoms: Se_5  and  C_11 
REMARK    7  A    between atoms: N_6  and  C_20 
REMARK       I    between atoms: N_6  and  C_7 
REMARK    8  A    between atoms: C_7  and  C_14 
REMARK    9  A    between atoms: C_13  and  C_14 
REMARK   10  A    between atoms: C_19  and  C_20 
ROOT
HETATM    1  N           1     -20.838  -6.667  -4.855  0.00  0.00    -0.345 N 
HETATM    2  C           1     -21.431  -5.768  -5.700  0.00  0.00     0.249 C 
HETATM    3  O           1     -22.633  -5.643  -5.701  0.00  0.00    -0.271 OA
HETATM    4  H           1     -19.831  -6.771  -4.854  0.00  0.00     0.163 HD
ENDROOT
BRANCH   2   5
HETATM    5  C           1     -20.585  -4.933  -6.629  0.00  0.00     0.275 C 
BRANCH   5   6
HETATM    6  N           1     -20.052  -5.799  -7.733  0.00  0.00    -0.066 N 
HETATM    7  H           1     -20.827  -6.041  -8.392  0.00  0.00     0.275 HD
HETATM    8  H           1     -19.304  -5.283  -8.249  0.00  0.00     0.275 HD
HETATM    9  H           1     -19.654  -6.676  -7.326  0.00  0.00     0.275 HD
ENDBRANCH   5   6
BRANCH   5  10
HETATM   10  C           1     -21.432  -3.818  -7.225  0.00  0.00     0.053 C 
BRANCH  10  11
HETATM   11  C           1     -21.684  -4.101  -8.700  0.00  0.00     0.076 C 
BRANCH  11  12
HETATM   12  S           1     -23.465  -4.022  -9.038  0.00  0.00    -0.173 SA
HETATM   13  C           1     -23.317  -3.458 -10.757  0.00  0.00     0.089 C 
ENDBRANCH  11  12
ENDBRANCH  10  11
ENDBRANCH   5  10
ENDBRANCH   2   5
BRANCH   1  14
HETATM   14  C           1     -21.651  -7.469  -3.962  0.00  0.00     0.185 C 
BRANCH  14  15
HETATM   15  C           1     -21.118  -8.895  -3.934  0.00  0.00     0.036 C 
BRANCH  15  16
HETATM   16  C           1     -19.798  -8.961  -4.692  0.00  0.00     0.003 C 
BRANCH  16  17
HETATM   17 Se           1     -18.373  -9.487  -3.471  0.00  0.00     0.000 Se
HETATM   18  C           1     -18.146 -11.263  -4.242  0.00  0.00     0.000 C 
ENDBRANCH  16  17
ENDBRANCH  15  16
ENDBRANCH  14  15
BRANCH  14  19
HETATM   19  C           1     -21.596  -6.884  -2.572  0.00  0.00     0.196 C 
HETATM   20  O           1     -20.836  -7.381  -1.714  0.00  0.00    -0.646 OA
HETATM   21  O           1     -22.312  -5.901  -2.279  0.00  0.00    -0.646 OA
ENDBRANCH  14  19
ENDBRANCH   1  14
TORSDOF 10
ENDMDL
MODEL 5
REMARK VINA RESULT:      -4.6      2.634      3.649
REMARK  10 active torsions:
REMARK  status: ('A' for Active; 'I' for Inactive)
REMARK    1  A    between atoms: C_1  and  C_13 
REMARK    2  A    between atoms: C_1  and  S_10 
REMARK    3  A    between atoms: C_2  and  C_11 
REMARK    4  A    between atoms: C_2  and  C_20 
REMARK    5  A    between atoms: N_3  and  C_14 
REMARK    6  A    between atoms: Se_5  and  C_11 
REMARK    7  A    between atoms: N_6  and  C_20 
REMARK       I    between atoms: N_6  and  C_7 
REMARK    8  A    between atoms: C_7  and  C_14 
REMARK    9  A    between atoms: C_13  and  C_14 
REMARK   10  A    between atoms: C_19  and  C_20 
ROOT
HETATM    1  N           1     -21.297  -4.977  -6.628  0.00  0.00    -0.345 N 
HETATM    2  C           1     -21.181  -6.221  -6.070  0.00  0.00     0.249 C 
HETATM    3  O           1     -21.210  -7.203  -6.773  0.00  0.00    -0.271 OA
HETATM    4  H           1     -21.272  -4.154  -6.039  0.00  0.00     0.163 HD
ENDROOT
BRANCH   2   5
HETATM    5  C           1     -21.018  -6.367  -4.577  0.00  0.00     0.275 C 
BRANCH   5   6
HETATM    6  N           1     -22.346  -6.164  -3.907  0.00  0.00    -0.066 N 
HETATM    7  H           1     -23.032  -6.862  -4.275  0.00  0.00     0.275 HD
HETATM    8  H           1     -22.238  -6.292  -2.876  0.00  0.00     0.275 HD
HETATM    9  H           1     -22.691  -5.198  -4.104  0.00  0.00     0.275 HD
ENDBRANCH   5   6
BRANCH   5  10
HETATM   10  C           1     -20.496  -7.760  -4.256  0.00  0.00     0.053 C 
BRANCH  10  11
HETATM   11  C           1     -21.429  -8.436  -3.260  0.00  0.00     0.076 C 
BRANCH  11  12
HETATM   12  S           1     -20.874 -10.140  -2.969  0.00  0.00    -0.173 SA
HETATM   13  C           1     -20.540  -9.941  -1.197  0.00  0.00     0.089 C 
ENDBRANCH  11  12
ENDBRANCH  10  11
ENDBRANCH   5  10
ENDBRANCH   2   5
BRANCH   1  14
HETATM   14  C           1     -21.453  -4.837  -8.063  0.00  0.00     0.185 C 
BRANCH  14  15
HETATM   15  C           1     -22.356  -3.648  -8.361  0.00  0.00     0.036 C 
BRANCH  15  16
HETATM   16  C           1     -23.713  -4.146  -8.841  0.00  0.00     0.003 C 
BRANCH  16  17
HETATM   17 Se           1     -23.555  -4.805 -10.668  0.00  0.00     0.000 Se
HETATM   18  C           1     -22.957  -3.103 -11.405  0.00  0.00     0.000 C 
ENDBRANCH  16  17
ENDBRANCH  15  16
ENDBRANCH  14  15
BRANCH  14  19
HETATM   19  C           1     -20.102  -4.614  -8.696  0.00  0.00     0.196 C 
HETATM   20  O           1     -19.938  -4.831  -9.916  0.00  0.00    -0.646 OA
HETATM   21  O           1     -19.144  -4.212  -7.999  0.00  0.00    -0.646 OA
ENDBRANCH  14  19
ENDBRANCH   1  14
TORSDOF 10
ENDMDL
MODEL 6
REMARK VINA RESULT:      -4.5      3.622      8.392
REMARK  10 active torsions:
REMARK  status: ('A' for Active; 'I' for Inactive)
REMARK    1  A    between atoms: C_1  and  C_13 
REMARK    2  A    between atoms: C_1  and  S_10 
REMARK    3  A    between atoms: C_2  and  C_11 
REMARK    4  A    between atoms: C_2  and  C_20 
REMARK    5  A    between atoms: N_3  and  C_14 
REMARK    6  A    between atoms: Se_5  and  C_11 
REMARK    7  A    between atoms: N_6  and  C_20 
REMARK       I    between atoms: N_6  and  C_7 
REMARK    8  A    between atoms: C_7  and  C_14 
REMARK    9  A    between atoms: C_13  and  C_14 
REMARK   10  A    between atoms: C_19  and  C_20 
ROOT
HETATM    1  N           1     -20.857  -6.945  -4.101  0.00  0.00    -0.345 N 
HETATM    2  C           1     -21.473  -6.228  -5.091  0.00  0.00     0.249 C 
HETATM    3  O           1     -22.677  -6.243  -5.188  0.00  0.00    -0.271 OA
HETATM    4  H           1     -19.848  -6.931  -4.020  0.00  0.00     0.163 HD
ENDROOT
BRANCH   2   5
HETATM    5  C           1     -20.649  -5.419  -6.062  0.00  0.00     0.275 C 
BRANCH   5   6
HETATM    6  N           1     -19.879  -6.344  -6.957  0.00  0.00    -0.066 N 
HETATM    7  H           1     -20.171  -7.331  -6.773  0.00  0.00     0.275 HD
HETATM    8  H           1     -20.072  -6.103  -7.955  0.00  0.00     0.275 HD
HETATM    9  H           1     -18.856  -6.243  -6.766  0.00  0.00     0.275 HD
ENDBRANCH   5   6
BRANCH   5  10
HETATM   10  C           1     -21.568  -4.546  -6.906  0.00  0.00     0.053 C 
BRANCH  10  11
HETATM   11  C           1     -20.805  -4.024  -8.116  0.00  0.00     0.076 C 
BRANCH  11  12
HETATM   12  S           1     -21.827  -4.208  -9.604  0.00  0.00    -0.173 SA
HETATM   13  C           1     -20.450  -4.364 -10.774  0.00  0.00     0.089 C 
ENDBRANCH  11  12
ENDBRANCH  10  11
ENDBRANCH   5  10
ENDBRANCH   2   5
BRANCH   1  14
HETATM   14  C           1     -21.649  -7.722  -3.168  0.00  0.00     0.185 C 
BRANCH  14  15
HETATM   15  C           1     -20.951  -9.047  -2.892  0.00  0.00     0.036 C 
BRANCH  15  16
HETATM   16  C           1     -21.978 -10.172  -2.886  0.00  0.00     0.003 C 
BRANCH  16  17
HETATM   17 Se           1     -21.836 -11.174  -1.220  0.00  0.00     0.000 Se
HETATM   18  C           1     -23.493 -10.477  -0.469  0.00  0.00     0.000 C 
ENDBRANCH  16  17
ENDBRANCH  15  16
ENDBRANCH  14  15
BRANCH  14  19
HETATM   19  C           1     -21.802  -6.955  -1.878  0.00  0.00     0.196 C 
HETATM   20  O           1     -22.230  -5.780  -1.896  0.00  0.00    -0.646 OA
HETATM   21  O           1     -21.501  -7.494  -0.791  0.00  0.00    -0.646 OA
ENDBRANCH  14  19
ENDBRANCH   1  14
TORSDOF 10
ENDMDL
MODEL 7
REMARK VINA RESULT:      -4.4      5.021      9.043
REMARK  10 active torsions:
REMARK  status: ('A' for Active; 'I' for Inactive)
REMARK    1  A    between atoms: C_1  and  C_13 
REMARK    2  A    between atoms: C_1  and  S_10 
REMARK    3  A    between atoms: C_2  and  C_11 
REMARK    4  A    between atoms: C_2  and  C_20 
REMARK    5  A    between atoms: N_3  and  C_14 
REMARK    6  A    between atoms: Se_5  and  C_11 
REMARK    7  A    between atoms: N_6  and  C_20 
REMARK       I    between atoms: N_6  and  C_7 
REMARK    8  A    between atoms: C_7  and  C_14 
REMARK    9  A    between atoms: C_13  and  C_14 
REMARK   10  A    between atoms: C_19  and  C_20 
ROOT
HETATM    1  N           1     -20.801  -8.042  -2.577  0.00  0.00    -0.345 N 
HETATM    2  C           1     -20.965  -8.295  -3.912  0.00  0.00     0.249 C 
HETATM    3  O           1     -21.892  -8.971  -4.291  0.00  0.00    -0.271 OA
HETATM    4  H           1     -20.025  -7.476  -2.261  0.00  0.00     0.163 HD
ENDROOT
BRANCH   2   5
HETATM    5  C           1     -19.986  -7.731  -4.912  0.00  0.00     0.275 C 
BRANCH   5   6
HETATM    6  N           1     -19.309  -8.855  -5.640  0.00  0.00    -0.066 N 
HETATM    7  H           1     -20.014  -9.587  -5.886  0.00  0.00     0.275 HD
HETATM    8  H           1     -18.868  -8.489  -6.513  0.00  0.00     0.275 HD
HETATM    9  H           1     -18.573  -9.273  -5.026  0.00  0.00     0.275 HD
ENDBRANCH   5   6
BRANCH   5  10
HETATM   10  C           1     -20.729  -6.855  -5.912  0.00  0.00     0.053 C 
BRANCH  10  11
HETATM   11  C           1     -20.849  -5.441  -5.360  0.00  0.00     0.076 C 
BRANCH  11  12
HETATM   12  S           1     -20.803  -4.250  -6.729  0.00  0.00    -0.173 SA
HETATM   13  C           1     -20.198  -5.411  -7.985  0.00  0.00     0.089 C 
ENDBRANCH  11  12
ENDBRANCH  10  11
ENDBRANCH   5  10
ENDBRANCH   2   5
BRANCH   1  14
HETATM   14  C           1     -21.742  -8.585  -1.616  0.00  0.00     0.185 C 
BRANCH  14  15
HETATM   15  C           1     -21.026  -9.577  -0.711  0.00  0.00     0.036 C 
BRANCH  15  16
HETATM   16  C           1     -21.249 -10.993  -1.228  0.00  0.00     0.003 C 
BRANCH  16  17
HETATM   17 Se           1     -23.088 -11.177  -1.847  0.00  0.00     0.000 Se
HETATM   18  C           1     -23.867 -11.115  -0.061  0.00  0.00     0.000 C 
ENDBRANCH  16  17
ENDBRANCH  15  16
ENDBRANCH  14  15
BRANCH  14  19
HETATM   19  C           1     -22.312  -7.463  -0.783  0.00  0.00     0.196 C 
HETATM   20  O           1     -22.547  -7.643   0.431  0.00  0.00    -0.646 OA
HETATM   21  O           1     -22.549  -6.353  -1.308  0.00  0.00    -0.646 OA
ENDBRANCH  14  19
ENDBRANCH   1  14
TORSDOF 10
ENDMDL
MODEL 8
REMARK VINA RESULT:      -4.4      4.084      8.484
REMARK  10 active torsions:
REMARK  status: ('A' for Active; 'I' for Inactive)
REMARK    1  A    between atoms: C_1  and  C_13 
REMARK    2  A    between atoms: C_1  and  S_10 
REMARK    3  A    between atoms: C_2  and  C_11 
REMARK    4  A    between atoms: C_2  and  C_20 
REMARK    5  A    between atoms: N_3  and  C_14 
REMARK    6  A    between atoms: Se_5  and  C_11 
REMARK    7  A    between atoms: N_6  and  C_20 
REMARK       I    between atoms: N_6  and  C_7 
REMARK    8  A    between atoms: C_7  and  C_14 
REMARK    9  A    between atoms: C_13  and  C_14 
REMARK   10  A    between atoms: C_19  and  C_20 
ROOT
HETATM    1  N           1     -20.961  -7.666  -4.091  0.00  0.00    -0.345 N 
HETATM    2  C           1     -20.602  -7.245  -5.343  0.00  0.00     0.249 C 
HETATM    3  O           1     -19.676  -7.769  -5.914  0.00  0.00    -0.271 OA
HETATM    4  H           1     -21.737  -7.227  -3.613  0.00  0.00     0.163 HD
ENDROOT
BRANCH   2   5
HETATM    5  C           1     -21.363  -6.125  -6.010  0.00  0.00     0.275 C 
BRANCH   5   6
HETATM    6  N           1     -22.662  -5.907  -5.291  0.00  0.00    -0.066 N 
HETATM    7  H           1     -22.496  -5.914  -4.259  0.00  0.00     0.275 HD
HETATM    8  H           1     -23.065  -4.985  -5.573  0.00  0.00     0.275 HD
HETATM    9  H           1     -23.331  -6.670  -5.542  0.00  0.00     0.275 HD
ENDBRANCH   5   6
BRANCH   5  10
HETATM   10  C           1     -20.536  -4.848  -5.960  0.00  0.00     0.053 C 
BRANCH  10  11
HETATM   11  C           1     -21.067  -3.857  -6.987  0.00  0.00     0.076 C 
BRANCH  11  12
HETATM   12  S           1     -21.405  -4.722  -8.546  0.00  0.00    -0.173 SA
HETATM   13  C           1     -23.032  -3.975  -8.841  0.00  0.00     0.089 C 
ENDBRANCH  11  12
ENDBRANCH  10  11
ENDBRANCH   5  10
ENDBRANCH   2   5
BRANCH   1  14
HETATM   14  C           1     -20.230  -8.742  -3.450  0.00  0.00     0.185 C 
BRANCH  14  15
HETATM   15  C           1     -20.201  -8.510  -1.946  0.00  0.00     0.036 C 
BRANCH  15  16
HETATM   16  C           1     -21.232  -7.452  -1.574  0.00  0.00     0.003 C 
BRANCH  16  17
HETATM   17 Se           1     -22.405  -8.148  -0.182  0.00  0.00     0.000 Se
HETATM   18  C           1     -21.320  -9.729   0.170  0.00  0.00     0.000 C 
ENDBRANCH  16  17
ENDBRANCH  15  16
ENDBRANCH  14  15
BRANCH  14  19
HETATM   19  C           1     -20.911 -10.056  -3.744  0.00  0.00     0.196 C 
HETATM   20  O           1     -22.137 -10.185  -3.537  0.00  0.00    -0.646 OA
HETATM   21  O           1     -20.248 -11.016  -4.195  0.00  0.00    -0.646 OA
ENDBRANCH  14  19
ENDBRANCH   1  14
TORSDOF 10
ENDMDL
MODEL 9
REMARK VINA RESULT:      -4.3     12.290     14.685
REMARK  10 active torsions:
REMARK  status: ('A' for Active; 'I' for Inactive)
REMARK    1  A    between atoms: C_1  and  C_13 
REMARK    2  A    between atoms: C_1  and  S_10 
REMARK    3  A    between atoms: C_2  and  C_11 
REMARK    4  A    between atoms: C_2  and  C_20 
REMARK    5  A    between atoms: N_3  and  C_14 
REMARK    6  A    between atoms: Se_5  and  C_11 
REMARK    7  A    between atoms: N_6  and  C_20 
REMARK       I    between atoms: N_6  and  C_7 
REMARK    8  A    between atoms: C_7  and  C_14 
REMARK    9  A    between atoms: C_13  and  C_14 
REMARK   10  A    between atoms: C_19  and  C_20 
ROOT
HETATM    1  N           1     -35.679  -2.216 -11.196  0.00  0.00    -0.345 N 
HETATM    2  C           1     -35.666  -1.335 -12.243  0.00  0.00     0.249 C 
HETATM    3  O           1     -34.863  -1.470 -13.136  0.00  0.00    -0.271 OA
HETATM    4  H           1     -36.352  -2.103 -10.448  0.00  0.00     0.163 HD
ENDROOT
BRANCH   2   5
HETATM    5  C           1     -36.655  -0.196 -12.284  0.00  0.00     0.275 C 
BRANCH   5   6
HETATM    6  N           1     -37.417  -0.243 -13.576  0.00  0.00    -0.066 N 
HETATM    7  H           1     -38.271   0.355 -13.499  0.00  0.00     0.275 HD
HETATM    8  H           1     -36.811   0.112 -14.350  0.00  0.00     0.275 HD
HETATM    9  H           1     -37.699  -1.229 -13.778  0.00  0.00     0.275 HD
ENDBRANCH   5   6
BRANCH   5  10
HETATM   10  C           1     -37.626  -0.324 -11.118  0.00  0.00     0.053 C 
BRANCH  10  11
HETATM   11  C           1     -37.254   0.677 -10.033  0.00  0.00     0.076 C 
BRANCH  11  12
HETATM   12  S           1     -37.460  -0.092  -8.402  0.00  0.00    -0.173 SA
HETATM   13  C           1     -37.076   1.393  -7.432  0.00  0.00     0.089 C 
ENDBRANCH  11  12
ENDBRANCH  10  11
ENDBRANCH   5  10
ENDBRANCH   2   5
BRANCH   1  14
HETATM   14  C           1     -34.728  -3.310 -11.156  0.00  0.00     0.185 C 
BRANCH  14  15
HETATM   15  C           1     -34.838  -4.124 -12.439  0.00  0.00     0.036 C 
BRANCH  15  16
HETATM   16  C           1     -34.758  -5.609 -12.109  0.00  0.00     0.003 C 
BRANCH  16  17
HETATM   17 Se           1     -34.617  -5.840 -10.179  0.00  0.00     0.000 Se
HETATM   18  C           1     -34.780  -7.781 -10.235  0.00  0.00     0.000 C 
ENDBRANCH  16  17
ENDBRANCH  15  16
ENDBRANCH  14  15
BRANCH  14  19
HETATM   19  C           1     -33.330  -2.756 -11.030  0.00  0.00     0.196 C 
HETATM   20  O           1     -33.131  -1.699 -10.394  0.00  0.00    -0.646 OA
HETATM   21  O           1     -32.370  -3.355 -11.563  0.00  0.00    -0.646 OA
ENDBRANCH  14  19
ENDBRANCH   1  14
TORSDOF 10
ENDMDL
