MODEL 1
REMARK VINA RESULT:      -7.2      0.000      0.000
REMARK  6 active torsions:
REMARK  status: ('A' for Active; 'I' for Inactive)
REMARK    1  A    between atoms: C_4  and  C_19 
REMARK    2  A    between atoms: C_4  and  N_20 
REMARK    3  A    between atoms: C_5  and  C_14 
REMARK    4  A    between atoms: N_8  and  C_14 
REMARK       I    between atoms: N_8  and  C_19 
REMARK    5  A    between atoms: C_12  and  C_13 
REMARK    6  A    between atoms: C_13  and  C_14 
ROOT
HETATM    1  C           1     -35.376  -1.190 -12.595  0.00  0.00     0.189 C 
ENDROOT
BRANCH   1   2
HETATM    2  C           1     -36.467  -0.467 -11.844  0.00  0.00     0.197 C 
HETATM    3  O           1     -37.666  -0.730 -12.079  0.00  0.00    -0.646 OA
HETATM    4  O           1     -36.171   0.393 -10.986  0.00  0.00    -0.646 OA
ENDBRANCH   1   2
BRANCH   1   5
HETATM    5  N           1     -34.908  -0.357 -13.686  0.00  0.00    -0.345 N 
HETATM    6  H           1     -34.027   0.134 -13.606  0.00  0.00     0.163 HD
HETATM    7  C           1     -35.659  -0.234 -14.824  0.00  0.00     0.243 C 
HETATM    8  O           1     -36.487   0.642 -14.910  0.00  0.00    -0.272 OA
BRANCH   7   9
HETATM    9  C           1     -35.455  -1.193 -15.970  0.00  0.00     0.332 C 
BRANCH   9  10
HETATM   10  N           1     -36.265  -0.744 -17.150  0.00  0.00    -0.071 N 
HETATM   11  H           1     -36.276   0.299 -17.190  0.00  0.00     0.274 HD
HETATM   12  H           1     -37.244  -1.100 -17.056  0.00  0.00     0.274 HD
HETATM   13  H           1     -35.840  -1.122 -18.027  0.00  0.00     0.274 HD
ENDBRANCH   9  10
ENDBRANCH   7   9
ENDBRANCH   1   5
BRANCH   1  14
HETATM   14  C           1     -34.217  -1.484 -11.650  0.00  0.00     0.074 C 
BRANCH  14  15
HETATM   15  C           1     -34.105  -2.962 -11.444  0.00  0.00    -0.056 A 
HETATM   16  C           1     -32.907  -3.617 -11.731  0.00  0.00     0.007 A 
HETATM   17  C           1     -32.803  -4.996 -11.539  0.00  0.00     0.001 A 
HETATM   18  C           1     -33.896  -5.717 -11.061  0.00  0.00     0.000 A 
HETATM   19  C           1     -35.094  -5.063 -10.775  0.00  0.00     0.001 A 
HETATM   20  C           1     -35.198  -3.686 -10.966  0.00  0.00     0.007 A 
ENDBRANCH  14  15
ENDBRANCH   1  14
TORSDOF 6
ENDMDL
MODEL 2
REMARK VINA RESULT:      -6.8      2.576      4.315
REMARK  6 active torsions:
REMARK  status: ('A' for Active; 'I' for Inactive)
REMARK    1  A    between atoms: C_4  and  C_19 
REMARK    2  A    between atoms: C_4  and  N_20 
REMARK    3  A    between atoms: C_5  and  C_14 
REMARK    4  A    between atoms: N_8  and  C_14 
REMARK       I    between atoms: N_8  and  C_19 
REMARK    5  A    between atoms: C_12  and  C_13 
REMARK    6  A    between atoms: C_13  and  C_14 
ROOT
HETATM    1  C           1     -35.921  -0.654 -11.244  0.00  0.00     0.189 C 
ENDROOT
BRANCH   1   2
HETATM    2  C           1     -36.637  -0.655 -12.573  0.00  0.00     0.197 C 
HETATM    3  O           1     -37.867  -0.438 -12.620  0.00  0.00    -0.646 OA
HETATM    4  O           1     -36.000  -0.872 -13.626  0.00  0.00    -0.646 OA
ENDBRANCH   1   2
BRANCH   1   5
HETATM    5  N           1     -36.406   0.448 -10.436  0.00  0.00    -0.345 N 
HETATM    6  H           1     -36.546   1.359 -10.854  0.00  0.00     0.163 HD
HETATM    7  C           1     -36.672   0.257  -9.107  0.00  0.00     0.243 C 
HETATM    8  O           1     -35.804   0.431  -8.285  0.00  0.00    -0.272 OA
BRANCH   7   9
HETATM    9  C           1     -38.050  -0.174  -8.668  0.00  0.00     0.332 C 
BRANCH   9  10
HETATM   10  N           1     -38.075  -0.333  -7.177  0.00  0.00    -0.071 N 
HETATM   11  H           1     -37.560  -1.201  -6.909  0.00  0.00     0.274 HD
HETATM   12  H           1     -39.066  -0.401  -6.850  0.00  0.00     0.274 HD
HETATM   13  H           1     -37.617   0.494  -6.732  0.00  0.00     0.274 HD
ENDBRANCH   9  10
ENDBRANCH   7   9
ENDBRANCH   1   5
BRANCH   1  14
HETATM   14  C           1     -36.190  -1.968 -10.522  0.00  0.00     0.074 C 
BRANCH  14  15
HETATM   15  C           1     -35.122  -2.957 -10.872  0.00  0.00    -0.056 A 
HETATM   16  C           1     -35.429  -4.316 -10.948  0.00  0.00     0.007 A 
HETATM   17  C           1     -34.433  -5.238 -11.274  0.00  0.00     0.001 A 
HETATM   18  C           1     -33.133  -4.801 -11.524  0.00  0.00     0.000 A 
HETATM   19  C           1     -32.826  -3.443 -11.447  0.00  0.00     0.001 A 
HETATM   20  C           1     -33.821  -2.521 -11.122  0.00  0.00     0.007 A 
ENDBRANCH  14  15
ENDBRANCH   1  14
TORSDOF 6
ENDMDL
MODEL 3
REMARK VINA RESULT:      -6.4      2.690      5.152
REMARK  6 active torsions:
REMARK  status: ('A' for Active; 'I' for Inactive)
REMARK    1  A    between atoms: C_4  and  C_19 
REMARK    2  A    between atoms: C_4  and  N_20 
REMARK    3  A    between atoms: C_5  and  C_14 
REMARK    4  A    between atoms: N_8  and  C_14 
REMARK       I    between atoms: N_8  and  C_19 
REMARK    5  A    between atoms: C_12  and  C_13 
REMARK    6  A    between atoms: C_13  and  C_14 
ROOT
HETATM    1  C           1     -36.266  -0.092 -10.711  0.00  0.00     0.189 C 
ENDROOT
BRANCH   1   2
HETATM    2  C           1     -36.942   0.760  -9.664  0.00  0.00     0.197 C 
HETATM    3  O           1     -36.368   0.985  -8.577  0.00  0.00    -0.646 OA
HETATM    4  O           1     -38.074   1.241  -9.884  0.00  0.00    -0.646 OA
ENDBRANCH   1   2
BRANCH   1   5
HETATM    5  N           1     -35.764  -1.305 -10.095  0.00  0.00    -0.345 N 
HETATM    6  H           1     -36.163  -1.634  -9.226  0.00  0.00     0.163 HD
HETATM    7  C           1     -34.749  -2.005 -10.690  0.00  0.00     0.243 C 
HETATM    8  O           1     -33.600  -1.751 -10.419  0.00  0.00    -0.272 OA
BRANCH   7   9
HETATM    9  C           1     -35.066  -3.093 -11.686  0.00  0.00     0.332 C 
BRANCH   9  10
HETATM   10  N           1     -34.333  -2.828 -12.968  0.00  0.00    -0.071 N 
HETATM   11  H           1     -34.887  -3.201 -13.771  0.00  0.00     0.274 HD
HETATM   12  H           1     -33.400  -3.299 -12.940  0.00  0.00     0.274 HD
HETATM   13  H           1     -34.201  -1.799 -13.086  0.00  0.00     0.274 HD
ENDBRANCH   9  10
ENDBRANCH   7   9
ENDBRANCH   1   5
BRANCH   1  14
HETATM   14  C           1     -37.272  -0.454 -11.797  0.00  0.00     0.074 C 
BRANCH  14  15
HETATM   15  C           1     -36.758   0.006 -13.125  0.00  0.00    -0.056 A 
HETATM   16  C           1     -37.574  -0.077 -14.254  0.00  0.00     0.007 A 
HETATM   17  C           1     -37.095   0.352 -15.493  0.00  0.00     0.001 A 
HETATM   18  C           1     -35.802   0.863 -15.602  0.00  0.00     0.000 A 
HETATM   19  C           1     -34.987   0.945 -14.474  0.00  0.00     0.001 A 
HETATM   20  C           1     -35.465   0.517 -13.236  0.00  0.00     0.007 A 
ENDBRANCH  14  15
ENDBRANCH   1  14
TORSDOF 6
ENDMDL
MODEL 4
REMARK VINA RESULT:      -6.1     14.005     15.925
REMARK  6 active torsions:
REMARK  status: ('A' for Active; 'I' for Inactive)
REMARK    1  A    between atoms: C_4  and  C_19 
REMARK    2  A    between atoms: C_4  and  N_20 
REMARK    3  A    between atoms: C_5  and  C_14 
REMARK    4  A    between atoms: N_8  and  C_14 
REMARK       I    between atoms: N_8  and  C_19 
REMARK    5  A    between atoms: C_12  and  C_13 
REMARK    6  A    between atoms: C_13  and  C_14 
ROOT
HETATM    1  C           1     -21.524  -5.326  -7.160  0.00  0.00     0.189 C 
ENDROOT
BRANCH   1   2
HETATM    2  C           1     -20.037  -5.501  -6.972  0.00  0.00     0.197 C 
HETATM    3  O           1     -19.328  -4.521  -6.656  0.00  0.00    -0.646 OA
HETATM    4  O           1     -19.515  -6.626  -7.131  0.00  0.00    -0.646 OA
ENDBRANCH   1   2
BRANCH   1   5
HETATM    5  N           1     -22.191  -5.454  -5.878  0.00  0.00    -0.345 N 
HETATM    6  H           1     -23.048  -4.946  -5.701  0.00  0.00     0.163 HD
HETATM    7  C           1     -21.660  -6.261  -4.908  0.00  0.00     0.243 C 
HETATM    8  O           1     -20.871  -5.810  -4.112  0.00  0.00    -0.272 OA
BRANCH   7   9
HETATM    9  C           1     -22.060  -7.714  -4.834  0.00  0.00     0.332 C 
BRANCH   9  10
HETATM   10  N           1     -21.061  -8.547  -5.581  0.00  0.00    -0.071 N 
HETATM   11  H           1     -20.444  -7.927  -6.151  0.00  0.00     0.274 HD
HETATM   12  H           1     -21.564  -9.212  -6.212  0.00  0.00     0.274 HD
HETATM   13  H           1     -20.480  -9.086  -4.900  0.00  0.00     0.274 HD
ENDBRANCH   9  10
ENDBRANCH   7   9
ENDBRANCH   1   5
BRANCH   1  14
HETATM   14  C           1     -21.804  -3.946  -7.740  0.00  0.00     0.074 C 
BRANCH  14  15
HETATM   15  C           1     -22.097  -4.070  -9.203  0.00  0.00    -0.056 A 
HETATM   16  C           1     -23.378  -4.420  -9.630  0.00  0.00     0.007 A 
HETATM   17  C           1     -23.651  -4.537 -10.993  0.00  0.00     0.001 A 
HETATM   18  C           1     -22.643  -4.303 -11.928  0.00  0.00     0.000 A 
HETATM   19  C           1     -21.362  -3.953 -11.502  0.00  0.00     0.001 A 
HETATM   20  C           1     -21.089  -3.837 -10.139  0.00  0.00     0.007 A 
ENDBRANCH  14  15
ENDBRANCH   1  14
TORSDOF 6
ENDMDL
MODEL 5
REMARK VINA RESULT:      -5.9     15.080     17.183
REMARK  6 active torsions:
REMARK  status: ('A' for Active; 'I' for Inactive)
REMARK    1  A    between atoms: C_4  and  C_19 
REMARK    2  A    between atoms: C_4  and  N_20 
REMARK    3  A    between atoms: C_5  and  C_14 
REMARK    4  A    between atoms: N_8  and  C_14 
REMARK       I    between atoms: N_8  and  C_19 
REMARK    5  A    between atoms: C_12  and  C_13 
REMARK    6  A    between atoms: C_13  and  C_14 
ROOT
HETATM    1  C           1     -20.965  -5.931  -5.038  0.00  0.00     0.189 C 
ENDROOT
BRANCH   1   2
HETATM    2  C           1     -20.608  -7.194  -5.785  0.00  0.00     0.197 C 
HETATM    3  O           1     -19.414  -7.443  -6.055  0.00  0.00    -0.646 OA
HETATM    4  O           1     -21.507  -7.990  -6.132  0.00  0.00    -0.646 OA
ENDBRANCH   1   2
BRANCH   1   5
HETATM    5  N           1     -20.523  -6.043  -3.662  0.00  0.00    -0.345 N 
HETATM    6  H           1     -19.702  -5.539  -3.352  0.00  0.00     0.163 HD
HETATM    7  C           1     -21.215  -6.830  -2.783  0.00  0.00     0.243 C 
HETATM    8  O           1     -20.923  -7.995  -2.654  0.00  0.00    -0.272 OA
BRANCH   7   9
HETATM    9  C           1     -22.346  -6.244  -1.974  0.00  0.00     0.332 C 
BRANCH   9  10
HETATM   10  N           1     -22.499  -7.012  -0.695  0.00  0.00    -0.071 N 
HETATM   11  H           1     -22.559  -6.346   0.108  0.00  0.00     0.274 HD
HETATM   12  H           1     -21.674  -7.640  -0.565  0.00  0.00     0.274 HD
HETATM   13  H           1     -23.371  -7.586  -0.736  0.00  0.00     0.274 HD
ENDBRANCH   9  10
ENDBRANCH   7   9
ENDBRANCH   1   5
BRANCH   1  14
HETATM   14  C           1     -20.278  -4.741  -5.696  0.00  0.00     0.074 C 
BRANCH  14  15
HETATM   15  C           1     -20.856  -4.523  -7.060  0.00  0.00    -0.056 A 
HETATM   16  C           1     -22.231  -4.348  -7.215  0.00  0.00     0.007 A 
HETATM   17  C           1     -22.770  -4.146  -8.486  0.00  0.00     0.001 A 
HETATM   18  C           1     -21.933  -4.119  -9.601  0.00  0.00     0.000 A 
HETATM   19  C           1     -20.558  -4.295  -9.447  0.00  0.00     0.001 A 
HETATM   20  C           1     -20.020  -4.497  -8.177  0.00  0.00     0.007 A 
ENDBRANCH  14  15
ENDBRANCH   1  14
TORSDOF 6
ENDMDL
MODEL 6
REMARK VINA RESULT:      -5.9     16.629     18.595
REMARK  6 active torsions:
REMARK  status: ('A' for Active; 'I' for Inactive)
REMARK    1  A    between atoms: C_4  and  C_19 
REMARK    2  A    between atoms: C_4  and  N_20 
REMARK    3  A    between atoms: C_5  and  C_14 
REMARK    4  A    between atoms: N_8  and  C_14 
REMARK       I    between atoms: N_8  and  C_19 
REMARK    5  A    between atoms: C_12  and  C_13 
REMARK    6  A    between atoms: C_13  and  C_14 
ROOT
HETATM    1  C           1     -21.040  -7.880  -4.190  0.00  0.00     0.189 C 
ENDROOT
BRANCH   1   2
HETATM    2  C           1     -21.722  -7.032  -5.236  0.00  0.00     0.197 C 
HETATM    3  O           1     -22.690  -6.308  -4.920  0.00  0.00    -0.646 OA
HETATM    4  O           1     -21.318  -7.054  -6.419  0.00  0.00    -0.646 OA
ENDBRANCH   1   2
BRANCH   1   5
HETATM    5  N           1     -19.707  -8.227  -4.643  0.00  0.00    -0.345 N 
HETATM    6  H           1     -19.033  -7.498  -4.838  0.00  0.00     0.163 HD
HETATM    7  C           1     -19.361  -9.541  -4.809  0.00  0.00     0.243 C 
HETATM    8  O           1     -19.538 -10.082  -5.874  0.00  0.00    -0.272 OA
BRANCH   7   9
HETATM    9  C           1     -18.761 -10.313  -3.661  0.00  0.00     0.332 C 
BRANCH   9  10
HETATM   10  N           1     -17.995  -9.378  -2.773  0.00  0.00    -0.071 N 
HETATM   11  H           1     -17.182  -9.881  -2.353  0.00  0.00     0.274 HD
HETATM   12  H           1     -18.621  -9.031  -2.010  0.00  0.00     0.274 HD
HETATM   13  H           1     -17.651  -8.568  -3.336  0.00  0.00     0.274 HD
ENDBRANCH   9  10
ENDBRANCH   7   9
ENDBRANCH   1   5
BRANCH   1  14
HETATM   14  C           1     -20.943  -7.097  -2.886  0.00  0.00     0.074 C 
BRANCH  14  15
HETATM   15  C           1     -21.694  -7.821  -1.813  0.00  0.00    -0.056 A 
HETATM   16  C           1     -21.807  -9.210  -1.858  0.00  0.00     0.007 A 
HETATM   17  C           1     -22.507  -9.886  -0.857  0.00  0.00     0.001 A 
HETATM   18  C           1     -23.094  -9.172   0.186  0.00  0.00     0.000 A 
HETATM   19  C           1     -22.982  -7.782   0.231  0.00  0.00     0.001 A 
HETATM   20  C           1     -22.282  -7.107  -0.768  0.00  0.00     0.007 A 
ENDBRANCH  14  15
ENDBRANCH   1  14
TORSDOF 6
ENDMDL
MODEL 7
REMARK VINA RESULT:      -5.8     15.858     17.901
REMARK  6 active torsions:
REMARK  status: ('A' for Active; 'I' for Inactive)
REMARK    1  A    between atoms: C_4  and  C_19 
REMARK    2  A    between atoms: C_4  and  N_20 
REMARK    3  A    between atoms: C_5  and  C_14 
REMARK    4  A    between atoms: N_8  and  C_14 
REMARK       I    between atoms: N_8  and  C_19 
REMARK    5  A    between atoms: C_12  and  C_13 
REMARK    6  A    between atoms: C_13  and  C_14 
ROOT
HETATM    1  C           1     -21.051  -7.200  -3.800  0.00  0.00     0.189 C 
ENDROOT
BRANCH   1   2
HETATM    2  C           1     -21.681  -6.798  -2.488  0.00  0.00     0.197 C 
HETATM    3  O           1     -22.526  -5.878  -2.457  0.00  0.00    -0.646 OA
HETATM    4  O           1     -21.358  -7.387  -1.433  0.00  0.00    -0.646 OA
ENDBRANCH   1   2
BRANCH   1   5
HETATM    5  N           1     -20.713  -8.609  -3.761  0.00  0.00    -0.345 N 
HETATM    6  H           1     -21.443  -9.302  -3.655  0.00  0.00     0.163 HD
HETATM    7  C           1     -19.406  -9.003  -3.868  0.00  0.00     0.243 C 
HETATM    8  O           1     -18.728  -9.122  -2.875  0.00  0.00    -0.272 OA
BRANCH   7   9
HETATM    9  C           1     -18.812  -9.286  -5.225  0.00  0.00     0.332 C 
BRANCH   9  10
HETATM   10  N           1     -19.690 -10.251  -5.966  0.00  0.00    -0.071 N 
HETATM   11  H           1     -19.568 -11.209  -5.569  0.00  0.00     0.274 HD
HETATM   12  H           1     -19.426 -10.257  -6.977  0.00  0.00     0.274 HD
HETATM   13  H           1     -20.688  -9.958  -5.868  0.00  0.00     0.274 HD
ENDBRANCH   9  10
ENDBRANCH   7   9
ENDBRANCH   1   5
BRANCH   1  14
HETATM   14  C           1     -22.036  -6.946  -4.934  0.00  0.00     0.074 C 
BRANCH  14  15
HETATM   15  C           1     -21.483  -5.898  -5.849  0.00  0.00    -0.056 A 
HETATM   16  C           1     -22.349  -5.065  -6.557  0.00  0.00     0.007 A 
HETATM   17  C           1     -21.834  -4.087  -7.411  0.00  0.00     0.001 A 
HETATM   18  C           1     -20.455  -3.944  -7.554  0.00  0.00     0.000 A 
HETATM   19  C           1     -19.589  -4.778  -6.847  0.00  0.00     0.001 A 
HETATM   20  C           1     -20.103  -5.754  -5.994  0.00  0.00     0.007 A 
ENDBRANCH  14  15
ENDBRANCH   1  14
TORSDOF 6
ENDMDL
MODEL 8
REMARK VINA RESULT:      -5.8     17.432     18.228
REMARK  6 active torsions:
REMARK  status: ('A' for Active; 'I' for Inactive)
REMARK    1  A    between atoms: C_4  and  C_19 
REMARK    2  A    between atoms: C_4  and  N_20 
REMARK    3  A    between atoms: C_5  and  C_14 
REMARK    4  A    between atoms: N_8  and  C_14 
REMARK       I    between atoms: N_8  and  C_19 
REMARK    5  A    between atoms: C_12  and  C_13 
REMARK    6  A    between atoms: C_13  and  C_14 
ROOT
HETATM    1  C           1     -21.338  -7.901  -3.060  0.00  0.00     0.189 C 
ENDROOT
BRANCH   1   2
HETATM    2  C           1     -21.731  -6.444  -3.047  0.00  0.00     0.197 C 
HETATM    3  O           1     -21.325  -5.680  -3.949  0.00  0.00    -0.646 OA
HETATM    4  O           1     -22.463  -6.002  -2.135  0.00  0.00    -0.646 OA
ENDBRANCH   1   2
BRANCH   1   5
HETATM    5  N           1     -20.076  -8.055  -3.758  0.00  0.00    -0.345 N 
HETATM    6  H           1     -19.218  -7.733  -3.328  0.00  0.00     0.163 HD
HETATM    7  C           1     -20.046  -8.633  -4.998  0.00  0.00     0.243 C 
HETATM    8  O           1     -20.164  -7.950  -5.987  0.00  0.00    -0.272 OA
BRANCH   7   9
HETATM    9  C           1     -19.866 -10.125  -5.129  0.00  0.00     0.332 C 
BRANCH   9  10
HETATM   10  N           1     -20.906 -10.676  -6.060  0.00  0.00    -0.071 N 
HETATM   11  H           1     -20.532 -10.686  -7.035  0.00  0.00     0.274 HD
HETATM   12  H           1     -21.761 -10.076  -6.021  0.00  0.00     0.274 HD
HETATM   13  H           1     -21.150 -11.649  -5.771  0.00  0.00     0.274 HD
ENDBRANCH   9  10
ENDBRANCH   7   9
ENDBRANCH   1   5
BRANCH   1  14
HETATM   14  C           1     -21.188  -8.399  -1.628  0.00  0.00     0.074 C 
BRANCH  14  15
HETATM   15  C           1     -22.180  -9.491  -1.373  0.00  0.00    -0.056 A 
HETATM   16  C           1     -22.318 -10.534  -2.290  0.00  0.00     0.007 A 
HETATM   17  C           1     -23.243 -11.552  -2.053  0.00  0.00     0.001 A 
HETATM   18  C           1     -24.028 -11.527  -0.901  0.00  0.00     0.000 A 
HETATM   19  C           1     -23.890 -10.484   0.015  0.00  0.00     0.001 A 
HETATM   20  C           1     -22.966  -9.466  -0.221  0.00  0.00     0.007 A 
ENDBRANCH  14  15
ENDBRANCH   1  14
TORSDOF 6
ENDMDL
MODEL 9
REMARK VINA RESULT:      -5.8     16.381     18.329
REMARK  6 active torsions:
REMARK  status: ('A' for Active; 'I' for Inactive)
REMARK    1  A    between atoms: C_4  and  C_19 
REMARK    2  A    between atoms: C_4  and  N_20 
REMARK    3  A    between atoms: C_5  and  C_14 
REMARK    4  A    between atoms: N_8  and  C_14 
REMARK       I    between atoms: N_8  and  C_19 
REMARK    5  A    between atoms: C_12  and  C_13 
REMARK    6  A    between atoms: C_13  and  C_14 
ROOT
HETATM    1  C           1     -20.221  -8.557  -4.329  0.00  0.00     0.189 C 
ENDROOT
BRANCH   1   2
HETATM    2  C           1     -18.930  -9.241  -4.710  0.00  0.00     0.197 C 
HETATM    3  O           1     -17.982  -9.284  -3.897  0.00  0.00    -0.646 OA
HETATM    4  O           1     -18.810  -9.765  -5.839  0.00  0.00    -0.646 OA
ENDBRANCH   1   2
BRANCH   1   5
HETATM    5  N           1     -20.886  -8.081  -5.526  0.00  0.00    -0.345 N 
HETATM    6  H           1     -21.528  -8.686  -6.023  0.00  0.00     0.163 HD
HETATM    7  C           1     -20.645  -6.814  -5.985  0.00  0.00     0.243 C 
HETATM    8  O           1     -19.748  -6.616  -6.769  0.00  0.00    -0.272 OA
BRANCH   7   9
HETATM    9  C           1     -21.500  -5.665  -5.510  0.00  0.00     0.332 C 
BRANCH   9  10
HETATM   10  N           1     -22.868  -6.169  -5.159  0.00  0.00    -0.071 N 
HETATM   11  H           1     -23.564  -5.799  -5.844  0.00  0.00     0.274 HD
HETATM   12  H           1     -23.121  -5.847  -4.197  0.00  0.00     0.274 HD
HETATM   13  H           1     -22.872  -7.213  -5.188  0.00  0.00     0.274 HD
ENDBRANCH   9  10
ENDBRANCH   7   9
ENDBRANCH   1   5
BRANCH   1  14
HETATM   14  C           1     -21.126  -9.547  -3.606  0.00  0.00     0.074 C 
BRANCH  14  15
HETATM   15  C           1     -21.645  -8.921  -2.349  0.00  0.00    -0.056 A 
HETATM   16  C           1     -22.193  -9.722  -1.348  0.00  0.00     0.007 A 
HETATM   17  C           1     -22.678  -9.139  -0.176  0.00  0.00     0.001 A 
HETATM   18  C           1     -22.614  -7.757  -0.007  0.00  0.00     0.000 A 
HETATM   19  C           1     -22.067  -6.956  -1.009  0.00  0.00     0.001 A 
HETATM   20  C           1     -21.582  -7.538  -2.180  0.00  0.00     0.007 A 
ENDBRANCH  14  15
ENDBRANCH   1  14
TORSDOF 6
ENDMDL
