MODEL 1
REMARK VINA RESULT:      -5.8      0.000      0.000
REMARK  8 active torsions:
REMARK  status: ('A' for Active; 'I' for Inactive)
REMARK    1  A    between atoms: C_4  and  C_5 
REMARK    2  A    between atoms: C_5  and  C_15 
REMARK    3  A    between atoms: C_5  and  N_11 
REMARK    4  A    between atoms: C_6  and  C_9 
REMARK    5  A    between atoms: C_9  and  C_16 
REMARK    6  A    between atoms: C_9  and  N_20 
REMARK       I    between atoms: N_11  and  C_16 
REMARK    7  A    between atoms: C_12  and  S_13 
REMARK    8  A    between atoms: C_12  and  C_15 
ROOT
HETATM    1  H           1     -36.037  -2.143 -13.322  0.00  0.00     0.163 HD
HETATM    2  N           1     -35.454  -1.700 -12.624  0.00  0.00    -0.345 N 
HETATM    3  C           1     -34.496  -2.428 -11.970  0.00  0.00     0.249 C 
HETATM    4  O           1     -33.799  -1.899 -11.136  0.00  0.00    -0.271 OA
ENDROOT
BRANCH   2   5
HETATM    5  C           1     -35.632  -0.294 -12.316  0.00  0.00     0.186 C 
BRANCH   5   6
HETATM    6  C           1     -36.770  -0.135 -11.337  0.00  0.00     0.196 C 
HETATM    7  O           1     -36.610   0.541 -10.298  0.00  0.00    -0.646 OA
HETATM    8  O           1     -37.871  -0.680 -11.565  0.00  0.00    -0.646 OA
ENDBRANCH   5   6
BRANCH   5   9
HETATM    9  C           1     -35.951   0.468 -13.595  0.00  0.00     0.046 C 
BRANCH   9  10
HETATM   10  C           1     -35.402  -0.297 -14.792  0.00  0.00     0.076 C 
BRANCH  10  11
HETATM   11  S           1     -36.652  -0.339 -16.108  0.00  0.00    -0.173 SA
HETATM   12  C           1     -38.075   0.032 -15.044  0.00  0.00     0.089 C 
ENDBRANCH  10  11
ENDBRANCH   9  10
ENDBRANCH   5   9
ENDBRANCH   2   5
BRANCH   3  13
HETATM   13  C           1     -34.310  -3.891 -12.290  0.00  0.00     0.278 C 
BRANCH  13  14
HETATM   14  C           1     -33.320  -4.504 -11.309  0.00  0.00     0.017 C 
HETATM   15  C           1     -33.868  -5.830 -10.797  0.00  0.00     0.012 C 
HETATM   16  C           1     -31.991  -4.742 -12.012  0.00  0.00     0.012 C 
ENDBRANCH  13  14
BRANCH  13  17
HETATM   17  N           1     -33.783  -4.033 -13.687  0.00  0.00    -0.066 N 
HETATM   18  H           1     -34.379  -4.708 -14.217  0.00  0.00     0.275 HD
HETATM   19  H           1     -33.804  -3.103 -14.164  0.00  0.00     0.275 HD
HETATM   20  H           1     -32.800  -4.384 -13.655  0.00  0.00     0.275 HD
ENDBRANCH  13  17
ENDBRANCH   3  13
TORSDOF 8
ENDMDL
MODEL 2
REMARK VINA RESULT:      -5.1      2.573      5.314
REMARK  8 active torsions:
REMARK  status: ('A' for Active; 'I' for Inactive)
REMARK    1  A    between atoms: C_4  and  C_5 
REMARK    2  A    between atoms: C_5  and  C_15 
REMARK    3  A    between atoms: C_5  and  N_11 
REMARK    4  A    between atoms: C_6  and  C_9 
REMARK    5  A    between atoms: C_9  and  C_16 
REMARK    6  A    between atoms: C_9  and  N_20 
REMARK       I    between atoms: N_11  and  C_16 
REMARK    7  A    between atoms: C_12  and  S_13 
REMARK    8  A    between atoms: C_12  and  C_15 
ROOT
HETATM    1  H           1     -36.343  -0.416 -12.338  0.00  0.00     0.163 HD
HETATM    2  N           1     -35.809  -1.172 -12.747  0.00  0.00    -0.345 N 
HETATM    3  C           1     -35.623  -1.224 -14.103  0.00  0.00     0.249 C 
HETATM    4  O           1     -34.986  -2.128 -14.591  0.00  0.00    -0.271 OA
ENDROOT
BRANCH   2   5
HETATM    5  C           1     -35.241  -2.201 -11.897  0.00  0.00     0.186 C 
BRANCH   5   6
HETATM    6  C           1     -36.176  -2.473 -10.745  0.00  0.00     0.196 C 
HETATM    7  O           1     -36.534  -3.644 -10.495  0.00  0.00    -0.646 OA
HETATM    8  O           1     -36.593  -1.529 -10.042  0.00  0.00    -0.646 OA
ENDBRANCH   5   6
BRANCH   5   9
HETATM    9  C           1     -33.896  -1.730 -11.361  0.00  0.00     0.046 C 
BRANCH   9  10
HETATM   10  C           1     -33.073  -2.934 -10.924  0.00  0.00     0.076 C 
BRANCH  10  11
HETATM   11  S           1     -33.127  -4.206 -12.218  0.00  0.00    -0.173 SA
HETATM   12  C           1     -33.588  -5.581 -11.127  0.00  0.00     0.089 C 
ENDBRANCH  10  11
ENDBRANCH   9  10
ENDBRANCH   5   9
ENDBRANCH   2   5
BRANCH   3  13
HETATM   13  C           1     -36.214  -0.154 -14.987  0.00  0.00     0.278 C 
BRANCH  13  14
HETATM   14  C           1     -35.195   0.960 -15.188  0.00  0.00     0.017 C 
HETATM   15  C           1     -35.878   2.163 -15.825  0.00  0.00     0.012 C 
HETATM   16  C           1     -34.611   1.361 -13.841  0.00  0.00     0.012 C 
ENDBRANCH  13  14
BRANCH  13  17
HETATM   17  N           1     -37.446   0.405 -14.338  0.00  0.00    -0.066 N 
HETATM   18  H           1     -38.231   0.409 -15.028  0.00  0.00     0.275 HD
HETATM   19  H           1     -37.707  -0.187 -13.518  0.00  0.00     0.275 HD
HETATM   20  H           1     -37.257   1.382 -14.017  0.00  0.00     0.275 HD
ENDBRANCH  13  17
ENDBRANCH   3  13
TORSDOF 8
ENDMDL
MODEL 3
REMARK VINA RESULT:      -5.0      2.578      5.200
REMARK  8 active torsions:
REMARK  status: ('A' for Active; 'I' for Inactive)
REMARK    1  A    between atoms: C_4  and  C_5 
REMARK    2  A    between atoms: C_5  and  C_15 
REMARK    3  A    between atoms: C_5  and  N_11 
REMARK    4  A    between atoms: C_6  and  C_9 
REMARK    5  A    between atoms: C_9  and  C_16 
REMARK    6  A    between atoms: C_9  and  N_20 
REMARK       I    between atoms: N_11  and  C_16 
REMARK    7  A    between atoms: C_12  and  S_13 
REMARK    8  A    between atoms: C_12  and  C_15 
ROOT
HETATM    1  H           1     -35.040   0.034 -11.966  0.00  0.00     0.163 HD
HETATM    2  N           1     -35.974  -0.352 -11.913  0.00  0.00    -0.345 N 
HETATM    3  C           1     -36.795  -0.310 -13.009  0.00  0.00     0.249 C 
HETATM    4  O           1     -37.910  -0.770 -12.946  0.00  0.00    -0.271 OA
ENDROOT
BRANCH   2   5
HETATM    5  C           1     -36.444  -0.948 -10.678  0.00  0.00     0.186 C 
BRANCH   5   6
HETATM    6  C           1     -36.746   0.142  -9.679  0.00  0.00     0.196 C 
HETATM    7  O           1     -36.092   0.213  -8.616  0.00  0.00    -0.646 OA
HETATM    8  O           1     -37.651   0.971  -9.912  0.00  0.00    -0.646 OA
ENDBRANCH   5   6
BRANCH   5   9
HETATM    9  C           1     -35.367  -1.867 -10.118  0.00  0.00     0.046 C 
BRANCH   9  10
HETATM   10  C           1     -35.295  -3.136 -10.958  0.00  0.00     0.076 C 
BRANCH  10  11
HETATM   11  S           1     -33.577  -3.717 -11.031  0.00  0.00    -0.173 SA
HETATM   12  C           1     -33.967  -5.489 -11.079  0.00  0.00     0.089 C 
ENDBRANCH  10  11
ENDBRANCH   9  10
ENDBRANCH   5   9
ENDBRANCH   2   5
BRANCH   3  13
HETATM   13  C           1     -36.307   0.310 -14.295  0.00  0.00     0.278 C 
BRANCH  13  14
HETATM   14  C           1     -37.010  -0.346 -15.475  0.00  0.00     0.017 C 
HETATM   15  C           1     -38.034   0.620 -16.057  0.00  0.00     0.012 C 
HETATM   16  C           1     -35.984  -0.701 -16.543  0.00  0.00     0.012 C 
ENDBRANCH  13  14
BRANCH  13  17
HETATM   17  N           1     -34.826   0.105 -14.417  0.00  0.00    -0.066 N 
HETATM   18  H           1     -34.326   0.946 -14.050  0.00  0.00     0.275 HD
HETATM   19  H           1     -34.544  -0.735 -13.863  0.00  0.00     0.275 HD
HETATM   20  H           1     -34.576  -0.040 -15.421  0.00  0.00     0.275 HD
ENDBRANCH  13  17
ENDBRANCH   3  13
TORSDOF 8
ENDMDL
MODEL 4
REMARK VINA RESULT:      -5.0     16.574     18.465
REMARK  8 active torsions:
REMARK  status: ('A' for Active; 'I' for Inactive)
REMARK    1  A    between atoms: C_4  and  C_5 
REMARK    2  A    between atoms: C_5  and  C_15 
REMARK    3  A    between atoms: C_5  and  N_11 
REMARK    4  A    between atoms: C_6  and  C_9 
REMARK    5  A    between atoms: C_9  and  C_16 
REMARK    6  A    between atoms: C_9  and  N_20 
REMARK       I    between atoms: N_11  and  C_16 
REMARK    7  A    between atoms: C_12  and  S_13 
REMARK    8  A    between atoms: C_12  and  C_15 
ROOT
HETATM    1  H           1     -20.572  -6.788  -3.262  0.00  0.00     0.163 HD
HETATM    2  N           1     -20.872  -7.751  -3.345  0.00  0.00    -0.345 N 
HETATM    3  C           1     -21.352  -8.416  -2.248  0.00  0.00     0.249 C 
HETATM    4  O           1     -21.710  -9.566  -2.348  0.00  0.00    -0.271 OA
ENDROOT
BRANCH   2   5
HETATM    5  C           1     -20.793  -8.427  -4.626  0.00  0.00     0.186 C 
BRANCH   5   6
HETATM    6  C           1     -19.355  -8.769  -4.925  0.00  0.00     0.196 C 
HETATM    7  O           1     -18.606  -9.172  -4.008  0.00  0.00    -0.646 OA
HETATM    8  O           1     -18.911  -8.650  -6.086  0.00  0.00    -0.646 OA
ENDBRANCH   5   6
BRANCH   5   9
HETATM    9  C           1     -21.336  -7.513  -5.716  0.00  0.00     0.046 C 
BRANCH   9  10
HETATM   10  C           1     -21.580  -6.124  -5.139  0.00  0.00     0.076 C 
BRANCH  10  11
HETATM   11  S           1     -20.333  -4.974  -5.783  0.00  0.00    -0.173 SA
HETATM   12  C           1     -21.402  -4.195  -7.025  0.00  0.00     0.089 C 
ENDBRANCH  10  11
ENDBRANCH   9  10
ENDBRANCH   5   9
ENDBRANCH   2   5
BRANCH   3  13
HETATM   13  C           1     -21.434  -7.713  -0.916  0.00  0.00     0.278 C 
BRANCH  13  14
HETATM   14  C           1     -22.007  -8.664   0.127  0.00  0.00     0.017 C 
HETATM   15  C           1     -21.069  -8.728   1.326  0.00  0.00     0.012 C 
HETATM   16  C           1     -23.372  -8.161   0.577  0.00  0.00     0.012 C 
ENDBRANCH  13  14
BRANCH  13  17
HETATM   17  N           1     -22.324  -6.512  -1.039  0.00  0.00    -0.066 N 
HETATM   18  H           1     -23.318  -6.822  -1.122  0.00  0.00     0.275 HD
HETATM   19  H           1     -22.218  -5.911  -0.191  0.00  0.00     0.275 HD
HETATM   20  H           1     -22.056  -5.965  -1.888  0.00  0.00     0.275 HD
ENDBRANCH  13  17
ENDBRANCH   3  13
TORSDOF 8
ENDMDL
MODEL 5
REMARK VINA RESULT:      -5.0     14.684     16.757
REMARK  8 active torsions:
REMARK  status: ('A' for Active; 'I' for Inactive)
REMARK    1  A    between atoms: C_4  and  C_5 
REMARK    2  A    between atoms: C_5  and  C_15 
REMARK    3  A    between atoms: C_5  and  N_11 
REMARK    4  A    between atoms: C_6  and  C_9 
REMARK    5  A    between atoms: C_9  and  C_16 
REMARK    6  A    between atoms: C_9  and  N_20 
REMARK       I    between atoms: N_11  and  C_16 
REMARK    7  A    between atoms: C_12  and  S_13 
REMARK    8  A    between atoms: C_12  and  C_15 
ROOT
HETATM    1  H           1     -22.155  -6.832  -7.397  0.00  0.00     0.163 HD
HETATM    2  N           1     -21.619  -6.138  -6.892  0.00  0.00    -0.345 N 
HETATM    3  C           1     -21.488  -4.873  -7.399  0.00  0.00     0.249 C 
HETATM    4  O           1     -20.848  -4.044  -6.797  0.00  0.00    -0.271 OA
ENDROOT
BRANCH   2   5
HETATM    5  C           1     -20.989  -6.483  -5.632  0.00  0.00     0.186 C 
BRANCH   5   6
HETATM    6  C           1     -20.406  -7.871  -5.727  0.00  0.00     0.196 C 
HETATM    7  O           1     -21.164  -8.864  -5.791  0.00  0.00    -0.646 OA
HETATM    8  O           1     -19.167  -8.030  -5.740  0.00  0.00    -0.646 OA
ENDBRANCH   5   6
BRANCH   5   9
HETATM    9  C           1     -22.027  -6.442  -4.519  0.00  0.00     0.046 C 
BRANCH   9  10
HETATM   10  C           1     -21.339  -6.142  -3.194  0.00  0.00     0.076 C 
BRANCH  10  11
HETATM   11  S           1     -21.337  -7.635  -2.162  0.00  0.00    -0.173 SA
HETATM   12  C           1     -22.381  -6.963  -0.837  0.00  0.00     0.089 C 
ENDBRANCH  10  11
ENDBRANCH   9  10
ENDBRANCH   5   9
ENDBRANCH   2   5
BRANCH   3  13
HETATM   13  C           1     -22.144  -4.513  -8.710  0.00  0.00     0.278 C 
BRANCH  13  14
HETATM   14  C           1     -21.117  -3.868  -9.632  0.00  0.00     0.017 C 
HETATM   15  C           1     -20.077  -4.905 -10.037  0.00  0.00     0.012 C 
HETATM   16  C           1     -21.816  -3.337 -10.876  0.00  0.00     0.012 C 
ENDBRANCH  13  14
BRANCH  13  17
HETATM   17  N           1     -23.266  -3.550  -8.459  0.00  0.00    -0.066 N 
HETATM   18  H           1     -23.813  -3.863  -7.626  0.00  0.00     0.275 HD
HETATM   19  H           1     -22.874  -2.598  -8.280  0.00  0.00     0.275 HD
HETATM   20  H           1     -23.891  -3.517  -9.296  0.00  0.00     0.275 HD
ENDBRANCH  13  17
ENDBRANCH   3  13
TORSDOF 8
ENDMDL
MODEL 6
REMARK VINA RESULT:      -4.9     10.722     12.992
REMARK  8 active torsions:
REMARK  status: ('A' for Active; 'I' for Inactive)
REMARK    1  A    between atoms: C_4  and  C_5 
REMARK    2  A    between atoms: C_5  and  C_15 
REMARK    3  A    between atoms: C_5  and  N_11 
REMARK    4  A    between atoms: C_6  and  C_9 
REMARK    5  A    between atoms: C_9  and  C_16 
REMARK    6  A    between atoms: C_9  and  N_20 
REMARK       I    between atoms: N_11  and  C_16 
REMARK    7  A    between atoms: C_12  and  S_13 
REMARK    8  A    between atoms: C_12  and  C_15 
ROOT
HETATM    1  H           1     -26.524  -7.963 -18.724  0.00  0.00     0.163 HD
HETATM    2  N           1     -25.862  -7.211 -18.581  0.00  0.00    -0.345 N 
HETATM    3  C           1     -24.735  -7.134 -19.356  0.00  0.00     0.249 C 
HETATM    4  O           1     -23.945  -6.237 -19.184  0.00  0.00    -0.271 OA
ENDROOT
BRANCH   2   5
HETATM    5  C           1     -26.106  -6.216 -17.555  0.00  0.00     0.186 C 
BRANCH   5   6
HETATM    6  C           1     -25.367  -6.601 -16.297  0.00  0.00     0.196 C 
HETATM    7  O           1     -25.159  -7.806 -16.040  0.00  0.00    -0.646 OA
HETATM    8  O           1     -24.965  -5.716 -15.512  0.00  0.00    -0.646 OA
ENDBRANCH   5   6
BRANCH   5   9
HETATM    9  C           1     -27.599  -6.141 -17.266  0.00  0.00     0.046 C 
BRANCH   9  10
HETATM   10  C           1     -28.378  -6.417 -18.546  0.00  0.00     0.076 C 
BRANCH  10  11
HETATM   11  S           1     -29.894  -7.331 -18.146  0.00  0.00    -0.173 SA
HETATM   12  C           1     -30.573  -6.101 -16.997  0.00  0.00     0.089 C 
ENDBRANCH  10  11
ENDBRANCH   9  10
ENDBRANCH   5   9
ENDBRANCH   2   5
BRANCH   3  13
HETATM   13  C           1     -24.481  -8.170 -20.423  0.00  0.00     0.278 C 
BRANCH  13  14
HETATM   14  C           1     -23.361  -7.693 -21.338  0.00  0.00     0.017 C 
HETATM   15  C           1     -22.221  -8.703 -21.316  0.00  0.00     0.012 C 
HETATM   16  C           1     -23.891  -7.557 -22.759  0.00  0.00     0.012 C 
ENDBRANCH  13  14
BRANCH  13  17
HETATM   17  N           1     -25.730  -8.375 -21.227  0.00  0.00    -0.066 N 
HETATM   18  H           1     -25.573  -9.135 -21.927  0.00  0.00     0.275 HD
HETATM   19  H           1     -26.514  -8.646 -20.590  0.00  0.00     0.275 HD
HETATM   20  H           1     -25.976  -7.489 -21.722  0.00  0.00     0.275 HD
ENDBRANCH  13  17
ENDBRANCH   3  13
TORSDOF 8
ENDMDL
MODEL 7
REMARK VINA RESULT:      -4.9      3.109      6.173
REMARK  8 active torsions:
REMARK  status: ('A' for Active; 'I' for Inactive)
REMARK    1  A    between atoms: C_4  and  C_5 
REMARK    2  A    between atoms: C_5  and  C_15 
REMARK    3  A    between atoms: C_5  and  N_11 
REMARK    4  A    between atoms: C_6  and  C_9 
REMARK    5  A    between atoms: C_9  and  C_16 
REMARK    6  A    between atoms: C_9  and  N_20 
REMARK       I    between atoms: N_11  and  C_16 
REMARK    7  A    between atoms: C_12  and  S_13 
REMARK    8  A    between atoms: C_12  and  C_15 
ROOT
HETATM    1  H           1     -36.255  -3.108 -12.028  0.00  0.00     0.163 HD
HETATM    2  N           1     -35.475  -2.928 -11.409  0.00  0.00    -0.345 N 
HETATM    3  C           1     -35.380  -1.726 -10.759  0.00  0.00     0.249 C 
HETATM    4  O           1     -34.448  -1.511 -10.021  0.00  0.00    -0.271 OA
ENDROOT
BRANCH   2   5
HETATM    5  C           1     -34.457  -3.941 -11.211  0.00  0.00     0.186 C 
BRANCH   5   6
HETATM    6  C           1     -33.449  -3.866 -12.331  0.00  0.00     0.196 C 
HETATM    7  O           1     -32.233  -4.025 -12.089  0.00  0.00    -0.646 OA
HETATM    8  O           1     -33.829  -3.643 -13.500  0.00  0.00    -0.646 OA
ENDBRANCH   5   6
BRANCH   5   9
HETATM    9  C           1     -35.108  -5.318 -11.204  0.00  0.00     0.046 C 
BRANCH   9  10
HETATM   10  C           1     -34.109  -6.349 -10.695  0.00  0.00     0.076 C 
BRANCH  10  11
HETATM   11  S           1     -34.964  -7.545  -9.630  0.00  0.00    -0.173 SA
HETATM   12  C           1     -33.800  -8.913  -9.893  0.00  0.00     0.089 C 
ENDBRANCH  10  11
ENDBRANCH   9  10
ENDBRANCH   5   9
ENDBRANCH   2   5
BRANCH   3  13
HETATM   13  C           1     -36.439  -0.671 -10.965  0.00  0.00     0.278 C 
BRANCH  13  14
HETATM   14  C           1     -36.131   0.118 -12.231  0.00  0.00     0.017 C 
HETATM   15  C           1     -34.717  -0.202 -12.697  0.00  0.00     0.012 C 
HETATM   16  C           1     -37.124  -0.266 -13.320  0.00  0.00     0.012 C 
ENDBRANCH  13  14
BRANCH  13  17
HETATM   17  N           1     -36.452   0.259  -9.787  0.00  0.00    -0.066 N 
HETATM   18  H           1     -35.482   0.603  -9.605  0.00  0.00     0.275 HD
HETATM   19  H           1     -37.076   1.072  -9.992  0.00  0.00     0.275 HD
HETATM   20  H           1     -36.807  -0.249  -8.946  0.00  0.00     0.275 HD
ENDBRANCH  13  17
ENDBRANCH   3  13
TORSDOF 8
ENDMDL
MODEL 8
REMARK VINA RESULT:      -4.8     15.079     17.548
REMARK  8 active torsions:
REMARK  status: ('A' for Active; 'I' for Inactive)
REMARK    1  A    between atoms: C_4  and  C_5 
REMARK    2  A    between atoms: C_5  and  C_15 
REMARK    3  A    between atoms: C_5  and  N_11 
REMARK    4  A    between atoms: C_6  and  C_9 
REMARK    5  A    between atoms: C_9  and  C_16 
REMARK    6  A    between atoms: C_9  and  N_20 
REMARK       I    between atoms: N_11  and  C_16 
REMARK    7  A    between atoms: C_12  and  S_13 
REMARK    8  A    between atoms: C_12  and  C_15 
ROOT
HETATM    1  H           1     -19.976  -6.327  -5.065  0.00  0.00     0.163 HD
HETATM    2  N           1     -20.987  -6.364  -5.053  0.00  0.00    -0.345 N 
HETATM    3  C           1     -21.713  -5.518  -5.848  0.00  0.00     0.249 C 
HETATM    4  O           1     -22.920  -5.562  -5.834  0.00  0.00    -0.271 OA
ENDROOT
BRANCH   2   5
HETATM    5  C           1     -21.668  -7.314  -4.194  0.00  0.00     0.186 C 
BRANCH   5   6
HETATM    6  C           1     -21.624  -6.822  -2.768  0.00  0.00     0.196 C 
HETATM    7  O           1     -20.807  -7.318  -1.963  0.00  0.00    -0.646 OA
HETATM    8  O           1     -22.404  -5.922  -2.393  0.00  0.00    -0.646 OA
ENDBRANCH   5   6
BRANCH   5   9
HETATM    9  C           1     -20.977  -8.668  -4.288  0.00  0.00     0.046 C 
BRANCH   9  10
HETATM   10  C           1     -19.662  -8.516  -5.041  0.00  0.00     0.076 C 
BRANCH  10  11
HETATM   11  S           1     -18.385  -9.524  -4.239  0.00  0.00    -0.173 SA
HETATM   12  C           1     -17.507  -9.983  -5.760  0.00  0.00     0.089 C 
ENDBRANCH  10  11
ENDBRANCH   9  10
ENDBRANCH   5   9
ENDBRANCH   2   5
BRANCH   3  13
HETATM   13  C           1     -21.005  -4.529  -6.742  0.00  0.00     0.278 C 
BRANCH  13  14
HETATM   14  C           1     -21.374  -4.802  -8.194  0.00  0.00     0.017 C 
HETATM   15  C           1     -22.382  -3.762  -8.665  0.00  0.00     0.012 C 
HETATM   16  C           1     -20.122  -4.723  -9.058  0.00  0.00     0.012 C 
ENDBRANCH  13  14
BRANCH  13  17
HETATM   17  N           1     -19.522  -4.672  -6.567  0.00  0.00    -0.066 N 
HETATM   18  H           1     -19.325  -5.418  -5.862  0.00  0.00     0.275 HD
HETATM   19  H           1     -19.087  -4.935  -7.480  0.00  0.00     0.275 HD
HETATM   20  H           1     -19.121  -3.765  -6.239  0.00  0.00     0.275 HD
ENDBRANCH  13  17
ENDBRANCH   3  13
TORSDOF 8
ENDMDL
MODEL 9
REMARK VINA RESULT:      -4.8     15.061     17.379
REMARK  8 active torsions:
REMARK  status: ('A' for Active; 'I' for Inactive)
REMARK    1  A    between atoms: C_4  and  C_5 
REMARK    2  A    between atoms: C_5  and  C_15 
REMARK    3  A    between atoms: C_5  and  N_11 
REMARK    4  A    between atoms: C_6  and  C_9 
REMARK    5  A    between atoms: C_9  and  C_16 
REMARK    6  A    between atoms: C_9  and  N_20 
REMARK       I    between atoms: N_11  and  C_16 
REMARK    7  A    between atoms: C_12  and  S_13 
REMARK    8  A    between atoms: C_12  and  C_15 
ROOT
HETATM    1  H           1     -19.910  -6.337  -5.024  0.00  0.00     0.163 HD
HETATM    2  N           1     -20.920  -6.394  -5.001  0.00  0.00    -0.345 N 
HETATM    3  C           1     -21.671  -5.563  -5.789  0.00  0.00     0.249 C 
HETATM    4  O           1     -22.877  -5.631  -5.762  0.00  0.00    -0.271 OA
ENDROOT
BRANCH   2   5
HETATM    5  C           1     -21.573  -7.356  -4.135  0.00  0.00     0.186 C 
BRANCH   5   6
HETATM    6  C           1     -21.580  -6.833  -2.719  0.00  0.00     0.196 C 
HETATM    7  O           1     -20.749  -7.264  -1.891  0.00  0.00    -0.646 OA
HETATM    8  O           1     -22.416  -5.971  -2.376  0.00  0.00    -0.646 OA
ENDBRANCH   5   6
BRANCH   5   9
HETATM    9  C           1     -20.817  -8.678  -4.185  0.00  0.00     0.046 C 
BRANCH   9  10
HETATM   10  C           1     -21.792  -9.828  -3.974  0.00  0.00     0.076 C 
BRANCH  10  11
HETATM   11  S           1     -21.239 -10.841  -2.573  0.00  0.00    -0.173 SA
HETATM   12  C           1     -22.545 -10.324  -1.424  0.00  0.00     0.089 C 
ENDBRANCH  10  11
ENDBRANCH   9  10
ENDBRANCH   5   9
ENDBRANCH   2   5
BRANCH   3  13
HETATM   13  C           1     -20.992  -4.561  -6.691  0.00  0.00     0.278 C 
BRANCH  13  14
HETATM   14  C           1     -21.371  -4.841  -8.139  0.00  0.00     0.017 C 
HETATM   15  C           1     -22.382  -3.803  -8.609  0.00  0.00     0.012 C 
HETATM   16  C           1     -20.126  -4.769  -9.012  0.00  0.00     0.012 C 
ENDBRANCH  13  14
BRANCH  13  17
HETATM   17  N           1     -19.505  -4.674  -6.532  0.00  0.00    -0.066 N 
HETATM   18  H           1     -19.032  -4.158  -7.308  0.00  0.00     0.275 HD
HETATM   19  H           1     -19.219  -4.262  -5.615  0.00  0.00     0.275 HD
HETATM   20  H           1     -19.227  -5.681  -6.562  0.00  0.00     0.275 HD
ENDBRANCH  13  17
ENDBRANCH   3  13
TORSDOF 8
ENDMDL
