MODEL 1
REMARK VINA RESULT:      -6.7      0.000      0.000
REMARK  9 active torsions:
REMARK  status: ('A' for Active; 'I' for Inactive)
REMARK       I    between atoms: C_1  and  N_17 
REMARK    1  A    between atoms: C_1  and  C_2 
REMARK    2  A    between atoms: C_2  and  C_3 
REMARK    3  A    between atoms: C_2  and  N_7 
REMARK    4  A    between atoms: C_3  and  C_4 
REMARK    5  A    between atoms: C_13  and  C_22 
REMARK    6  A    between atoms: C_15  and  C_22 
REMARK    7  A    between atoms: C_15  and  C_21 
REMARK    8  A    between atoms: N_17  and  C_21 
REMARK    9  A    between atoms: C_20  and  C_21 
ROOT
HETATM    1  C           1     -21.693  -4.547  -7.743  0.00  0.00     0.249 C 
HETATM    2  O           1     -21.648  -3.407  -7.344  0.00  0.00    -0.271 OA
HETATM    3  H           1     -22.292  -5.778  -9.295  0.00  0.00     0.163 HD
HETATM    4  N           1     -22.253  -4.823  -8.961  0.00  0.00    -0.345 N 
ENDROOT
BRANCH   1   5
HETATM    5  C           1     -21.131  -5.664  -6.900  0.00  0.00     0.284 C 
BRANCH   5   6
HETATM    6  C           1     -20.837  -5.145  -5.498  0.00  0.00     0.155 C 
BRANCH   6   7
HETATM    7  C           1     -21.135  -6.227  -4.488  0.00  0.00     0.175 C 
HETATM    8  O           1     -21.968  -6.021  -3.579  0.00  0.00    -0.648 OA
HETATM    9  O           1     -20.550  -7.329  -4.561  0.00  0.00    -0.648 OA
ENDBRANCH   6   7
ENDBRANCH   5   6
BRANCH   5  10
HETATM   10  N           1     -19.863  -6.170  -7.521  0.00  0.00    -0.066 N 
HETATM   11  H           1     -19.087  -5.498  -7.324  0.00  0.00     0.275 HD
HETATM   12  H           1     -19.626  -7.103  -7.117  0.00  0.00     0.275 HD
HETATM   13  H           1     -19.992  -6.258  -8.554  0.00  0.00     0.275 HD
ENDBRANCH   5  10
ENDBRANCH   1   5
BRANCH   4  14
HETATM   14  C           1     -22.793  -3.749  -9.772  0.00  0.00     0.186 C 
BRANCH  14  15
HETATM   15  C           1     -22.315  -3.910 -11.209  0.00  0.00     0.046 C 
BRANCH  15  16
HETATM   16  C           1     -22.469  -2.586 -11.947  0.00  0.00     0.116 C 
BRANCH  16  17
HETATM   17  C           1     -23.321  -2.789 -13.175  0.00  0.00     0.172 C 
HETATM   18  O           1     -24.565  -2.853 -13.069  0.00  0.00    -0.648 OA
HETATM   19  O           1     -22.783  -2.894 -14.298  0.00  0.00    -0.648 OA
ENDBRANCH  16  17
ENDBRANCH  15  16
ENDBRANCH  14  15
BRANCH  14  20
HETATM   20  C           1     -24.301  -3.800  -9.733  0.00  0.00     0.196 C 
HETATM   21  O           1     -24.895  -4.883  -9.918  0.00  0.00    -0.646 OA
HETATM   22  O           1     -24.956  -2.757  -9.517  0.00  0.00    -0.646 OA
ENDBRANCH  14  20
ENDBRANCH   4  14
TORSDOF 9
ENDMDL
MODEL 2
REMARK VINA RESULT:      -6.2      1.698      6.952
REMARK  9 active torsions:
REMARK  status: ('A' for Active; 'I' for Inactive)
REMARK       I    between atoms: C_1  and  N_17 
REMARK    1  A    between atoms: C_1  and  C_2 
REMARK    2  A    between atoms: C_2  and  C_3 
REMARK    3  A    between atoms: C_2  and  N_7 
REMARK    4  A    between atoms: C_3  and  C_4 
REMARK    5  A    between atoms: C_13  and  C_22 
REMARK    6  A    between atoms: C_15  and  C_22 
REMARK    7  A    between atoms: C_15  and  C_21 
REMARK    8  A    between atoms: N_17  and  C_21 
REMARK    9  A    between atoms: C_20  and  C_21 
ROOT
HETATM    1  C           1     -23.113  -4.287  -9.042  0.00  0.00     0.249 C 
HETATM    2  O           1     -22.987  -3.152  -8.651  0.00  0.00    -0.271 OA
HETATM    3  H           1     -22.356  -6.210  -8.941  0.00  0.00     0.163 HD
HETATM    4  N           1     -22.250  -5.259  -8.613  0.00  0.00    -0.345 N 
ENDROOT
BRANCH   1   5
HETATM    5  C           1     -24.224  -4.635 -10.003  0.00  0.00     0.284 C 
BRANCH   5   6
HETATM    6  C           1     -23.678  -4.654 -11.425  0.00  0.00     0.155 C 
BRANCH   6   7
HETATM    7  C           1     -24.004  -3.347 -12.107  0.00  0.00     0.175 C 
HETATM    8  O           1     -25.073  -3.222 -12.741  0.00  0.00    -0.648 OA
HETATM    9  O           1     -23.204  -2.389 -12.035  0.00  0.00    -0.648 OA
ENDBRANCH   6   7
ENDBRANCH   5   6
BRANCH   5  10
HETATM   10  N           1     -25.313  -3.609  -9.900  0.00  0.00    -0.066 N 
HETATM   11  H           1     -24.889  -2.662  -9.776  0.00  0.00     0.275 HD
HETATM   12  H           1     -25.886  -3.622 -10.772  0.00  0.00     0.275 HD
HETATM   13  H           1     -25.921  -3.828  -9.078  0.00  0.00     0.275 HD
ENDBRANCH   5  10
ENDBRANCH   1   5
BRANCH   4  14
HETATM   14  C           1     -21.183  -4.924  -7.689  0.00  0.00     0.186 C 
BRANCH  14  15
HETATM   15  C           1     -20.944  -6.097  -6.746  0.00  0.00     0.046 C 
BRANCH  15  16
HETATM   16  C           1     -20.921  -5.595  -5.309  0.00  0.00     0.116 C 
BRANCH  16  17
HETATM   17  C           1     -21.781  -6.489  -4.449  0.00  0.00     0.172 C 
HETATM   18  O           1     -22.240  -6.062  -3.368  0.00  0.00    -0.648 OA
HETATM   19  O           1     -22.034  -7.655  -4.818  0.00  0.00    -0.648 OA
ENDBRANCH  16  17
ENDBRANCH  15  16
ENDBRANCH  14  15
BRANCH  14  20
HETATM   20  C           1     -19.920  -4.634  -8.464  0.00  0.00     0.196 C 
HETATM   21  O           1     -19.881  -4.844  -9.695  0.00  0.00    -0.646 OA
HETATM   22  O           1     -18.915  -4.185  -7.873  0.00  0.00    -0.646 OA
ENDBRANCH  14  20
ENDBRANCH   4  14
TORSDOF 9
ENDMDL
MODEL 3
REMARK VINA RESULT:      -5.9      2.019      3.231
REMARK  9 active torsions:
REMARK  status: ('A' for Active; 'I' for Inactive)
REMARK       I    between atoms: C_1  and  N_17 
REMARK    1  A    between atoms: C_1  and  C_2 
REMARK    2  A    between atoms: C_2  and  C_3 
REMARK    3  A    between atoms: C_2  and  N_7 
REMARK    4  A    between atoms: C_3  and  C_4 
REMARK    5  A    between atoms: C_13  and  C_22 
REMARK    6  A    between atoms: C_15  and  C_22 
REMARK    7  A    between atoms: C_15  and  C_21 
REMARK    8  A    between atoms: N_17  and  C_21 
REMARK    9  A    between atoms: C_20  and  C_21 
ROOT
HETATM    1  C           1     -21.238  -6.076  -6.262  0.00  0.00     0.249 C 
HETATM    2  O           1     -20.994  -7.060  -6.918  0.00  0.00    -0.271 OA
HETATM    3  H           1     -21.833  -4.096  -6.331  0.00  0.00     0.163 HD
HETATM    4  N           1     -21.629  -4.920  -6.881  0.00  0.00    -0.345 N 
ENDROOT
BRANCH   1   5
HETATM    5  C           1     -21.113  -6.122  -4.759  0.00  0.00     0.284 C 
BRANCH   5   6
HETATM    6  C           1     -20.343  -7.371  -4.350  0.00  0.00     0.155 C 
BRANCH   6   7
HETATM    7  C           1     -21.022  -8.016  -3.165  0.00  0.00     0.175 C 
HETATM    8  O           1     -20.858  -7.546  -2.019  0.00  0.00    -0.648 OA
HETATM    9  O           1     -21.748  -9.020  -3.331  0.00  0.00    -0.648 OA
ENDBRANCH   6   7
ENDBRANCH   5   6
BRANCH   5  10
HETATM   10  N           1     -22.482  -6.156  -4.145  0.00  0.00    -0.066 N 
HETATM   11  H           1     -22.395  -6.199  -3.105  0.00  0.00     0.275 HD
HETATM   12  H           1     -23.005  -5.294  -4.415  0.00  0.00     0.275 HD
HETATM   13  H           1     -22.996  -6.999  -4.486  0.00  0.00     0.275 HD
ENDBRANCH   5  10
ENDBRANCH   1   5
BRANCH   4  14
HETATM   14  C           1     -21.749  -4.876  -8.326  0.00  0.00     0.186 C 
BRANCH  14  15
HETATM   15  C           1     -22.888  -3.941  -8.711  0.00  0.00     0.046 C 
BRANCH  15  16
HETATM   16  C           1     -23.541  -4.437  -9.994  0.00  0.00     0.116 C 
BRANCH  16  17
HETATM   17  C           1     -24.514  -3.400 -10.498  0.00  0.00     0.172 C 
HETATM   18  O           1     -25.512  -3.093  -9.811  0.00  0.00    -0.648 OA
HETATM   19  O           1     -24.323  -2.849 -11.603  0.00  0.00    -0.648 OA
ENDBRANCH  16  17
ENDBRANCH  15  16
ENDBRANCH  14  15
BRANCH  14  20
HETATM   20  C           1     -20.457  -4.371  -8.922  0.00  0.00     0.196 C 
HETATM   21  O           1     -20.171  -4.638 -10.108  0.00  0.00    -0.646 OA
HETATM   22  O           1     -19.676  -3.686  -8.229  0.00  0.00    -0.646 OA
ENDBRANCH  14  20
ENDBRANCH   4  14
TORSDOF 9
ENDMDL
MODEL 4
REMARK VINA RESULT:      -5.8     17.916     19.849
REMARK  9 active torsions:
REMARK  status: ('A' for Active; 'I' for Inactive)
REMARK       I    between atoms: C_1  and  N_17 
REMARK    1  A    between atoms: C_1  and  C_2 
REMARK    2  A    between atoms: C_2  and  C_3 
REMARK    3  A    between atoms: C_2  and  N_7 
REMARK    4  A    between atoms: C_3  and  C_4 
REMARK    5  A    between atoms: C_13  and  C_22 
REMARK    6  A    between atoms: C_15  and  C_22 
REMARK    7  A    between atoms: C_15  and  C_21 
REMARK    8  A    between atoms: N_17  and  C_21 
REMARK    9  A    between atoms: C_20  and  C_21 
ROOT
HETATM    1  C           1     -11.695   3.891 -21.777  0.00  0.00     0.249 C 
HETATM    2  O           1     -11.194   2.899 -21.302  0.00  0.00    -0.271 OA
HETATM    3  H           1     -11.621   5.957 -21.853  0.00  0.00     0.163 HD
HETATM    4  N           1     -11.202   5.126 -21.455  0.00  0.00    -0.345 N 
ENDROOT
BRANCH   1   5
HETATM    5  C           1     -12.861   3.767 -22.725  0.00  0.00     0.284 C 
BRANCH   5   6
HETATM    6  C           1     -13.527   5.127 -22.893  0.00  0.00     0.155 C 
BRANCH   6   7
HETATM    7  C           1     -14.833   5.146 -22.137  0.00  0.00     0.175 C 
HETATM    8  O           1     -14.837   5.345 -20.903  0.00  0.00    -0.648 OA
HETATM    9  O           1     -15.910   4.963 -22.745  0.00  0.00    -0.648 OA
ENDBRANCH   6   7
ENDBRANCH   5   6
BRANCH   5  10
HETATM   10  N           1     -13.855   2.791 -22.170  0.00  0.00    -0.066 N 
HETATM   11  H           1     -14.134   3.088 -21.207  0.00  0.00     0.275 HD
HETATM   12  H           1     -14.699   2.766 -22.784  0.00  0.00     0.275 HD
HETATM   13  H           1     -13.424   1.840 -22.129  0.00  0.00     0.275 HD
ENDBRANCH   5  10
ENDBRANCH   1   5
BRANCH   4  14
HETATM   14  C           1     -10.080   5.245 -20.543  0.00  0.00     0.186 C 
BRANCH  14  15
HETATM   15  C           1      -9.234   6.450 -20.935  0.00  0.00     0.046 C 
BRANCH  15  16
HETATM   16  C           1     -10.144   7.634 -21.231  0.00  0.00     0.116 C 
BRANCH  16  17
HETATM   17  C           1      -9.669   8.840 -20.459  0.00  0.00     0.172 C 
HETATM   18  O           1      -8.999   9.726 -21.033  0.00  0.00    -0.648 OA
HETATM   19  O           1      -9.944   8.954 -19.245  0.00  0.00    -0.648 OA
ENDBRANCH  16  17
ENDBRANCH  15  16
ENDBRANCH  14  15
BRANCH  14  20
HETATM   20  C           1     -10.593   5.426 -19.136  0.00  0.00     0.196 C 
HETATM   21  O           1      -9.801   5.716 -18.214  0.00  0.00    -0.646 OA
HETATM   22  O           1     -11.810   5.284 -18.892  0.00  0.00    -0.646 OA
ENDBRANCH  14  20
ENDBRANCH   4  14
TORSDOF 9
ENDMDL
MODEL 5
REMARK VINA RESULT:      -5.7     17.150     19.975
REMARK  9 active torsions:
REMARK  status: ('A' for Active; 'I' for Inactive)
REMARK       I    between atoms: C_1  and  N_17 
REMARK    1  A    between atoms: C_1  and  C_2 
REMARK    2  A    between atoms: C_2  and  C_3 
REMARK    3  A    between atoms: C_2  and  N_7 
REMARK    4  A    between atoms: C_3  and  C_4 
REMARK    5  A    between atoms: C_13  and  C_22 
REMARK    6  A    between atoms: C_15  and  C_22 
REMARK    7  A    between atoms: C_15  and  C_21 
REMARK    8  A    between atoms: N_17  and  C_21 
REMARK    9  A    between atoms: C_20  and  C_21 
ROOT
HETATM    1  C           1     -12.090   7.504 -21.559  0.00  0.00     0.249 C 
HETATM    2  O           1     -11.657   6.887 -22.503  0.00  0.00    -0.271 OA
HETATM    3  H           1     -13.106   7.363 -19.762  0.00  0.00     0.163 HD
HETATM    4  N           1     -12.744   6.846 -20.553  0.00  0.00    -0.345 N 
ENDROOT
BRANCH   1   5
HETATM    5  C           1     -11.908   9.001 -21.489  0.00  0.00     0.284 C 
BRANCH   5   6
HETATM    6  C           1     -11.824   9.435 -20.031  0.00  0.00     0.155 C 
BRANCH   6   7
HETATM    7  C           1     -10.398   9.312 -19.551  0.00  0.00     0.175 C 
HETATM    8  O           1     -10.161   8.894 -18.398  0.00  0.00    -0.648 OA
HETATM    9  O           1      -9.454   9.628 -20.308  0.00  0.00    -0.648 OA
ENDBRANCH   6   7
ENDBRANCH   5   6
BRANCH   5  10
HETATM   10  N           1     -13.076   9.677 -22.144  0.00  0.00    -0.066 N 
HETATM   11  H           1     -12.805   9.987 -23.104  0.00  0.00     0.275 HD
HETATM   12  H           1     -13.874   9.006 -22.208  0.00  0.00     0.275 HD
HETATM   13  H           1     -13.361  10.507 -21.577  0.00  0.00     0.275 HD
ENDBRANCH   5  10
ENDBRANCH   1   5
BRANCH   4  14
HETATM   14  C           1     -12.918   5.408 -20.620  0.00  0.00     0.186 C 
BRANCH  14  15
HETATM   15  C           1     -12.066   4.743 -19.546  0.00  0.00     0.046 C 
BRANCH  15  16
HETATM   16  C           1     -10.656   4.526 -20.079  0.00  0.00     0.116 C 
BRANCH  16  17
HETATM   17  C           1      -9.715   5.513 -19.433  0.00  0.00     0.172 C 
HETATM   18  O           1      -8.905   6.156 -20.135  0.00  0.00    -0.648 OA
HETATM   19  O           1      -9.745   5.688 -18.196  0.00  0.00    -0.648 OA
ENDBRANCH  16  17
ENDBRANCH  15  16
ENDBRANCH  14  15
BRANCH  14  20
HETATM   20  C           1     -14.371   5.066 -20.394  0.00  0.00     0.196 C 
HETATM   21  O           1     -15.210   5.283 -21.294  0.00  0.00    -0.646 OA
HETATM   22  O           1     -14.732   4.568 -19.307  0.00  0.00    -0.646 OA
ENDBRANCH  14  20
ENDBRANCH   4  14
TORSDOF 9
ENDMDL
MODEL 6
REMARK VINA RESULT:      -5.7      2.542      7.884
REMARK  9 active torsions:
REMARK  status: ('A' for Active; 'I' for Inactive)
REMARK       I    between atoms: C_1  and  N_17 
REMARK    1  A    between atoms: C_1  and  C_2 
REMARK    2  A    between atoms: C_2  and  C_3 
REMARK    3  A    between atoms: C_2  and  N_7 
REMARK    4  A    between atoms: C_3  and  C_4 
REMARK    5  A    between atoms: C_13  and  C_22 
REMARK    6  A    between atoms: C_15  and  C_22 
REMARK    7  A    between atoms: C_15  and  C_21 
REMARK    8  A    between atoms: N_17  and  C_21 
REMARK    9  A    between atoms: C_20  and  C_21 
ROOT
HETATM    1  C           1     -21.078  -5.145  -6.866  0.00  0.00     0.249 C 
HETATM    2  O           1     -20.408  -4.367  -6.230  0.00  0.00    -0.271 OA
HETATM    3  H           1     -21.938  -7.027  -6.880  0.00  0.00     0.163 HD
HETATM    4  N           1     -21.376  -6.375  -6.347  0.00  0.00    -0.345 N 
ENDROOT
BRANCH   1   5
HETATM    5  C           1     -21.588  -4.759  -8.233  0.00  0.00     0.284 C 
BRANCH   5   6
HETATM    6  C           1     -20.431  -4.251  -9.083  0.00  0.00     0.155 C 
BRANCH   6   7
HETATM    7  C           1     -20.913  -4.003 -10.492  0.00  0.00     0.175 C 
HETATM    8  O           1     -20.279  -3.230 -11.242  0.00  0.00    -0.648 OA
HETATM    9  O           1     -21.946  -4.570 -10.909  0.00  0.00    -0.648 OA
ENDBRANCH   6   7
ENDBRANCH   5   6
BRANCH   5  10
HETATM   10  N           1     -22.618  -3.677  -8.094  0.00  0.00    -0.066 N 
HETATM   11  H           1     -22.533  -3.011  -8.895  0.00  0.00     0.275 HD
HETATM   12  H           1     -23.571  -4.102  -8.096  0.00  0.00     0.275 HD
HETATM   13  H           1     -22.465  -3.163  -7.197  0.00  0.00     0.275 HD
ENDBRANCH   5  10
ENDBRANCH   1   5
BRANCH   4  14
HETATM   14  C           1     -20.886  -6.746  -5.033  0.00  0.00     0.186 C 
BRANCH  14  15
HETATM   15  C           1     -22.022  -6.650  -4.023  0.00  0.00     0.046 C 
BRANCH  15  16
HETATM   16  C           1     -21.477  -6.150  -2.692  0.00  0.00     0.116 C 
BRANCH  16  17
HETATM   17  C           1     -21.847  -7.122  -1.598  0.00  0.00     0.172 C 
HETATM   18  O           1     -22.725  -6.816  -0.762  0.00  0.00    -0.648 OA
HETATM   19  O           1     -21.277  -8.231  -1.529  0.00  0.00    -0.648 OA
ENDBRANCH  16  17
ENDBRANCH  15  16
ENDBRANCH  14  15
BRANCH  14  20
HETATM   20  C           1     -20.365  -8.162  -5.072  0.00  0.00     0.196 C 
HETATM   21  O           1     -19.369  -8.481  -4.388  0.00  0.00    -0.646 OA
HETATM   22  O           1     -20.930  -9.015  -5.789  0.00  0.00    -0.646 OA
ENDBRANCH  14  20
ENDBRANCH   4  14
TORSDOF 9
ENDMDL
MODEL 7
REMARK VINA RESULT:      -5.7     17.897     19.781
REMARK  9 active torsions:
REMARK  status: ('A' for Active; 'I' for Inactive)
REMARK       I    between atoms: C_1  and  N_17 
REMARK    1  A    between atoms: C_1  and  C_2 
REMARK    2  A    between atoms: C_2  and  C_3 
REMARK    3  A    between atoms: C_2  and  N_7 
REMARK    4  A    between atoms: C_3  and  C_4 
REMARK    5  A    between atoms: C_13  and  C_22 
REMARK    6  A    between atoms: C_15  and  C_22 
REMARK    7  A    between atoms: C_15  and  C_21 
REMARK    8  A    between atoms: N_17  and  C_21 
REMARK    9  A    between atoms: C_20  and  C_21 
ROOT
HETATM    1  C           1     -12.336   7.167 -20.291  0.00  0.00     0.249 C 
HETATM    2  O           1     -13.174   6.928 -19.455  0.00  0.00    -0.271 OA
HETATM    3  H           1     -11.121   6.355 -21.755  0.00  0.00     0.163 HD
HETATM    4  N           1     -11.823   6.154 -21.055  0.00  0.00    -0.345 N 
ENDROOT
BRANCH   1   5
HETATM    5  C           1     -11.856   8.583 -20.494  0.00  0.00     0.284 C 
BRANCH   5   6
HETATM    6  C           1     -10.863   8.623 -21.649  0.00  0.00     0.155 C 
BRANCH   6   7
HETATM    7  C           1      -9.456   8.610 -21.103  0.00  0.00     0.175 C 
HETATM    8  O           1      -8.977   7.554 -20.637  0.00  0.00    -0.648 OA
HETATM    9  O           1      -8.769   9.654 -21.118  0.00  0.00    -0.648 OA
ENDBRANCH   6   7
ENDBRANCH   5   6
BRANCH   5  10
HETATM   10  N           1     -11.186   9.068 -19.243  0.00  0.00    -0.066 N 
HETATM   11  H           1     -11.137  10.111 -19.256  0.00  0.00     0.275 HD
HETATM   12  H           1     -11.737   8.757 -18.411  0.00  0.00     0.275 HD
HETATM   13  H           1     -10.220   8.675 -19.190  0.00  0.00     0.275 HD
ENDBRANCH   5  10
ENDBRANCH   1   5
BRANCH   4  14
HETATM   14  C           1     -12.284   4.793 -20.859  0.00  0.00     0.186 C 
BRANCH  14  15
HETATM   15  C           1     -12.710   4.206 -22.199  0.00  0.00     0.046 C 
BRANCH  15  16
HETATM   16  C           1     -14.208   3.929 -22.180  0.00  0.00     0.116 C 
BRANCH  16  17
HETATM   17  C           1     -14.953   5.211 -21.898  0.00  0.00     0.172 C 
HETATM   18  O           1     -15.734   5.278 -20.924  0.00  0.00    -0.648 OA
HETATM   19  O           1     -14.789   6.205 -22.638  0.00  0.00    -0.648 OA
ENDBRANCH  16  17
ENDBRANCH  15  16
ENDBRANCH  14  15
BRANCH  14  20
HETATM   20  C           1     -11.167   3.962 -20.277  0.00  0.00     0.196 C 
HETATM   21  O           1     -10.285   4.504 -19.577  0.00  0.00    -0.646 OA
HETATM   22  O           1     -11.124   2.733 -20.495  0.00  0.00    -0.646 OA
ENDBRANCH  14  20
ENDBRANCH   4  14
TORSDOF 9
ENDMDL
MODEL 8
REMARK VINA RESULT:      -5.6      4.087      8.164
REMARK  9 active torsions:
REMARK  status: ('A' for Active; 'I' for Inactive)
REMARK       I    between atoms: C_1  and  N_17 
REMARK    1  A    between atoms: C_1  and  C_2 
REMARK    2  A    between atoms: C_2  and  C_3 
REMARK    3  A    between atoms: C_2  and  N_7 
REMARK    4  A    between atoms: C_3  and  C_4 
REMARK    5  A    between atoms: C_13  and  C_22 
REMARK    6  A    between atoms: C_15  and  C_22 
REMARK    7  A    between atoms: C_15  and  C_21 
REMARK    8  A    between atoms: N_17  and  C_21 
REMARK    9  A    between atoms: C_20  and  C_21 
ROOT
HETATM    1  C           1     -20.746  -7.495  -5.387  0.00  0.00     0.249 C 
HETATM    2  O           1     -19.669  -7.970  -5.659  0.00  0.00    -0.271 OA
HETATM    3  H           1     -22.417  -7.660  -4.178  0.00  0.00     0.163 HD
HETATM    4  N           1     -21.515  -8.058  -4.405  0.00  0.00    -0.345 N 
ENDROOT
BRANCH   1   5
HETATM    5  C           1     -21.243  -6.279  -6.130  0.00  0.00     0.284 C 
BRANCH   5   6
HETATM    6  C           1     -20.208  -5.165  -6.034  0.00  0.00     0.155 C 
BRANCH   6   7
HETATM    7  C           1     -20.420  -4.182  -7.160  0.00  0.00     0.175 C 
HETATM    8  O           1     -21.427  -3.442  -7.162  0.00  0.00    -0.648 OA
HETATM    9  O           1     -19.588  -4.109  -8.090  0.00  0.00    -0.648 OA
ENDBRANCH   6   7
ENDBRANCH   5   6
BRANCH   5  10
HETATM   10  N           1     -22.534  -5.815  -5.523  0.00  0.00    -0.066 N 
HETATM   11  H           1     -23.149  -6.640  -5.342  0.00  0.00     0.275 HD
HETATM   12  H           1     -22.337  -5.325  -4.622  0.00  0.00     0.275 HD
HETATM   13  H           1     -23.013  -5.161  -6.181  0.00  0.00     0.275 HD
ENDBRANCH   5  10
ENDBRANCH   1   5
BRANCH   4  14
HETATM   14  C           1     -21.037  -9.226  -3.691  0.00  0.00     0.186 C 
BRANCH  14  15
HETATM   15  C           1     -21.320  -9.061  -2.203  0.00  0.00     0.046 C 
BRANCH  15  16
HETATM   16  C           1     -20.894  -7.669  -1.756  0.00  0.00     0.116 C 
BRANCH  16  17
HETATM   17  C           1     -22.117  -6.808  -1.555  0.00  0.00     0.172 C 
HETATM   18  O           1     -22.431  -5.958  -2.416  0.00  0.00    -0.648 OA
HETATM   19  O           1     -22.816  -6.945  -0.528  0.00  0.00    -0.648 OA
ENDBRANCH  16  17
ENDBRANCH  15  16
ENDBRANCH  14  15
BRANCH  14  20
HETATM   20  C           1     -21.746 -10.455  -4.206  0.00  0.00     0.196 C 
HETATM   21  O           1     -21.274 -11.090  -5.173  0.00  0.00    -0.646 OA
HETATM   22  O           1     -22.805 -10.837  -3.665  0.00  0.00    -0.646 OA
ENDBRANCH  14  20
ENDBRANCH   4  14
TORSDOF 9
ENDMDL
MODEL 9
REMARK VINA RESULT:      -5.4      2.943      7.685
REMARK  9 active torsions:
REMARK  status: ('A' for Active; 'I' for Inactive)
REMARK       I    between atoms: C_1  and  N_17 
REMARK    1  A    between atoms: C_1  and  C_2 
REMARK    2  A    between atoms: C_2  and  C_3 
REMARK    3  A    between atoms: C_2  and  N_7 
REMARK    4  A    between atoms: C_3  and  C_4 
REMARK    5  A    between atoms: C_13  and  C_22 
REMARK    6  A    between atoms: C_15  and  C_22 
REMARK    7  A    between atoms: C_15  and  C_21 
REMARK    8  A    between atoms: N_17  and  C_21 
REMARK    9  A    between atoms: C_20  and  C_21 
ROOT
HETATM    1  C           1     -20.152  -5.460  -6.009  0.00  0.00     0.249 C 
HETATM    2  O           1     -20.026  -4.814  -4.997  0.00  0.00    -0.271 OA
HETATM    3  H           1     -20.337  -7.366  -6.793  0.00  0.00     0.163 HD
HETATM    4  N           1     -20.231  -6.824  -5.945  0.00  0.00    -0.345 N 
ENDROOT
BRANCH   1   5
HETATM    5  C           1     -20.225  -4.762  -7.345  0.00  0.00     0.284 C 
BRANCH   5   6
HETATM    6  C           1     -21.172  -3.573  -7.248  0.00  0.00     0.155 C 
BRANCH   6   7
HETATM    7  C           1     -22.506  -3.941  -7.850  0.00  0.00     0.175 C 
HETATM    8  O           1     -23.358  -4.542  -7.161  0.00  0.00    -0.648 OA
HETATM    9  O           1     -22.760  -3.644  -9.037  0.00  0.00    -0.648 OA
ENDBRANCH   6   7
ENDBRANCH   5   6
BRANCH   5  10
HETATM   10  N           1     -20.732  -5.721  -8.382  0.00  0.00    -0.066 N 
HETATM   11  H           1     -20.670  -5.277  -9.326  0.00  0.00     0.275 HD
HETATM   12  H           1     -20.151  -6.588  -8.367  0.00  0.00     0.275 HD
HETATM   13  H           1     -21.728  -5.962  -8.176  0.00  0.00     0.275 HD
ENDBRANCH   5  10
ENDBRANCH   1   5
BRANCH   4  14
HETATM   14  C           1     -20.161  -7.495  -4.660  0.00  0.00     0.186 C 
BRANCH  14  15
HETATM   15  C           1     -21.569  -7.671  -4.104  0.00  0.00     0.046 C 
BRANCH  15  16
HETATM   16  C           1     -21.495  -7.907  -2.601  0.00  0.00     0.116 C 
BRANCH  16  17
HETATM   17  C           1     -22.105  -6.732  -1.877  0.00  0.00     0.172 C 
HETATM   18  O           1     -22.703  -6.908  -0.793  0.00  0.00    -0.648 OA
HETATM   19  O           1     -22.011  -5.583  -2.359  0.00  0.00    -0.648 OA
ENDBRANCH  16  17
ENDBRANCH  15  16
ENDBRANCH  14  15
BRANCH  14  20
HETATM   20  C           1     -19.515  -8.848  -4.834  0.00  0.00     0.196 C 
HETATM   21  O           1     -18.511  -9.152  -4.155  0.00  0.00    -0.646 OA
HETATM   22  O           1     -19.984  -9.663  -5.656  0.00  0.00    -0.646 OA
ENDBRANCH  14  20
ENDBRANCH   4  14
TORSDOF 9
ENDMDL
