MODEL 1
REMARK VINA RESULT:      -5.8      0.000      0.000
REMARK  8 active torsions:
REMARK  status: ('A' for Active; 'I' for Inactive)
REMARK       I    between atoms: C_2  and  N_3 
REMARK    1  A    between atoms: C_2  and  C_4 
REMARK    2  A    between atoms: C_4  and  C_5 
REMARK    3  A    between atoms: C_5  and  C_6 
REMARK    4  A    between atoms: C_5  and  N_9 
REMARK       I    between atoms: N_9  and  C_10 
REMARK    5  A    between atoms: C_10  and  C_11 
REMARK    6  A    between atoms: C_11  and  C_12 
REMARK    7  A    between atoms: C_11  and  N_14 
REMARK    8  A    between atoms: C_12  and  Se_13 
ROOT
HETATM    1  N           1     -23.356  -4.216  -8.782  0.00  0.00    -0.344 N 
HETATM    2  C           1     -22.280  -4.139  -7.940  0.00  0.00     0.249 C 
HETATM    3  O           1     -21.267  -3.589  -8.303  0.00  0.00    -0.271 OA
HETATM    4  H           1     -24.205  -4.676  -8.477  0.00  0.00     0.163 HD
ENDROOT
BRANCH   1   5
HETATM    5  C           1     -23.282  -3.638 -10.109  0.00  0.00     0.194 C 
BRANCH   5   6
HETATM    6  C           1     -22.682  -4.653 -11.072  0.00  0.00     0.138 C 
BRANCH   6   7
HETATM    7  C           1     -21.613  -3.987 -11.905  0.00  0.00     0.217 C 
HETATM    8  O           1     -20.478  -3.929 -11.497  0.00  0.00    -0.274 OA
HETATM    9  N           1     -21.932  -3.449 -13.123  0.00  0.00    -0.370 N 
HETATM   10  H           1     -22.883  -3.498 -13.465  0.00  0.00     0.159 HD
HETATM   11  H           1     -21.216  -3.002 -13.682  0.00  0.00     0.159 HD
ENDBRANCH   6   7
ENDBRANCH   5   6
BRANCH   5  12
HETATM   12  C           1     -24.667  -3.261 -10.572  0.00  0.00     0.197 C 
HETATM   13  O           1     -24.895  -3.090 -11.789  0.00  0.00    -0.646 OA
HETATM   14  O           1     -25.589  -3.120  -9.738  0.00  0.00    -0.646 OA
ENDBRANCH   5  12
ENDBRANCH   1   5
BRANCH   2  15
HETATM   15  C           1     -22.357  -4.741  -6.559  0.00  0.00     0.274 C 
BRANCH  15  16
HETATM   16  C           1     -21.478  -5.982  -6.494  0.00  0.00     0.045 C 
BRANCH  16  17
HETATM   17 Se           1     -21.898  -6.994  -4.883  0.00  0.00     0.000 Se
HETATM   18  H           1     -23.236  -6.403  -4.720  0.00  0.00     0.000 HD
ENDBRANCH  16  17
ENDBRANCH  15  16
BRANCH  15  19
HETATM   19  N           1     -23.777  -5.118  -6.256  0.00  0.00    -0.067 N 
HETATM   20  H           1     -23.790  -5.922  -5.589  0.00  0.00     0.275 HD
HETATM   21  H           1     -24.270  -4.302  -5.828  0.00  0.00     0.275 HD
HETATM   22  H           1     -24.259  -5.392  -7.142  0.00  0.00     0.275 HD
ENDBRANCH  15  19
ENDBRANCH   2  15
TORSDOF 8
ENDMDL
MODEL 2
REMARK VINA RESULT:      -5.4      9.810     11.409
REMARK  8 active torsions:
REMARK  status: ('A' for Active; 'I' for Inactive)
REMARK       I    between atoms: C_2  and  N_3 
REMARK    1  A    between atoms: C_2  and  C_4 
REMARK    2  A    between atoms: C_4  and  C_5 
REMARK    3  A    between atoms: C_5  and  C_6 
REMARK    4  A    between atoms: C_5  and  N_9 
REMARK       I    between atoms: N_9  and  C_10 
REMARK    5  A    between atoms: C_10  and  C_11 
REMARK    6  A    between atoms: C_11  and  C_12 
REMARK    7  A    between atoms: C_11  and  N_14 
REMARK    8  A    between atoms: C_12  and  Se_13 
ROOT
HETATM    1  N           1     -27.392  -7.198 -19.251  0.00  0.00    -0.344 N 
HETATM    2  C           1     -28.322  -6.367 -18.689  0.00  0.00     0.249 C 
HETATM    3  O           1     -28.591  -5.315 -19.219  0.00  0.00    -0.271 OA
HETATM    4  H           1     -27.166  -8.079 -18.807  0.00  0.00     0.163 HD
ENDROOT
BRANCH   1   5
HETATM    5  C           1     -26.731  -6.818 -20.484  0.00  0.00     0.194 C 
BRANCH   5   6
HETATM    6  C           1     -25.422  -6.109 -20.161  0.00  0.00     0.138 C 
BRANCH   6   7
HETATM    7  C           1     -24.696  -6.864 -19.074  0.00  0.00     0.217 C 
HETATM    8  O           1     -24.986  -6.683 -17.915  0.00  0.00    -0.274 OA
HETATM    9  N           1     -23.709  -7.755 -19.402  0.00  0.00    -0.370 N 
HETATM   10  H           1     -23.466  -7.907 -20.372  0.00  0.00     0.159 HD
HETATM   11  H           1     -23.222  -8.261 -18.673  0.00  0.00     0.159 HD
ENDBRANCH   6   7
ENDBRANCH   5   6
BRANCH   5  12
HETATM   12  C           1     -26.446  -8.052 -21.304  0.00  0.00     0.197 C 
HETATM   13  O           1     -25.319  -8.214 -21.820  0.00  0.00    -0.646 OA
HETATM   14  O           1     -27.338  -8.913 -21.468  0.00  0.00    -0.646 OA
ENDBRANCH   5  12
ENDBRANCH   1   5
BRANCH   2  15
HETATM   15  C           1     -29.010  -6.762 -17.406  0.00  0.00     0.274 C 
BRANCH  15  16
HETATM   16  C           1     -28.071  -6.528 -16.231  0.00  0.00     0.045 C 
BRANCH  16  17
HETATM   17 Se           1     -29.075  -5.793 -14.731  0.00  0.00     0.000 Se
HETATM   18  H           1     -29.666  -7.085 -14.344  0.00  0.00     0.000 HD
ENDBRANCH  16  17
ENDBRANCH  15  16
BRANCH  15  19
HETATM   19  N           1     -29.384  -8.213 -17.465  0.00  0.00    -0.067 N 
HETATM   20  H           1     -28.697  -8.774 -16.913  0.00  0.00     0.275 HD
HETATM   21  H           1     -30.341  -8.343 -17.066  0.00  0.00     0.275 HD
HETATM   22  H           1     -29.375  -8.533 -18.460  0.00  0.00     0.275 HD
ENDBRANCH  15  19
ENDBRANCH   2  15
TORSDOF 8
ENDMDL
MODEL 3
REMARK VINA RESULT:      -5.3     10.156     11.338
REMARK  8 active torsions:
REMARK  status: ('A' for Active; 'I' for Inactive)
REMARK       I    between atoms: C_2  and  N_3 
REMARK    1  A    between atoms: C_2  and  C_4 
REMARK    2  A    between atoms: C_4  and  C_5 
REMARK    3  A    between atoms: C_5  and  C_6 
REMARK    4  A    between atoms: C_5  and  N_9 
REMARK       I    between atoms: N_9  and  C_10 
REMARK    5  A    between atoms: C_10  and  C_11 
REMARK    6  A    between atoms: C_11  and  C_12 
REMARK    7  A    between atoms: C_11  and  N_14 
REMARK    8  A    between atoms: C_12  and  Se_13 
ROOT
HETATM    1  N           1     -27.487  -6.678 -18.362  0.00  0.00    -0.344 N 
HETATM    2  C           1     -26.190  -6.364 -18.060  0.00  0.00     0.249 C 
HETATM    3  O           1     -25.926  -5.839 -17.004  0.00  0.00    -0.271 OA
HETATM    4  H           1     -27.709  -7.118 -19.246  0.00  0.00     0.163 HD
ENDROOT
BRANCH   1   5
HETATM    5  C           1     -28.544  -6.383 -17.414  0.00  0.00     0.194 C 
BRANCH   5   6
HETATM    6  C           1     -29.846  -6.139 -18.166  0.00  0.00     0.138 C 
BRANCH   6   7
HETATM    7  C           1     -30.931  -5.762 -17.187  0.00  0.00     0.217 C 
HETATM    8  O           1     -30.813  -4.771 -16.507  0.00  0.00    -0.274 OA
HETATM    9  N           1     -32.049  -6.545 -17.069  0.00  0.00    -0.370 N 
HETATM   10  H           1     -32.147  -7.375 -17.639  0.00  0.00     0.159 HD
HETATM   11  H           1     -32.776  -6.292 -16.413  0.00  0.00     0.159 HD
ENDBRANCH   6   7
ENDBRANCH   5   6
BRANCH   5  12
HETATM   12  C           1     -28.717  -7.549 -16.474  0.00  0.00     0.197 C 
HETATM   13  O           1     -28.201  -7.518 -15.336  0.00  0.00    -0.646 OA
HETATM   14  O           1     -29.376  -8.550 -16.832  0.00  0.00    -0.646 OA
ENDBRANCH   5  12
ENDBRANCH   1   5
BRANCH   2  15
HETATM   15  C           1     -25.090  -6.671 -19.045  0.00  0.00     0.274 C 
BRANCH  15  16
HETATM   16  C           1     -25.680  -7.354 -20.271  0.00  0.00     0.045 C 
BRANCH  16  17
HETATM   17 Se           1     -24.239  -7.946 -21.443  0.00  0.00     0.000 Se
HETATM   18  H           1     -25.062  -8.947 -22.141  0.00  0.00     0.000 HD
ENDBRANCH  16  17
ENDBRANCH  15  16
BRANCH  15  19
HETATM   19  N           1     -24.083  -7.578 -18.404  0.00  0.00    -0.067 N 
HETATM   20  H           1     -23.491  -7.030 -17.741  0.00  0.00     0.275 HD
HETATM   21  H           1     -24.579  -8.337 -17.884  0.00  0.00     0.275 HD
HETATM   22  H           1     -23.477  -8.002 -19.143  0.00  0.00     0.275 HD
ENDBRANCH  15  19
ENDBRANCH   2  15
TORSDOF 8
ENDMDL
MODEL 4
REMARK VINA RESULT:      -5.0      1.728      1.936
REMARK  8 active torsions:
REMARK  status: ('A' for Active; 'I' for Inactive)
REMARK       I    between atoms: C_2  and  N_3 
REMARK    1  A    between atoms: C_2  and  C_4 
REMARK    2  A    between atoms: C_4  and  C_5 
REMARK    3  A    between atoms: C_5  and  C_6 
REMARK    4  A    between atoms: C_5  and  N_9 
REMARK       I    between atoms: N_9  and  C_10 
REMARK    5  A    between atoms: C_10  and  C_11 
REMARK    6  A    between atoms: C_11  and  C_12 
REMARK    7  A    between atoms: C_11  and  N_14 
REMARK    8  A    between atoms: C_12  and  Se_13 
ROOT
HETATM    1  N           1     -22.037  -4.983  -9.168  0.00  0.00    -0.344 N 
HETATM    2  C           1     -21.571  -4.642  -7.927  0.00  0.00     0.249 C 
HETATM    3  O           1     -21.632  -3.495  -7.553  0.00  0.00    -0.271 OA
HETATM    4  H           1     -21.986  -5.944  -9.481  0.00  0.00     0.163 HD
ENDROOT
BRANCH   1   5
HETATM    5  C           1     -22.606  -3.968 -10.033  0.00  0.00     0.194 C 
BRANCH   5   6
HETATM    6  C           1     -22.238  -4.269 -11.479  0.00  0.00     0.138 C 
BRANCH   6   7
HETATM    7  C           1     -23.028  -3.369 -12.398  0.00  0.00     0.217 C 
HETATM    8  O           1     -22.870  -2.172 -12.354  0.00  0.00    -0.274 OA
HETATM    9  N           1     -23.923  -3.910 -13.282  0.00  0.00    -0.370 N 
HETATM   10  H           1     -24.055  -4.912 -13.319  0.00  0.00     0.159 HD
HETATM   11  H           1     -24.453  -3.306 -13.898  0.00  0.00     0.159 HD
ENDBRANCH   6   7
ENDBRANCH   5   6
BRANCH   5  12
HETATM   12  C           1     -24.108  -3.966  -9.885  0.00  0.00     0.197 C 
HETATM   13  O           1     -24.700  -2.926  -9.526  0.00  0.00    -0.646 OA
HETATM   14  O           1     -24.760  -5.006 -10.123  0.00  0.00    -0.646 OA
ENDBRANCH   5  12
ENDBRANCH   1   5
BRANCH   2  15
HETATM   15  C           1     -20.978  -5.698  -7.027  0.00  0.00     0.274 C 
BRANCH  15  16
HETATM   16  C           1     -21.305  -5.372  -5.576  0.00  0.00     0.045 C 
BRANCH  16  17
HETATM   17 Se           1     -21.886  -6.992  -4.661  0.00  0.00     0.000 Se
HETATM   18  H           1     -21.606  -6.470  -3.314  0.00  0.00     0.000 HD
ENDBRANCH  16  17
ENDBRANCH  15  16
BRANCH  15  19
HETATM   19  N           1     -19.490  -5.732  -7.208  0.00  0.00    -0.067 N 
HETATM   20  H           1     -19.127  -4.757  -7.303  0.00  0.00     0.275 HD
HETATM   21  H           1     -19.048  -6.188  -6.379  0.00  0.00     0.275 HD
HETATM   22  H           1     -19.257  -6.275  -8.070  0.00  0.00     0.275 HD
ENDBRANCH  15  19
ENDBRANCH   2  15
TORSDOF 8
ENDMDL
MODEL 5
REMARK VINA RESULT:      -4.7      4.444      7.333
REMARK  8 active torsions:
REMARK  status: ('A' for Active; 'I' for Inactive)
REMARK       I    between atoms: C_2  and  N_3 
REMARK    1  A    between atoms: C_2  and  C_4 
REMARK    2  A    between atoms: C_4  and  C_5 
REMARK    3  A    between atoms: C_5  and  C_6 
REMARK    4  A    between atoms: C_5  and  N_9 
REMARK       I    between atoms: N_9  and  C_10 
REMARK    5  A    between atoms: C_10  and  C_11 
REMARK    6  A    between atoms: C_11  and  C_12 
REMARK    7  A    between atoms: C_11  and  N_14 
REMARK    8  A    between atoms: C_12  and  Se_13 
ROOT
HETATM    1  N           1     -20.908  -6.833  -6.194  0.00  0.00    -0.344 N 
HETATM    2  C           1     -20.867  -5.487  -6.440  0.00  0.00     0.249 C 
HETATM    3  O           1     -20.482  -4.728  -5.583  0.00  0.00    -0.271 OA
HETATM    4  H           1     -21.231  -7.469  -6.912  0.00  0.00     0.163 HD
ENDROOT
BRANCH   1   5
HETATM    5  C           1     -20.486  -7.348  -4.906  0.00  0.00     0.194 C 
BRANCH   5   6
HETATM    6  C           1     -21.711  -7.633  -4.048  0.00  0.00     0.138 C 
BRANCH   6   7
HETATM    7  C           1     -21.552  -6.962  -2.705  0.00  0.00     0.217 C 
HETATM    8  O           1     -20.717  -7.358  -1.927  0.00  0.00    -0.274 OA
HETATM    9  N           1     -22.355  -5.905  -2.369  0.00  0.00    -0.370 N 
HETATM   10  H           1     -23.054  -5.574  -3.021  0.00  0.00     0.159 HD
HETATM   11  H           1     -22.248  -5.455  -1.469  0.00  0.00     0.159 HD
ENDBRANCH   6   7
ENDBRANCH   5   6
BRANCH   5  12
HETATM   12  C           1     -19.703  -8.622  -5.106  0.00  0.00     0.197 C 
HETATM   13  O           1     -18.891  -8.716  -6.052  0.00  0.00    -0.646 OA
HETATM   14  O           1     -19.867  -9.585  -4.326  0.00  0.00    -0.646 OA
ENDBRANCH   5  12
ENDBRANCH   1   5
BRANCH   2  15
HETATM   15  C           1     -21.307  -4.951  -7.780  0.00  0.00     0.274 C 
BRANCH  15  16
HETATM   16  C           1     -20.084  -4.552  -8.594  0.00  0.00     0.045 C 
BRANCH  16  17
HETATM   17 Se           1     -20.609  -4.239 -10.445  0.00  0.00     0.000 Se
HETATM   18  H           1     -19.228  -4.226 -10.956  0.00  0.00     0.000 HD
ENDBRANCH  16  17
ENDBRANCH  15  16
BRANCH  15  19
HETATM   19  N           1     -22.183  -3.751  -7.576  0.00  0.00    -0.067 N 
HETATM   20  H           1     -22.545  -3.746  -6.596  0.00  0.00     0.275 HD
HETATM   21  H           1     -21.630  -2.882  -7.748  0.00  0.00     0.275 HD
HETATM   22  H           1     -22.987  -3.792  -8.243  0.00  0.00     0.275 HD
ENDBRANCH  15  19
ENDBRANCH   2  15
TORSDOF 8
ENDMDL
MODEL 6
REMARK VINA RESULT:      -4.7      4.557      7.282
REMARK  8 active torsions:
REMARK  status: ('A' for Active; 'I' for Inactive)
REMARK       I    between atoms: C_2  and  N_3 
REMARK    1  A    between atoms: C_2  and  C_4 
REMARK    2  A    between atoms: C_4  and  C_5 
REMARK    3  A    between atoms: C_5  and  C_6 
REMARK    4  A    between atoms: C_5  and  N_9 
REMARK       I    between atoms: N_9  and  C_10 
REMARK    5  A    between atoms: C_10  and  C_11 
REMARK    6  A    between atoms: C_11  and  C_12 
REMARK    7  A    between atoms: C_11  and  N_14 
REMARK    8  A    between atoms: C_12  and  Se_13 
ROOT
HETATM    1  N           1     -20.869  -6.658  -4.846  0.00  0.00    -0.344 N 
HETATM    2  C           1     -21.398  -5.735  -5.707  0.00  0.00     0.249 C 
HETATM    3  O           1     -22.591  -5.550  -5.735  0.00  0.00    -0.271 OA
HETATM    4  H           1     -19.869  -6.814  -4.822  0.00  0.00     0.163 HD
ENDROOT
BRANCH   1   5
HETATM    5  C           1     -21.741  -7.411  -3.965  0.00  0.00     0.194 C 
BRANCH   5   6
HETATM    6  C           1     -21.341  -8.881  -3.992  0.00  0.00     0.138 C 
BRANCH   6   7
HETATM    7  C           1     -19.929  -9.009  -4.509  0.00  0.00     0.217 C 
HETATM    8  O           1     -19.724  -9.068  -5.698  0.00  0.00    -0.274 OA
HETATM    9  N           1     -18.880  -9.059  -3.629  0.00  0.00    -0.370 N 
HETATM   10  H           1     -19.052  -9.010  -2.633  0.00  0.00     0.159 HD
HETATM   11  H           1     -17.933  -9.145  -3.976  0.00  0.00     0.159 HD
ENDBRANCH   6   7
ENDBRANCH   5   6
BRANCH   5  12
HETATM   12  C           1     -21.615  -6.880  -2.559  0.00  0.00     0.197 C 
HETATM   13  O           1     -20.829  -7.423  -1.753  0.00  0.00    -0.646 OA
HETATM   14  O           1     -22.299  -5.897  -2.199  0.00  0.00    -0.646 OA
ENDBRANCH   5  12
ENDBRANCH   1   5
BRANCH   2  15
HETATM   15  C           1     -20.491  -4.952  -6.624  0.00  0.00     0.274 C 
BRANCH  15  16
HETATM   16  C           1     -21.264  -3.790  -7.233  0.00  0.00     0.045 C 
BRANCH  16  17
HETATM   17 Se           1     -21.795  -4.246  -9.052  0.00  0.00     0.000 Se
HETATM   18  H           1     -20.643  -5.131  -9.291  0.00  0.00     0.000 HD
ENDBRANCH  16  17
ENDBRANCH  15  16
BRANCH  15  19
HETATM   19  N           1     -19.990  -5.847  -7.717  0.00  0.00    -0.067 N 
HETATM   20  H           1     -19.713  -5.270  -8.543  0.00  0.00     0.275 HD
HETATM   21  H           1     -19.162  -6.385  -7.375  0.00  0.00     0.275 HD
HETATM   22  H           1     -20.747  -6.512  -7.996  0.00  0.00     0.275 HD
ENDBRANCH  15  19
ENDBRANCH   2  15
TORSDOF 8
ENDMDL
MODEL 7
REMARK VINA RESULT:      -4.7      2.668      4.435
REMARK  8 active torsions:
REMARK  status: ('A' for Active; 'I' for Inactive)
REMARK       I    between atoms: C_2  and  N_3 
REMARK    1  A    between atoms: C_2  and  C_4 
REMARK    2  A    between atoms: C_4  and  C_5 
REMARK    3  A    between atoms: C_5  and  C_6 
REMARK    4  A    between atoms: C_5  and  N_9 
REMARK       I    between atoms: N_9  and  C_10 
REMARK    5  A    between atoms: C_10  and  C_11 
REMARK    6  A    between atoms: C_11  and  C_12 
REMARK    7  A    between atoms: C_11  and  N_14 
REMARK    8  A    between atoms: C_12  and  Se_13 
ROOT
HETATM    1  N           1     -21.091  -5.234  -6.045  0.00  0.00    -0.344 N 
HETATM    2  C           1     -21.149  -6.533  -5.617  0.00  0.00     0.249 C 
HETATM    3  O           1     -21.306  -7.426  -6.416  0.00  0.00    -0.271 OA
HETATM    4  H           1     -20.959  -4.487  -5.375  0.00  0.00     0.163 HD
ENDROOT
BRANCH   1   5
HETATM    5  C           1     -21.216  -4.930  -7.457  0.00  0.00     0.194 C 
BRANCH   5   6
HETATM    6  C           1     -21.955  -3.609  -7.627  0.00  0.00     0.138 C 
BRANCH   6   7
HETATM    7  C           1     -22.967  -3.738  -8.739  0.00  0.00     0.217 C 
HETATM    8  O           1     -22.619  -3.618  -9.890  0.00  0.00    -0.274 OA
HETATM    9  N           1     -24.280  -3.991  -8.444  0.00  0.00    -0.370 N 
HETATM   10  H           1     -24.572  -4.092  -7.480  0.00  0.00     0.159 HD
HETATM   11  H           1     -24.958  -4.078  -9.189  0.00  0.00     0.159 HD
ENDBRANCH   6   7
ENDBRANCH   5   6
BRANCH   5  12
HETATM   12  C           1     -19.843  -4.821  -8.071  0.00  0.00     0.197 C 
HETATM   13  O           1     -18.850  -4.592  -7.348  0.00  0.00    -0.646 OA
HETATM   14  O           1     -19.697  -4.960  -9.306  0.00  0.00    -0.646 OA
ENDBRANCH   5  12
ENDBRANCH   1   5
BRANCH   2  15
HETATM   15  C           1     -21.019  -6.851  -4.148  0.00  0.00     0.274 C 
BRANCH  15  16
HETATM   16  C           1     -21.103  -8.357  -3.943  0.00  0.00     0.045 C 
BRANCH  16  17
HETATM   17 Se           1     -19.305  -9.108  -3.891  0.00  0.00     0.000 Se
HETATM   18  H           1     -18.675  -7.945  -4.538  0.00  0.00     0.000 HD
ENDBRANCH  16  17
ENDBRANCH  15  16
BRANCH  15  19
HETATM   19  N           1     -22.127  -6.182  -3.391  0.00  0.00    -0.067 N 
HETATM   20  H           1     -22.936  -6.836  -3.305  0.00  0.00     0.275 HD
HETATM   21  H           1     -21.789  -5.918  -2.438  0.00  0.00     0.275 HD
HETATM   22  H           1     -22.428  -5.322  -3.905  0.00  0.00     0.275 HD
ENDBRANCH  15  19
ENDBRANCH   2  15
TORSDOF 8
ENDMDL
MODEL 8
REMARK VINA RESULT:      -4.5      7.231      9.792
REMARK  8 active torsions:
REMARK  status: ('A' for Active; 'I' for Inactive)
REMARK       I    between atoms: C_2  and  N_3 
REMARK    1  A    between atoms: C_2  and  C_4 
REMARK    2  A    between atoms: C_4  and  C_5 
REMARK    3  A    between atoms: C_5  and  C_6 
REMARK    4  A    between atoms: C_5  and  N_9 
REMARK       I    between atoms: N_9  and  C_10 
REMARK    5  A    between atoms: C_10  and  C_11 
REMARK    6  A    between atoms: C_11  and  C_12 
REMARK    7  A    between atoms: C_11  and  N_14 
REMARK    8  A    between atoms: C_12  and  Se_13 
ROOT
HETATM    1  N           1     -21.370  -8.719  -2.488  0.00  0.00    -0.344 N 
HETATM    2  C           1     -20.315  -8.531  -3.339  0.00  0.00     0.249 C 
HETATM    3  O           1     -19.211  -8.906  -3.023  0.00  0.00    -0.271 OA
HETATM    4  H           1     -22.295  -8.405  -2.753  0.00  0.00     0.163 HD
ENDROOT
BRANCH   1   5
HETATM    5  C           1     -21.164  -9.368  -1.209  0.00  0.00     0.194 C 
BRANCH   5   6
HETATM    6  C           1     -21.235  -8.331  -0.096  0.00  0.00     0.138 C 
BRANCH   6   7
HETATM    7  C           1     -22.543  -7.583  -0.189  0.00  0.00     0.217 C 
HETATM    8  O           1     -22.668  -6.682  -0.984  0.00  0.00    -0.274 OA
HETATM    9  N           1     -23.587  -7.925   0.629  0.00  0.00    -0.370 N 
HETATM   10  H           1     -23.482  -8.679   1.296  0.00  0.00     0.159 HD
HETATM   11  H           1     -24.463  -7.423   0.567  0.00  0.00     0.159 HD
ENDBRANCH   6   7
ENDBRANCH   5   6
BRANCH   5  12
HETATM   12  C           1     -22.233 -10.411  -0.995  0.00  0.00     0.197 C 
HETATM   13  O           1     -22.403 -10.910   0.138  0.00  0.00    -0.646 OA
HETATM   14  O           1     -22.950 -10.776  -1.952  0.00  0.00    -0.646 OA
ENDBRANCH   5  12
ENDBRANCH   1   5
BRANCH   2  15
HETATM   15  C           1     -20.529  -7.856  -4.671  0.00  0.00     0.274 C 
BRANCH  15  16
HETATM   16  C           1     -21.558  -6.744  -4.518  0.00  0.00     0.045 C 
BRANCH  16  17
HETATM   17 Se           1     -21.511  -5.594  -6.090  0.00  0.00     0.000 Se
HETATM   18  H           1     -22.680  -4.795  -5.684  0.00  0.00     0.000 HD
ENDBRANCH  16  17
ENDBRANCH  15  16
BRANCH  15  19
HETATM   19  N           1     -21.024  -8.861  -5.668  0.00  0.00    -0.067 N 
HETATM   20  H           1     -21.694  -8.401  -6.324  0.00  0.00     0.275 HD
HETATM   21  H           1     -20.215  -9.243  -6.207  0.00  0.00     0.275 HD
HETATM   22  H           1     -21.507  -9.639  -5.165  0.00  0.00     0.275 HD
ENDBRANCH  15  19
ENDBRANCH   2  15
TORSDOF 8
ENDMDL
MODEL 9
REMARK VINA RESULT:      -4.4      5.783      8.442
REMARK  8 active torsions:
REMARK  status: ('A' for Active; 'I' for Inactive)
REMARK       I    between atoms: C_2  and  N_3 
REMARK    1  A    between atoms: C_2  and  C_4 
REMARK    2  A    between atoms: C_4  and  C_5 
REMARK    3  A    between atoms: C_5  and  C_6 
REMARK    4  A    between atoms: C_5  and  N_9 
REMARK       I    between atoms: N_9  and  C_10 
REMARK    5  A    between atoms: C_10  and  C_11 
REMARK    6  A    between atoms: C_11  and  C_12 
REMARK    7  A    between atoms: C_11  and  N_14 
REMARK    8  A    between atoms: C_12  and  Se_13 
ROOT
HETATM    1  N           1     -20.818  -6.860  -3.391  0.00  0.00    -0.344 N 
HETATM    2  C           1     -20.975  -7.188  -4.710  0.00  0.00     0.249 C 
HETATM    3  O           1     -21.670  -8.125  -5.021  0.00  0.00    -0.271 OA
HETATM    4  H           1     -20.236  -6.074  -3.130  0.00  0.00     0.163 HD
ENDROOT
BRANCH   1   5
HETATM    5  C           1     -21.489  -7.637  -2.366  0.00  0.00     0.194 C 
BRANCH   5   6
HETATM    6  C           1     -20.452  -8.374  -1.529  0.00  0.00     0.138 C 
BRANCH   6   7
HETATM    7  C           1     -20.215  -9.745  -2.114  0.00  0.00     0.217 C 
HETATM    8  O           1     -19.160 -10.305  -1.936  0.00  0.00    -0.274 OA
HETATM    9  N           1     -21.198 -10.355  -2.848  0.00  0.00    -0.370 N 
HETATM   10  H           1     -22.082  -9.887  -2.997  0.00  0.00     0.159 HD
HETATM   11  H           1     -21.039 -11.274  -3.240  0.00  0.00     0.159 HD
ENDBRANCH   6   7
ENDBRANCH   5   6
BRANCH   5  12
HETATM   12  C           1     -22.289  -6.716  -1.479  0.00  0.00     0.197 C 
HETATM   13  O           1     -22.862  -7.166  -0.464  0.00  0.00    -0.646 OA
HETATM   14  O           1     -22.380  -5.500  -1.760  0.00  0.00    -0.646 OA
ENDBRANCH   5  12
ENDBRANCH   1   5
BRANCH   2  15
HETATM   15  C           1     -20.277  -6.380  -5.776  0.00  0.00     0.274 C 
BRANCH  15  16
HETATM   16  C           1     -20.401  -4.897  -5.455  0.00  0.00     0.045 C 
BRANCH  16  17
HETATM   17 Se           1     -21.061  -3.944  -7.021  0.00  0.00     0.000 Se
HETATM   18  H           1     -22.447  -4.416  -6.869  0.00  0.00     0.000 HD
ENDBRANCH  16  17
ENDBRANCH  15  16
BRANCH  15  19
HETATM   19  N           1     -20.910  -6.656  -7.108  0.00  0.00    -0.067 N 
HETATM   20  H           1     -20.381  -7.414  -7.595  0.00  0.00     0.275 HD
HETATM   21  H           1     -21.900  -6.958  -6.967  0.00  0.00     0.275 HD
HETATM   22  H           1     -20.890  -5.788  -7.689  0.00  0.00     0.275 HD
ENDBRANCH  15  19
ENDBRANCH   2  15
TORSDOF 8
ENDMDL
