MODEL 1
REMARK VINA RESULT:      -7.7      0.000      0.000
REMARK  8 active torsions:
REMARK  status: ('A' for Active; 'I' for Inactive)
REMARK    1  A    between atoms: N_3  and  C_13 
REMARK       I    between atoms: N_3  and  C_4 
REMARK    2  A    between atoms: C_4  and  C_5 
REMARK    3  A    between atoms: C_5  and  C_7 
REMARK    4  A    between atoms: C_5  and  N_25 
REMARK    5  A    between atoms: C_7  and  C_22 
REMARK    6  A    between atoms: C_13  and  C_16 
REMARK    7  A    between atoms: C_13  and  C_21 
REMARK    8  A    between atoms: C_15  and  C_21 
ROOT
HETATM    1  N           1     -22.285  -4.835  -8.357  0.00  0.00    -0.344 N 
HETATM    2  C           1     -21.316  -4.448  -7.470  0.00  0.00     0.249 C 
HETATM    3  H           1     -22.714  -5.747  -8.272  0.00  0.00     0.163 HD
HETATM    4  O           1     -20.805  -3.358  -7.571  0.00  0.00    -0.271 OA
ENDROOT
BRANCH   1   5
HETATM    5  C           1     -22.697  -3.936  -9.418  0.00  0.00     0.191 C 
BRANCH   5   6
HETATM    6  C           1     -24.201  -3.951  -9.535  0.00  0.00     0.197 C 
HETATM    7  O           1     -24.797  -5.018  -9.795  0.00  0.00    -0.646 OA
HETATM    8  O           1     -24.851  -2.896  -9.374  0.00  0.00    -0.646 OA
ENDBRANCH   5   6
BRANCH   5   9
HETATM    9  C           1     -22.081  -4.390 -10.735  0.00  0.00     0.094 C 
BRANCH   9  10
HETATM   10  C           1     -22.771  -3.704 -11.872  0.00  0.00     0.028 A 
HETATM   11  N           1     -23.617  -4.321 -12.757  0.00  0.00    -0.354 N 
HETATM   12  C           1     -23.999  -3.377 -13.586  0.00  0.00     0.180 A 
ATOM     13  HN          1     -23.891  -5.304 -12.768  1.00  0.00     0.166 HD
HETATM   14  N           1     -23.434  -2.175 -13.271  0.00  0.00    -0.360 N 
HETATM   15  C           1     -22.642  -2.369 -12.173  0.00  0.00     0.114 A 
HETATM   16  H           1     -23.580  -1.268 -13.779  0.00  0.00     0.166 HD
ENDBRANCH   9  10
ENDBRANCH   5   9
ENDBRANCH   1   5
BRANCH   2  17
HETATM   17  C           1     -20.888  -5.383  -6.365  0.00  0.00     0.278 C 
BRANCH  17  18
HETATM   18  C           1     -22.116  -5.884  -5.619  0.00  0.00     0.081 C 
BRANCH  18  19
HETATM   19  C           1     -21.686  -6.731  -4.461  0.00  0.00    -0.056 A 
HETATM   20  C           1     -21.911  -6.292  -3.156  0.00  0.00     0.007 A 
HETATM   21  C           1     -21.511  -7.082  -2.076  0.00  0.00     0.001 A 
HETATM   22  C           1     -20.887  -8.308  -2.303  0.00  0.00     0.000 A 
HETATM   23  C           1     -20.664  -8.746  -3.608  0.00  0.00     0.001 A 
HETATM   24  C           1     -21.063  -7.958  -4.687  0.00  0.00     0.007 A 
ENDBRANCH  18  19
ENDBRANCH  17  18
BRANCH  17  25
HETATM   25  N           1     -19.988  -4.651  -5.413  0.00  0.00    -0.066 N 
HETATM   26  H           1     -19.683  -5.302  -4.654  0.00  0.00     0.275 HD
HETATM   27  H           1     -19.148  -4.300  -5.927  0.00  0.00     0.275 HD
HETATM   28  H           1     -20.503  -3.844  -4.997  0.00  0.00     0.275 HD
ENDBRANCH  17  25
ENDBRANCH   2  17
TORSDOF 8
ENDMDL
MODEL 2
REMARK VINA RESULT:      -7.6      2.588      3.971
REMARK  8 active torsions:
REMARK  status: ('A' for Active; 'I' for Inactive)
REMARK    1  A    between atoms: N_3  and  C_13 
REMARK       I    between atoms: N_3  and  C_4 
REMARK    2  A    between atoms: C_4  and  C_5 
REMARK    3  A    between atoms: C_5  and  C_7 
REMARK    4  A    between atoms: C_5  and  N_25 
REMARK    5  A    between atoms: C_7  and  C_22 
REMARK    6  A    between atoms: C_13  and  C_16 
REMARK    7  A    between atoms: C_13  and  C_21 
REMARK    8  A    between atoms: C_15  and  C_21 
ROOT
HETATM    1  N           1     -21.642  -5.746  -5.668  0.00  0.00    -0.344 N 
HETATM    2  C           1     -21.510  -7.095  -5.470  0.00  0.00     0.249 C 
HETATM    3  H           1     -21.966  -5.154  -4.914  0.00  0.00     0.163 HD
HETATM    4  O           1     -21.123  -7.802  -6.370  0.00  0.00    -0.271 OA
ENDROOT
BRANCH   1   5
HETATM    5  C           1     -21.316  -5.167  -6.957  0.00  0.00     0.191 C 
BRANCH   5   6
HETATM    6  C           1     -19.868  -4.742  -6.966  0.00  0.00     0.197 C 
HETATM    7  O           1     -19.261  -4.570  -5.888  0.00  0.00    -0.646 OA
HETATM    8  O           1     -19.277  -4.560  -8.052  0.00  0.00    -0.646 OA
ENDBRANCH   5   6
BRANCH   5   9
HETATM    9  C           1     -22.202  -3.954  -7.207  0.00  0.00     0.094 C 
BRANCH   9  10
HETATM   10  C           1     -22.964  -4.146  -8.480  0.00  0.00     0.028 A 
HETATM   11  N           1     -24.256  -3.732  -8.685  0.00  0.00    -0.354 N 
HETATM   12  C           1     -24.542  -4.090  -9.916  0.00  0.00     0.180 A 
ATOM     13  HN          1     -24.863  -3.250  -8.023  1.00  0.00     0.166 HD
HETATM   14  N           1     -23.486  -4.717 -10.514  0.00  0.00    -0.360 N 
HETATM   15  C           1     -22.466  -4.761  -9.605  0.00  0.00     0.114 A 
HETATM   16  H           1     -23.463  -5.096 -11.493  0.00  0.00     0.166 HD
ENDBRANCH   9  10
ENDBRANCH   5   9
ENDBRANCH   1   5
BRANCH   2  17
HETATM   17  C           1     -21.849  -7.698  -4.129  0.00  0.00     0.278 C 
BRANCH  17  18
HETATM   18  C           1     -20.836  -7.234  -3.093  0.00  0.00     0.081 C 
BRANCH  18  19
HETATM   19  C           1     -21.300  -7.633  -1.726  0.00  0.00    -0.056 A 
HETATM   20  C           1     -22.366  -6.962  -1.128  0.00  0.00     0.007 A 
HETATM   21  C           1     -22.799  -7.335   0.146  0.00  0.00     0.001 A 
HETATM   22  C           1     -22.166  -8.379   0.819  0.00  0.00     0.000 A 
HETATM   23  C           1     -21.101  -9.051   0.220  0.00  0.00     0.001 A 
HETATM   24  C           1     -20.668  -8.678  -1.053  0.00  0.00     0.007 A 
ENDBRANCH  18  19
ENDBRANCH  17  18
BRANCH  17  25
HETATM   25  N           1     -21.811  -9.194  -4.231  0.00  0.00    -0.066 N 
HETATM   26  H           1     -21.628  -9.602  -3.286  0.00  0.00     0.275 HD
HETATM   27  H           1     -22.729  -9.543  -4.587  0.00  0.00     0.275 HD
HETATM   28  H           1     -21.052  -9.479  -4.889  0.00  0.00     0.275 HD
ENDBRANCH  17  25
ENDBRANCH   2  17
TORSDOF 8
ENDMDL
MODEL 3
REMARK VINA RESULT:      -7.5      3.016      8.181
REMARK  8 active torsions:
REMARK  status: ('A' for Active; 'I' for Inactive)
REMARK    1  A    between atoms: N_3  and  C_13 
REMARK       I    between atoms: N_3  and  C_4 
REMARK    2  A    between atoms: C_4  and  C_5 
REMARK    3  A    between atoms: C_5  and  C_7 
REMARK    4  A    between atoms: C_5  and  N_25 
REMARK    5  A    between atoms: C_7  and  C_22 
REMARK    6  A    between atoms: C_13  and  C_16 
REMARK    7  A    between atoms: C_13  and  C_21 
REMARK    8  A    between atoms: C_15  and  C_21 
ROOT
HETATM    1  N           1     -21.025  -6.896  -6.277  0.00  0.00    -0.344 N 
HETATM    2  C           1     -21.000  -5.527  -6.241  0.00  0.00     0.249 C 
HETATM    3  H           1     -21.455  -7.373  -7.059  0.00  0.00     0.163 HD
HETATM    4  O           1     -20.487  -4.957  -5.307  0.00  0.00    -0.271 OA
ENDROOT
BRANCH   1   5
HETATM    5  C           1     -20.438  -7.660  -5.194  0.00  0.00     0.191 C 
BRANCH   5   6
HETATM    6  C           1     -19.503  -8.701  -5.762  0.00  0.00     0.197 C 
HETATM    7  O           1     -18.508  -8.348  -6.430  0.00  0.00    -0.646 OA
HETATM    8  O           1     -19.726  -9.915  -5.565  0.00  0.00    -0.646 OA
ENDBRANCH   5   6
BRANCH   5   9
HETATM    9  C           1     -21.541  -8.348  -4.402  0.00  0.00     0.094 C 
BRANCH   9  10
HETATM   10  C           1     -21.741  -7.636  -3.101  0.00  0.00     0.028 A 
HETATM   11  N           1     -22.072  -6.311  -2.981  0.00  0.00    -0.354 N 
HETATM   12  C           1     -22.149  -6.089  -1.688  0.00  0.00     0.180 A 
ATOM     13  HN          1     -22.227  -5.641  -3.734  1.00  0.00     0.166 HD
HETATM   14  N           1     -21.881  -7.219  -0.970  0.00  0.00    -0.360 N 
HETATM   15  C           1     -21.616  -8.220  -1.862  0.00  0.00     0.114 A 
HETATM   16  H           1     -21.878  -7.303   0.077  0.00  0.00     0.166 HD
ENDBRANCH   9  10
ENDBRANCH   5   9
ENDBRANCH   1   5
BRANCH   2  17
HETATM   17  C           1     -21.611  -4.730  -7.367  0.00  0.00     0.278 C 
BRANCH  17  18
HETATM   18  C           1     -20.797  -4.938  -8.637  0.00  0.00     0.081 C 
BRANCH  18  19
HETATM   19  C           1     -21.572  -4.435  -9.816  0.00  0.00    -0.056 A 
HETATM   20  C           1     -20.946  -3.635 -10.770  0.00  0.00     0.007 A 
HETATM   21  C           1     -21.667  -3.167 -11.870  0.00  0.00     0.001 A 
HETATM   22  C           1     -23.014  -3.501 -12.013  0.00  0.00     0.000 A 
HETATM   23  C           1     -23.639  -4.302 -11.058  0.00  0.00     0.001 A 
HETATM   24  C           1     -22.918  -4.770  -9.959  0.00  0.00     0.007 A 
ENDBRANCH  18  19
ENDBRANCH  17  18
BRANCH  17  25
HETATM   25  N           1     -21.612  -3.274  -7.006  0.00  0.00    -0.066 N 
HETATM   26  H           1     -22.255  -3.118  -6.197  0.00  0.00     0.275 HD
HETATM   27  H           1     -20.645  -2.979  -6.745  0.00  0.00     0.275 HD
HETATM   28  H           1     -21.937  -2.713  -7.825  0.00  0.00     0.275 HD
ENDBRANCH  17  25
ENDBRANCH   2  17
TORSDOF 8
ENDMDL
MODEL 4
REMARK VINA RESULT:      -7.4      3.316      8.469
REMARK  8 active torsions:
REMARK  status: ('A' for Active; 'I' for Inactive)
REMARK    1  A    between atoms: N_3  and  C_13 
REMARK       I    between atoms: N_3  and  C_4 
REMARK    2  A    between atoms: C_4  and  C_5 
REMARK    3  A    between atoms: C_5  and  C_7 
REMARK    4  A    between atoms: C_5  and  N_25 
REMARK    5  A    between atoms: C_7  and  C_22 
REMARK    6  A    between atoms: C_13  and  C_16 
REMARK    7  A    between atoms: C_13  and  C_21 
REMARK    8  A    between atoms: C_15  and  C_21 
ROOT
HETATM    1  N           1     -21.072  -7.349  -5.603  0.00  0.00    -0.344 N 
HETATM    2  C           1     -21.525  -6.060  -5.512  0.00  0.00     0.249 C 
HETATM    3  H           1     -21.193  -7.868  -6.464  0.00  0.00     0.163 HD
HETATM    4  O           1     -21.381  -5.441  -4.485  0.00  0.00    -0.271 OA
ENDROOT
BRANCH   1   5
HETATM    5  C           1     -20.421  -7.971  -4.467  0.00  0.00     0.191 C 
BRANCH   5   6
HETATM    6  C           1     -19.204  -8.730  -4.938  0.00  0.00     0.197 C 
HETATM    7  O           1     -18.881  -8.706  -6.144  0.00  0.00    -0.646 OA
HETATM    8  O           1     -18.521  -9.385  -4.120  0.00  0.00    -0.646 OA
ENDBRANCH   5   6
BRANCH   5   9
HETATM    9  C           1     -21.388  -8.932  -3.790  0.00  0.00     0.094 C 
BRANCH   9  10
HETATM   10  C           1     -21.724  -8.425  -2.423  0.00  0.00     0.028 A 
HETATM   11  N           1     -21.907  -7.103  -2.106  0.00  0.00    -0.354 N 
HETATM   12  C           1     -22.181  -7.090  -0.822  0.00  0.00     0.180 A 
ATOM     13  HN          1     -21.844  -6.301  -2.734  1.00  0.00     0.166 HD
HETATM   14  N           1     -22.182  -8.351  -0.297  0.00  0.00    -0.360 N 
HETATM   15  C           1     -21.890  -9.218  -1.313  0.00  0.00     0.114 A 
HETATM   16  H           1     -22.373  -8.607   0.703  0.00  0.00     0.166 HD
ENDBRANCH   9  10
ENDBRANCH   5   9
ENDBRANCH   1   5
BRANCH   2  17
HETATM   17  C           1     -22.203  -5.412  -6.694  0.00  0.00     0.278 C 
BRANCH  17  18
HETATM   18  C           1     -21.403  -4.195  -7.135  0.00  0.00     0.081 C 
BRANCH  18  19
HETATM   19  C           1     -21.360  -4.139  -8.631  0.00  0.00    -0.056 A 
HETATM   20  C           1     -20.212  -4.544  -9.311  0.00  0.00     0.007 A 
HETATM   21  C           1     -20.173  -4.493 -10.705  0.00  0.00     0.001 A 
HETATM   22  C           1     -21.282  -4.038 -11.418  0.00  0.00     0.000 A 
HETATM   23  C           1     -22.430  -3.634 -10.737  0.00  0.00     0.001 A 
HETATM   24  C           1     -22.470  -3.685  -9.344  0.00  0.00     0.007 A 
ENDBRANCH  18  19
ENDBRANCH  17  18
BRANCH  17  25
HETATM   25  N           1     -23.588  -4.986  -6.304  0.00  0.00    -0.066 N 
HETATM   26  H           1     -24.157  -4.824  -7.165  0.00  0.00     0.275 HD
HETATM   27  H           1     -24.034  -5.735  -5.728  0.00  0.00     0.275 HD
HETATM   28  H           1     -23.536  -4.104  -5.747  0.00  0.00     0.275 HD
ENDBRANCH  17  25
ENDBRANCH   2  17
TORSDOF 8
ENDMDL
MODEL 5
REMARK VINA RESULT:      -7.3      2.852      4.490
REMARK  8 active torsions:
REMARK  status: ('A' for Active; 'I' for Inactive)
REMARK    1  A    between atoms: N_3  and  C_13 
REMARK       I    between atoms: N_3  and  C_4 
REMARK    2  A    between atoms: C_4  and  C_5 
REMARK    3  A    between atoms: C_5  and  C_7 
REMARK    4  A    between atoms: C_5  and  N_25 
REMARK    5  A    between atoms: C_7  and  C_22 
REMARK    6  A    between atoms: C_13  and  C_16 
REMARK    7  A    between atoms: C_13  and  C_21 
REMARK    8  A    between atoms: C_15  and  C_21 
ROOT
HETATM    1  N           1     -23.166  -3.809 -11.905  0.00  0.00    -0.344 N 
HETATM    2  C           1     -23.872  -3.506 -10.771  0.00  0.00     0.249 C 
HETATM    3  H           1     -22.214  -4.145 -11.833  0.00  0.00     0.163 HD
HETATM    4  O           1     -25.008  -3.105 -10.857  0.00  0.00    -0.271 OA
ENDROOT
BRANCH   1   5
HETATM    5  C           1     -23.783  -3.650 -13.208  0.00  0.00     0.191 C 
BRANCH   5   6
HETATM    6  C           1     -24.215  -4.999 -13.728  0.00  0.00     0.197 C 
HETATM    7  O           1     -24.712  -5.098 -14.870  0.00  0.00    -0.646 OA
HETATM    8  O           1     -24.078  -6.017 -13.015  0.00  0.00    -0.646 OA
ENDBRANCH   5   6
BRANCH   5   9
HETATM    9  C           1     -22.779  -3.033 -14.172  0.00  0.00     0.094 C 
BRANCH   9  10
HETATM   10  C           1     -23.350  -1.777 -14.752  0.00  0.00     0.028 A 
HETATM   11  N           1     -22.800  -1.082 -15.798  0.00  0.00    -0.354 N 
HETATM   12  C           1     -23.599  -0.057 -15.990  0.00  0.00     0.180 A 
ATOM     13  HN          1     -21.952  -1.312 -16.317  1.00  0.00     0.166 HD
HETATM   14  N           1     -24.643  -0.064 -15.110  0.00  0.00    -0.360 N 
HETATM   15  C           1     -24.496  -1.162 -14.308  0.00  0.00     0.114 A 
HETATM   16  H           1     -25.416   0.645 -15.058  0.00  0.00     0.166 HD
ENDBRANCH   9  10
ENDBRANCH   5   9
ENDBRANCH   1   5
BRANCH   2  17
HETATM   17  C           1     -23.231  -3.671  -9.416  0.00  0.00     0.278 C 
BRANCH  17  18
HETATM   18  C           1     -22.389  -4.939  -9.403  0.00  0.00     0.081 C 
BRANCH  18  19
HETATM   19  C           1     -21.349  -4.838  -8.330  0.00  0.00    -0.056 A 
HETATM   20  C           1     -21.657  -5.214  -7.023  0.00  0.00     0.007 A 
HETATM   21  C           1     -20.688  -5.120  -6.023  0.00  0.00     0.001 A 
HETATM   22  C           1     -19.411  -4.651  -6.332  0.00  0.00     0.000 A 
HETATM   23  C           1     -19.103  -4.277  -7.639  0.00  0.00     0.001 A 
HETATM   24  C           1     -20.071  -4.370  -8.639  0.00  0.00     0.007 A 
ENDBRANCH  18  19
ENDBRANCH  17  18
BRANCH  17  25
HETATM   25  N           1     -24.299  -3.770  -8.367  0.00  0.00    -0.066 N 
HETATM   26  H           1     -24.495  -2.819  -7.980  0.00  0.00     0.275 HD
HETATM   27  H           1     -25.170  -4.158  -8.792  0.00  0.00     0.275 HD
HETATM   28  H           1     -23.976  -4.400  -7.600  0.00  0.00     0.275 HD
ENDBRANCH  17  25
ENDBRANCH   2  17
TORSDOF 8
ENDMDL
MODEL 6
REMARK VINA RESULT:      -6.9      3.574      8.205
REMARK  8 active torsions:
REMARK  status: ('A' for Active; 'I' for Inactive)
REMARK    1  A    between atoms: N_3  and  C_13 
REMARK       I    between atoms: N_3  and  C_4 
REMARK    2  A    between atoms: C_4  and  C_5 
REMARK    3  A    between atoms: C_5  and  C_7 
REMARK    4  A    between atoms: C_5  and  N_25 
REMARK    5  A    between atoms: C_7  and  C_22 
REMARK    6  A    between atoms: C_13  and  C_16 
REMARK    7  A    between atoms: C_13  and  C_21 
REMARK    8  A    between atoms: C_15  and  C_21 
ROOT
HETATM    1  N           1     -21.118  -6.391  -4.192  0.00  0.00    -0.344 N 
HETATM    2  C           1     -21.124  -6.462  -5.560  0.00  0.00     0.249 C 
HETATM    3  H           1     -20.897  -5.517  -3.732  0.00  0.00     0.163 HD
HETATM    4  O           1     -21.387  -7.505  -6.109  0.00  0.00    -0.271 OA
ENDROOT
BRANCH   1   5
HETATM    5  C           1     -21.429  -7.567  -3.404  0.00  0.00     0.191 C 
BRANCH   5   6
HETATM    6  C           1     -22.013  -7.145  -2.078  0.00  0.00     0.197 C 
HETATM    7  O           1     -21.963  -7.919  -1.099  0.00  0.00    -0.646 OA
HETATM    8  O           1     -22.549  -6.022  -1.961  0.00  0.00    -0.646 OA
ENDBRANCH   5   6
BRANCH   5   9
HETATM    9  C           1     -20.156  -8.368  -3.164  0.00  0.00     0.094 C 
BRANCH   9  10
HETATM   10  C           1     -20.331  -9.756  -3.696  0.00  0.00     0.028 A 
HETATM   11  N           1     -20.216 -10.104  -5.018  0.00  0.00    -0.354 N 
HETATM   12  C           1     -20.442 -11.398  -5.056  0.00  0.00     0.180 A 
ATOM     13  HN          1     -20.001  -9.490  -5.803  1.00  0.00     0.166 HD
HETATM   14  N           1     -20.697 -11.898  -3.811  0.00  0.00    -0.360 N 
HETATM   15  C           1     -20.630 -10.856  -2.928  0.00  0.00     0.114 A 
HETATM   16  H           1     -20.906 -12.900  -3.575  0.00  0.00     0.166 HD
ENDBRANCH   9  10
ENDBRANCH   5   9
ENDBRANCH   1   5
BRANCH   2  17
HETATM   17  C           1     -20.801  -5.237  -6.381  0.00  0.00     0.278 C 
BRANCH  17  18
HETATM   18  C           1     -20.168  -5.662  -7.698  0.00  0.00     0.081 C 
BRANCH  18  19
HETATM   19  C           1     -20.784  -4.886  -8.822  0.00  0.00    -0.056 A 
HETATM   20  C           1     -22.086  -4.401  -8.701  0.00  0.00     0.007 A 
HETATM   21  C           1     -22.660  -3.677  -9.748  0.00  0.00     0.001 A 
HETATM   22  C           1     -21.931  -3.440 -10.913  0.00  0.00     0.000 A 
HETATM   23  C           1     -20.630  -3.925 -11.032  0.00  0.00     0.001 A 
HETATM   24  C           1     -20.055  -4.648  -9.987  0.00  0.00     0.007 A 
ENDBRANCH  18  19
ENDBRANCH  17  18
BRANCH  17  25
HETATM   25  N           1     -19.842  -4.367  -5.623  0.00  0.00    -0.066 N 
HETATM   26  H           1     -20.116  -4.344  -4.615  0.00  0.00     0.275 HD
HETATM   27  H           1     -18.876  -4.752  -5.712  0.00  0.00     0.275 HD
HETATM   28  H           1     -19.868  -3.399  -6.014  0.00  0.00     0.275 HD
ENDBRANCH  17  25
ENDBRANCH   2  17
TORSDOF 8
ENDMDL
MODEL 7
REMARK VINA RESULT:      -6.9      4.520      8.538
REMARK  8 active torsions:
REMARK  status: ('A' for Active; 'I' for Inactive)
REMARK    1  A    between atoms: N_3  and  C_13 
REMARK       I    between atoms: N_3  and  C_4 
REMARK    2  A    between atoms: C_4  and  C_5 
REMARK    3  A    between atoms: C_5  and  C_7 
REMARK    4  A    between atoms: C_5  and  N_25 
REMARK    5  A    between atoms: C_7  and  C_22 
REMARK    6  A    between atoms: C_13  and  C_16 
REMARK    7  A    between atoms: C_13  and  C_21 
REMARK    8  A    between atoms: C_15  and  C_21 
ROOT
HETATM    1  N           1     -20.658  -8.334  -3.557  0.00  0.00    -0.344 N 
HETATM    2  C           1     -20.802  -7.704  -4.765  0.00  0.00     0.249 C 
HETATM    3  H           1     -21.054  -7.923  -2.722  0.00  0.00     0.163 HD
HETATM    4  O           1     -20.330  -8.194  -5.762  0.00  0.00    -0.271 OA
ENDROOT
BRANCH   1   5
HETATM    5  C           1     -19.937  -9.590  -3.477  0.00  0.00     0.191 C 
BRANCH   5   6
HETATM    6  C           1     -20.693 -10.547  -2.588  0.00  0.00     0.197 C 
HETATM    7  O           1     -21.940 -10.592  -2.637  0.00  0.00    -0.646 OA
HETATM    8  O           1     -20.070 -11.294  -1.803  0.00  0.00    -0.646 OA
ENDBRANCH   5   6
BRANCH   5   9
HETATM    9  C           1     -18.552  -9.344  -2.894  0.00  0.00     0.094 C 
BRANCH   9  10
HETATM   10  C           1     -17.515  -9.608  -3.941  0.00  0.00     0.028 A 
HETATM   11  N           1     -17.777  -9.741  -5.281  0.00  0.00    -0.354 N 
HETATM   12  C           1     -16.610  -9.962  -5.841  0.00  0.00     0.180 A 
ATOM     13  HN          1     -18.684  -9.681  -5.743  1.00  0.00     0.166 HD
HETATM   14  N           1     -15.605  -9.975  -4.916  0.00  0.00    -0.360 N 
HETATM   15  C           1     -16.171  -9.750  -3.692  0.00  0.00     0.114 A 
HETATM   16  H           1     -14.585 -10.131  -5.110  0.00  0.00     0.166 HD
ENDBRANCH   9  10
ENDBRANCH   5   9
ENDBRANCH   1   5
BRANCH   2  17
HETATM   17  C           1     -21.552  -6.397  -4.849  0.00  0.00     0.278 C 
BRANCH  17  18
HETATM   18  C           1     -20.589  -5.282  -5.232  0.00  0.00     0.081 C 
BRANCH  18  19
HETATM   19  C           1     -20.817  -4.894  -6.660  0.00  0.00    -0.056 A 
HETATM   20  C           1     -19.752  -4.894  -7.561  0.00  0.00     0.007 A 
HETATM   21  C           1     -19.964  -4.533  -8.892  0.00  0.00     0.001 A 
HETATM   22  C           1     -21.242  -4.171  -9.321  0.00  0.00     0.000 A 
HETATM   23  C           1     -22.306  -4.172  -8.421  0.00  0.00     0.001 A 
HETATM   24  C           1     -22.094  -4.533  -7.090  0.00  0.00     0.007 A 
ENDBRANCH  18  19
ENDBRANCH  17  18
BRANCH  17  25
HETATM   25  N           1     -22.170  -6.089  -3.517  0.00  0.00    -0.066 N 
HETATM   26  H           1     -22.000  -6.885  -2.863  0.00  0.00     0.275 HD
HETATM   27  H           1     -21.740  -5.220  -3.126  0.00  0.00     0.275 HD
HETATM   28  H           1     -23.197  -5.945  -3.635  0.00  0.00     0.275 HD
ENDBRANCH  17  25
ENDBRANCH   2  17
TORSDOF 8
ENDMDL
MODEL 8
REMARK VINA RESULT:      -6.7      3.874      8.520
REMARK  8 active torsions:
REMARK  status: ('A' for Active; 'I' for Inactive)
REMARK    1  A    between atoms: N_3  and  C_13 
REMARK       I    between atoms: N_3  and  C_4 
REMARK    2  A    between atoms: C_4  and  C_5 
REMARK    3  A    between atoms: C_5  and  C_7 
REMARK    4  A    between atoms: C_5  and  N_25 
REMARK    5  A    between atoms: C_7  and  C_22 
REMARK    6  A    between atoms: C_13  and  C_16 
REMARK    7  A    between atoms: C_13  and  C_21 
REMARK    8  A    between atoms: C_15  and  C_21 
ROOT
HETATM    1  N           1     -21.186  -8.164  -4.583  0.00  0.00    -0.344 N 
HETATM    2  C           1     -20.733  -7.365  -5.599  0.00  0.00     0.249 C 
HETATM    3  H           1     -22.123  -8.041  -4.222  0.00  0.00     0.163 HD
HETATM    4  O           1     -19.615  -7.512  -6.031  0.00  0.00    -0.271 OA
ENDROOT
BRANCH   1   5
HETATM    5  C           1     -20.323  -9.187  -4.026  0.00  0.00     0.191 C 
BRANCH   5   6
HETATM    6  C           1     -21.124 -10.441  -3.776  0.00  0.00     0.197 C 
HETATM    7  O           1     -22.366 -10.425  -3.908  0.00  0.00    -0.646 OA
HETATM    8  O           1     -20.545 -11.495  -3.435  0.00  0.00    -0.646 OA
ENDBRANCH   5   6
BRANCH   5   9
HETATM    9  C           1     -19.732  -8.693  -2.713  0.00  0.00     0.094 C 
BRANCH   9  10
HETATM   10  C           1     -20.819  -8.120  -1.859  0.00  0.00     0.028 A 
HETATM   11  N           1     -21.371  -6.876  -2.031  0.00  0.00    -0.354 N 
HETATM   12  C           1     -22.276  -6.766  -1.086  0.00  0.00     0.180 A 
ATOM     13  HN          1     -21.129  -6.184  -2.741  1.00  0.00     0.166 HD
HETATM   14  N           1     -22.332  -7.890  -0.312  0.00  0.00    -0.360 N 
HETATM   15  C           1     -21.402  -8.768  -0.796  0.00  0.00     0.114 A 
HETATM   16  H           1     -22.971  -8.050   0.505  0.00  0.00     0.166 HD
ENDBRANCH   9  10
ENDBRANCH   5   9
ENDBRANCH   1   5
BRANCH   2  17
HETATM   17  C           1     -21.631  -6.300  -6.179  0.00  0.00     0.278 C 
BRANCH  17  18
HETATM   18  C           1     -20.808  -5.061  -6.502  0.00  0.00     0.081 C 
BRANCH  18  19
HETATM   19  C           1     -21.064  -4.646  -7.918  0.00  0.00    -0.056 A 
HETATM   20  C           1     -22.297  -4.100  -8.272  0.00  0.00     0.007 A 
HETATM   21  C           1     -22.536  -3.712  -9.591  0.00  0.00     0.001 A 
HETATM   22  C           1     -21.539  -3.870 -10.555  0.00  0.00     0.000 A 
HETATM   23  C           1     -20.306  -4.414 -10.200  0.00  0.00     0.001 A 
HETATM   24  C           1     -20.067  -4.802  -8.881  0.00  0.00     0.007 A 
ENDBRANCH  18  19
ENDBRANCH  17  18
BRANCH  17  25
HETATM   25  N           1     -22.696  -5.947  -5.182  0.00  0.00    -0.066 N 
HETATM   26  H           1     -23.627  -6.253  -5.546  0.00  0.00     0.275 HD
HETATM   27  H           1     -22.500  -6.431  -4.277  0.00  0.00     0.275 HD
HETATM   28  H           1     -22.701  -4.914  -5.031  0.00  0.00     0.275 HD
ENDBRANCH  17  25
ENDBRANCH   2  17
TORSDOF 8
ENDMDL
MODEL 9
REMARK VINA RESULT:      -6.7      4.598      8.276
REMARK  8 active torsions:
REMARK  status: ('A' for Active; 'I' for Inactive)
REMARK    1  A    between atoms: N_3  and  C_13 
REMARK       I    between atoms: N_3  and  C_4 
REMARK    2  A    between atoms: C_4  and  C_5 
REMARK    3  A    between atoms: C_5  and  C_7 
REMARK    4  A    between atoms: C_5  and  N_25 
REMARK    5  A    between atoms: C_7  and  C_22 
REMARK    6  A    between atoms: C_13  and  C_16 
REMARK    7  A    between atoms: C_13  and  C_21 
REMARK    8  A    between atoms: C_15  and  C_21 
ROOT
HETATM    1  N           1     -19.642  -8.068  -4.943  0.00  0.00    -0.344 N 
HETATM    2  C           1     -21.003  -7.947  -4.853  0.00  0.00     0.249 C 
HETATM    3  H           1     -19.074  -7.254  -5.143  0.00  0.00     0.163 HD
HETATM    4  O           1     -21.680  -8.918  -4.614  0.00  0.00    -0.271 OA
ENDROOT
BRANCH   1   5
HETATM    5  C           1     -19.014  -9.361  -4.753  0.00  0.00     0.191 C 
BRANCH   5   6
HETATM    6  C           1     -18.412  -9.430  -3.371  0.00  0.00     0.197 C 
HETATM    7  O           1     -17.173  -9.366  -3.225  0.00  0.00    -0.646 OA
HETATM    8  O           1     -19.154  -9.552  -2.372  0.00  0.00    -0.646 OA
ENDBRANCH   5   6
BRANCH   5   9
HETATM    9  C           1     -17.919  -9.552  -5.793  0.00  0.00     0.094 C 
BRANCH   9  10
HETATM   10  C           1     -18.011 -10.929  -6.370  0.00  0.00     0.028 A 
HETATM   11  N           1     -19.065 -11.392  -7.116  0.00  0.00    -0.354 N 
HETATM   12  C           1     -18.755 -12.631  -7.422  0.00  0.00     0.180 A 
ATOM     13  HN          1     -19.909 -10.882  -7.378  1.00  0.00     0.166 HD
HETATM   14  N           1     -17.542 -12.986  -6.903  0.00  0.00    -0.360 N 
HETATM   15  C           1     -17.053 -11.904  -6.225  0.00  0.00     0.114 A 
HETATM   16  H           1     -17.072 -13.920  -7.006  0.00  0.00     0.166 HD
ENDBRANCH   9  10
ENDBRANCH   5   9
ENDBRANCH   1   5
BRANCH   2  17
HETATM   17  C           1     -21.656  -6.601  -5.051  0.00  0.00     0.278 C 
BRANCH  17  18
HETATM   18  C           1     -20.600  -5.576  -5.438  0.00  0.00     0.081 C 
BRANCH  18  19
HETATM   19  C           1     -20.874  -5.073  -6.822  0.00  0.00    -0.056 A 
HETATM   20  C           1     -22.135  -4.571  -7.143  0.00  0.00     0.007 A 
HETATM   21  C           1     -22.390  -4.102  -8.433  0.00  0.00     0.001 A 
HETATM   22  C           1     -21.384  -4.135  -9.399  0.00  0.00     0.000 A 
HETATM   23  C           1     -20.124  -4.637  -9.076  0.00  0.00     0.001 A 
HETATM   24  C           1     -19.868  -5.106  -7.787  0.00  0.00     0.007 A 
ENDBRANCH  18  19
ENDBRANCH  17  18
BRANCH  17  25
HETATM   25  N           1     -22.322  -6.177  -3.775  0.00  0.00    -0.066 N 
HETATM   26  H           1     -22.422  -7.003  -3.144  0.00  0.00     0.275 HD
HETATM   27  H           1     -21.741  -5.448  -3.305  0.00  0.00     0.275 HD
HETATM   28  H           1     -23.266  -5.784  -3.990  0.00  0.00     0.275 HD
ENDBRANCH  17  25
ENDBRANCH   2  17
TORSDOF 8
ENDMDL
