MODEL 1
REMARK VINA RESULT:      -6.0      0.000      0.000
REMARK  9 active torsions:
REMARK  status: ('A' for Active; 'I' for Inactive)
REMARK    1  A    between atoms: N_1  and  C_12 
REMARK       I    between atoms: N_1  and  C_2 
REMARK    2  A    between atoms: C_2  and  C_3 
REMARK    3  A    between atoms: C_3  and  C_4 
REMARK    4  A    between atoms: C_3  and  N_13 
REMARK    5  A    between atoms: C_4  and  C_16 
REMARK    6  A    between atoms: C_5  and  C_12 
REMARK    7  A    between atoms: S_7  and  C_19 
REMARK    8  A    between atoms: C_12  and  C_14 
REMARK    9  A    between atoms: C_14  and  C_19 
ROOT
HETATM    1  N           1     -35.415  -1.149 -12.137  0.00  0.00    -0.345 N 
HETATM    2  C           1     -34.648  -2.235 -12.464  0.00  0.00     0.249 C 
HETATM    3  O           1     -34.739  -2.730 -13.562  0.00  0.00    -0.271 OA
HETATM    4  H           1     -35.338  -0.734 -11.217  0.00  0.00     0.163 HD
ENDROOT
BRANCH   2   5
HETATM    5  C           1     -33.689  -2.813 -11.452  0.00  0.00     0.275 C 
BRANCH   5   6
HETATM    6  C           1     -34.366  -3.953 -10.704  0.00  0.00     0.046 C 
BRANCH   6   7
HETATM    7  C           1     -33.986  -5.281 -11.348  0.00  0.00    -0.020 C 
HETATM    8  C           1     -32.505  -5.268 -11.703  0.00  0.00     0.009 C 
HETATM    9  C           1     -34.262  -6.415 -10.370  0.00  0.00     0.009 C 
ENDBRANCH   6   7
ENDBRANCH   5   6
BRANCH   5  10
HETATM   10  N           1     -33.287  -1.745 -10.479  0.00  0.00    -0.066 N 
HETATM   11  H           1     -32.250  -1.764 -10.349  0.00  0.00     0.275 HD
HETATM   12  H           1     -33.573  -0.811 -10.850  0.00  0.00     0.275 HD
HETATM   13  H           1     -33.756  -1.915  -9.562  0.00  0.00     0.275 HD
ENDBRANCH   5  10
ENDBRANCH   2   5
BRANCH   1  14
HETATM   14  C           1     -36.337  -0.592 -13.108  0.00  0.00     0.186 C 
BRANCH  14  15
HETATM   15  C           1     -35.650   0.509 -13.879  0.00  0.00     0.196 C 
HETATM   16  O           1     -34.698   1.133 -13.362  0.00  0.00    -0.646 OA
HETATM   17  O           1     -36.032   0.795 -15.033  0.00  0.00    -0.646 OA
ENDBRANCH  14  15
BRANCH  14  18
HETATM   18  C           1     -37.553  -0.026 -12.387  0.00  0.00     0.046 C 
BRANCH  18  19
HETATM   19  C           1     -37.596  -0.567 -10.964  0.00  0.00     0.076 C 
BRANCH  19  20
HETATM   20  S           1     -37.442   0.808  -9.789  0.00  0.00    -0.173 SA
HETATM   21  C           1     -37.360  -0.217  -8.293  0.00  0.00     0.089 C 
ENDBRANCH  19  20
ENDBRANCH  18  19
ENDBRANCH  14  18
ENDBRANCH   1  14
TORSDOF 9
ENDMDL
MODEL 2
REMARK VINA RESULT:      -5.8      2.495      3.507
REMARK  9 active torsions:
REMARK  status: ('A' for Active; 'I' for Inactive)
REMARK    1  A    between atoms: N_1  and  C_12 
REMARK       I    between atoms: N_1  and  C_2 
REMARK    2  A    between atoms: C_2  and  C_3 
REMARK    3  A    between atoms: C_3  and  C_4 
REMARK    4  A    between atoms: C_3  and  N_13 
REMARK    5  A    between atoms: C_4  and  C_16 
REMARK    6  A    between atoms: C_5  and  C_12 
REMARK    7  A    between atoms: S_7  and  C_19 
REMARK    8  A    between atoms: C_12  and  C_14 
REMARK    9  A    between atoms: C_14  and  C_19 
ROOT
HETATM    1  N           1     -35.007  -1.588 -12.794  0.00  0.00    -0.345 N 
HETATM    2  C           1     -34.213  -2.459 -12.098  0.00  0.00     0.249 C 
HETATM    3  O           1     -33.534  -2.057 -11.183  0.00  0.00    -0.271 OA
HETATM    4  H           1     -35.576  -1.925 -13.560  0.00  0.00     0.163 HD
ENDROOT
BRANCH   2   5
HETATM    5  C           1     -34.186  -3.921 -12.473  0.00  0.00     0.275 C 
BRANCH   5   6
HETATM    6  C           1     -33.312  -4.683 -11.485  0.00  0.00     0.046 C 
BRANCH   6   7
HETATM    7  C           1     -34.195  -5.357 -10.442  0.00  0.00    -0.020 C 
HETATM    8  C           1     -35.635  -4.891 -10.616  0.00  0.00     0.009 C 
HETATM    9  C           1     -34.126  -6.868 -10.620  0.00  0.00     0.009 C 
ENDBRANCH   6   7
ENDBRANCH   5   6
BRANCH   5  10
HETATM   10  N           1     -33.624  -4.071 -13.855  0.00  0.00    -0.066 N 
HETATM   11  H           1     -34.175  -4.787 -14.380  0.00  0.00     0.275 HD
HETATM   12  H           1     -33.679  -3.155 -14.355  0.00  0.00     0.275 HD
HETATM   13  H           1     -32.627  -4.375 -13.794  0.00  0.00     0.275 HD
ENDBRANCH   5  10
ENDBRANCH   2   5
BRANCH   1  14
HETATM   14  C           1     -35.034  -0.184 -12.434  0.00  0.00     0.186 C 
BRANCH  14  15
HETATM   15  C           1     -36.297   0.112 -11.662  0.00  0.00     0.196 C 
HETATM   16  O           1     -37.413  -0.084 -12.190  0.00  0.00    -0.646 OA
HETATM   17  O           1     -36.227   0.552 -10.495  0.00  0.00    -0.646 OA
ENDBRANCH  14  15
BRANCH  14  18
HETATM   18  C           1     -35.001   0.664 -13.698  0.00  0.00     0.046 C 
BRANCH  18  19
HETATM   19  C           1     -35.464  -0.172 -14.884  0.00  0.00     0.076 C 
BRANCH  19  20
HETATM   20  S           1     -36.751   0.728 -15.794  0.00  0.00    -0.173 SA
HETATM   21  C           1     -37.784  -0.719 -16.160  0.00  0.00     0.089 C 
ENDBRANCH  19  20
ENDBRANCH  18  19
ENDBRANCH  14  18
ENDBRANCH   1  14
TORSDOF 9
ENDMDL
MODEL 3
REMARK VINA RESULT:      -5.6      3.065      5.913
REMARK  9 active torsions:
REMARK  status: ('A' for Active; 'I' for Inactive)
REMARK    1  A    between atoms: N_1  and  C_12 
REMARK       I    between atoms: N_1  and  C_2 
REMARK    2  A    between atoms: C_2  and  C_3 
REMARK    3  A    between atoms: C_3  and  C_4 
REMARK    4  A    between atoms: C_3  and  N_13 
REMARK    5  A    between atoms: C_4  and  C_16 
REMARK    6  A    between atoms: C_5  and  C_12 
REMARK    7  A    between atoms: S_7  and  C_19 
REMARK    8  A    between atoms: C_12  and  C_14 
REMARK    9  A    between atoms: C_14  and  C_19 
ROOT
HETATM    1  N           1     -35.097  -2.674 -11.779  0.00  0.00    -0.345 N 
HETATM    2  C           1     -35.190  -1.525 -11.040  0.00  0.00     0.249 C 
HETATM    3  O           1     -34.541  -1.404 -10.029  0.00  0.00    -0.271 OA
HETATM    4  H           1     -35.640  -2.775 -12.627  0.00  0.00     0.163 HD
ENDROOT
BRANCH   2   5
HETATM    5  C           1     -36.101  -0.409 -11.490  0.00  0.00     0.275 C 
BRANCH   5   6
HETATM    6  C           1     -35.384   0.446 -12.527  0.00  0.00     0.046 C 
BRANCH   6   7
HETATM    7  C           1     -35.814   0.017 -13.925  0.00  0.00    -0.020 C 
HETATM    8  C           1     -37.333  -0.069 -13.985  0.00  0.00     0.009 C 
HETATM    9  C           1     -35.324   1.040 -14.940  0.00  0.00     0.009 C 
ENDBRANCH   6   7
ENDBRANCH   5   6
BRANCH   5  10
HETATM   10  N           1     -36.471   0.440 -10.311  0.00  0.00    -0.066 N 
HETATM   11  H           1     -35.620   0.619  -9.731  0.00  0.00     0.275 HD
HETATM   12  H           1     -36.861   1.349 -10.646  0.00  0.00     0.275 HD
HETATM   13  H           1     -37.187  -0.056  -9.735  0.00  0.00     0.275 HD
ENDBRANCH   5  10
ENDBRANCH   2   5
BRANCH   1  14
HETATM   14  C           1     -34.221  -3.746 -11.348  0.00  0.00     0.186 C 
BRANCH  14  15
HETATM   15  C           1     -33.238  -4.064 -12.448  0.00  0.00     0.196 C 
HETATM   16  O           1     -32.074  -4.418 -12.162  0.00  0.00    -0.646 OA
HETATM   17  O           1     -33.589  -3.976 -13.644  0.00  0.00    -0.646 OA
ENDBRANCH  14  15
BRANCH  14  18
HETATM   18  C           1     -35.051  -4.983 -11.033  0.00  0.00     0.046 C 
BRANCH  18  19
HETATM   19  C           1     -34.124  -6.157 -10.747  0.00  0.00     0.076 C 
BRANCH  19  20
HETATM   20  S           1     -35.004  -7.397  -9.756  0.00  0.00    -0.173 SA
HETATM   21  C           1     -33.776  -8.719  -9.955  0.00  0.00     0.089 C 
ENDBRANCH  19  20
ENDBRANCH  18  19
ENDBRANCH  14  18
ENDBRANCH   1  14
TORSDOF 9
ENDMDL
MODEL 4
REMARK VINA RESULT:      -5.2     14.597     16.580
REMARK  9 active torsions:
REMARK  status: ('A' for Active; 'I' for Inactive)
REMARK    1  A    between atoms: N_1  and  C_12 
REMARK       I    between atoms: N_1  and  C_2 
REMARK    2  A    between atoms: C_2  and  C_3 
REMARK    3  A    between atoms: C_3  and  C_4 
REMARK    4  A    between atoms: C_3  and  N_13 
REMARK    5  A    between atoms: C_4  and  C_16 
REMARK    6  A    between atoms: C_5  and  C_12 
REMARK    7  A    between atoms: S_7  and  C_19 
REMARK    8  A    between atoms: C_12  and  C_14 
REMARK    9  A    between atoms: C_14  and  C_19 
ROOT
HETATM    1  N           1     -21.017  -5.367  -5.028  0.00  0.00    -0.345 N 
HETATM    2  C           1     -21.324  -6.435  -4.227  0.00  0.00     0.249 C 
HETATM    3  O           1     -21.665  -7.482  -4.721  0.00  0.00    -0.271 OA
HETATM    4  H           1     -20.730  -4.490  -4.614  0.00  0.00     0.163 HD
ENDROOT
BRANCH   2   5
HETATM    5  C           1     -21.235  -6.301  -2.726  0.00  0.00     0.275 C 
BRANCH   5   6
HETATM    6  C           1     -20.749  -7.615  -2.128  0.00  0.00     0.046 C 
BRANCH   6   7
HETATM    7  C           1     -21.849  -8.217  -1.262  0.00  0.00    -0.020 C 
HETATM    8  C           1     -22.144  -9.637  -1.730  0.00  0.00     0.009 C 
HETATM    9  C           1     -21.392  -8.247   0.190  0.00  0.00     0.009 C 
ENDBRANCH   6   7
ENDBRANCH   5   6
BRANCH   5  10
HETATM   10  N           1     -22.590  -5.972  -2.174  0.00  0.00    -0.066 N 
HETATM   11  H           1     -22.691  -4.935  -2.094  0.00  0.00     0.275 HD
HETATM   12  H           1     -23.327  -6.345  -2.814  0.00  0.00     0.275 HD
HETATM   13  H           1     -22.696  -6.406  -1.230  0.00  0.00     0.275 HD
ENDBRANCH   5  10
ENDBRANCH   2   5
BRANCH   1  14
HETATM   14  C           1     -21.101  -5.494  -6.470  0.00  0.00     0.186 C 
BRANCH  14  15
HETATM   15  C           1     -19.726  -5.762  -7.032  0.00  0.00     0.196 C 
HETATM   16  O           1     -19.274  -6.928  -7.050  0.00  0.00    -0.646 OA
HETATM   17  O           1     -19.040  -4.820  -7.479  0.00  0.00    -0.646 OA
ENDBRANCH  14  15
BRANCH  14  18
HETATM   18  C           1     -21.649  -4.203  -7.062  0.00  0.00     0.046 C 
BRANCH  18  19
HETATM   19  C           1     -23.124  -4.384  -7.396  0.00  0.00     0.076 C 
BRANCH  19  20
HETATM   20  S           1     -23.354  -4.287  -9.194  0.00  0.00    -0.173 SA
HETATM   21  C           1     -21.652  -3.793  -9.586  0.00  0.00     0.089 C 
ENDBRANCH  19  20
ENDBRANCH  18  19
ENDBRANCH  14  18
ENDBRANCH   1  14
TORSDOF 9
ENDMDL
MODEL 5
REMARK VINA RESULT:      -5.2      2.926      5.126
REMARK  9 active torsions:
REMARK  status: ('A' for Active; 'I' for Inactive)
REMARK    1  A    between atoms: N_1  and  C_12 
REMARK       I    between atoms: N_1  and  C_2 
REMARK    2  A    between atoms: C_2  and  C_3 
REMARK    3  A    between atoms: C_3  and  C_4 
REMARK    4  A    between atoms: C_3  and  N_13 
REMARK    5  A    between atoms: C_4  and  C_16 
REMARK    6  A    between atoms: C_5  and  C_12 
REMARK    7  A    between atoms: S_7  and  C_19 
REMARK    8  A    between atoms: C_12  and  C_14 
REMARK    9  A    between atoms: C_14  and  C_19 
ROOT
HETATM    1  N           1     -36.237  -0.236 -11.930  0.00  0.00    -0.345 N 
HETATM    2  C           1     -36.882  -0.066 -13.126  0.00  0.00     0.249 C 
HETATM    3  O           1     -38.070  -0.266 -13.204  0.00  0.00    -0.271 OA
HETATM    4  H           1     -35.241  -0.068 -11.864  0.00  0.00     0.163 HD
ENDROOT
BRANCH   2   5
HETATM    5  C           1     -36.108   0.371 -14.345  0.00  0.00     0.275 C 
BRANCH   5   6
HETATM    6  C           1     -35.316  -0.808 -14.894  0.00  0.00     0.046 C 
BRANCH   6   7
HETATM    7  C           1     -35.527  -0.906 -16.399  0.00  0.00    -0.020 C 
HETATM    8  C           1     -34.934  -2.213 -16.912  0.00  0.00     0.009 C 
HETATM    9  C           1     -37.018  -0.873 -16.705  0.00  0.00     0.009 C 
ENDBRANCH   6   7
ENDBRANCH   5   6
BRANCH   5  10
HETATM   10  N           1     -35.165   1.475 -13.968  0.00  0.00    -0.066 N 
HETATM   11  H           1     -35.688   2.379 -13.919  0.00  0.00     0.275 HD
HETATM   12  H           1     -34.741   1.267 -13.036  0.00  0.00     0.275 HD
HETATM   13  H           1     -34.410   1.548 -14.686  0.00  0.00     0.275 HD
ENDBRANCH   5  10
ENDBRANCH   2   5
BRANCH   1  14
HETATM   14  C           1     -36.979  -0.655 -10.758  0.00  0.00     0.186 C 
BRANCH  14  15
HETATM   15  C           1     -37.124   0.511  -9.810  0.00  0.00     0.196 C 
HETATM   16  O           1     -38.047   1.338  -9.974  0.00  0.00    -0.646 OA
HETATM   17  O           1     -36.322   0.649  -8.863  0.00  0.00    -0.646 OA
ENDBRANCH  14  15
BRANCH  14  18
HETATM   18  C           1     -36.233  -1.786 -10.062  0.00  0.00     0.046 C 
BRANCH  18  19
HETATM   19  C           1     -35.558  -2.666 -11.105  0.00  0.00     0.076 C 
BRANCH  19  20
HETATM   20  S           1     -33.777  -2.749 -10.766  0.00  0.00    -0.173 SA
HETATM   21  C           1     -33.628  -4.551 -10.929  0.00  0.00     0.089 C 
ENDBRANCH  19  20
ENDBRANCH  18  19
ENDBRANCH  14  18
ENDBRANCH   1  14
TORSDOF 9
ENDMDL
MODEL 6
REMARK VINA RESULT:      -5.2     13.482     15.586
REMARK  9 active torsions:
REMARK  status: ('A' for Active; 'I' for Inactive)
REMARK    1  A    between atoms: N_1  and  C_12 
REMARK       I    between atoms: N_1  and  C_2 
REMARK    2  A    between atoms: C_2  and  C_3 
REMARK    3  A    between atoms: C_3  and  C_4 
REMARK    4  A    between atoms: C_3  and  N_13 
REMARK    5  A    between atoms: C_4  and  C_16 
REMARK    6  A    between atoms: C_5  and  C_12 
REMARK    7  A    between atoms: S_7  and  C_19 
REMARK    8  A    between atoms: C_12  and  C_14 
REMARK    9  A    between atoms: C_14  and  C_19 
ROOT
HETATM    1  N           1     -21.362  -4.913  -6.711  0.00  0.00    -0.345 N 
HETATM    2  C           1     -21.198  -6.141  -6.127  0.00  0.00     0.249 C 
HETATM    3  O           1     -21.168  -7.135  -6.812  0.00  0.00    -0.271 OA
HETATM    4  H           1     -21.386  -4.080  -6.137  0.00  0.00     0.163 HD
ENDROOT
BRANCH   2   5
HETATM    5  C           1     -21.056  -6.251  -4.629  0.00  0.00     0.275 C 
BRANCH   5   6
HETATM    6  C           1     -20.438  -7.598  -4.275  0.00  0.00     0.046 C 
BRANCH   6   7
HETATM    7  C           1     -21.289  -8.285  -3.214  0.00  0.00    -0.020 C 
HETATM    8  C           1     -21.714  -9.659  -3.715  0.00  0.00     0.009 C 
HETATM    9  C           1     -20.476  -8.441  -1.936  0.00  0.00     0.009 C 
ENDBRANCH   6   7
ENDBRANCH   5   6
BRANCH   5  10
HETATM   10  N           1     -22.407  -6.139  -3.990  0.00  0.00    -0.066 N 
HETATM   11  H           1     -22.326  -6.330  -2.965  0.00  0.00     0.275 HD
HETATM   12  H           1     -22.781  -5.174  -4.134  0.00  0.00     0.275 HD
HETATM   13  H           1     -23.056  -6.833  -4.423  0.00  0.00     0.275 HD
ENDBRANCH   5  10
ENDBRANCH   2   5
BRANCH   1  14
HETATM   14  C           1     -21.498  -4.806  -8.150  0.00  0.00     0.186 C 
BRANCH  14  15
HETATM   15  C           1     -20.144  -4.546  -8.765  0.00  0.00     0.196 C 
HETATM   16  O           1     -19.213  -4.098  -8.060  0.00  0.00    -0.646 OA
HETATM   17  O           1     -19.954  -4.780  -9.977  0.00  0.00    -0.646 OA
ENDBRANCH  14  15
BRANCH  14  18
HETATM   18  C           1     -22.438  -3.656  -8.486  0.00  0.00     0.046 C 
BRANCH  18  19
HETATM   19  C           1     -23.765  -4.214  -8.983  0.00  0.00     0.076 C 
BRANCH  19  20
HETATM   20  S           1     -24.177  -3.463 -10.583  0.00  0.00    -0.173 SA
HETATM   21  C           1     -23.215  -4.619 -11.599  0.00  0.00     0.089 C 
ENDBRANCH  19  20
ENDBRANCH  18  19
ENDBRANCH  14  18
ENDBRANCH   1  14
TORSDOF 9
ENDMDL
MODEL 7
REMARK VINA RESULT:      -5.2      1.877      2.436
REMARK  9 active torsions:
REMARK  status: ('A' for Active; 'I' for Inactive)
REMARK    1  A    between atoms: N_1  and  C_12 
REMARK       I    between atoms: N_1  and  C_2 
REMARK    2  A    between atoms: C_2  and  C_3 
REMARK    3  A    between atoms: C_3  and  C_4 
REMARK    4  A    between atoms: C_3  and  N_13 
REMARK    5  A    between atoms: C_4  and  C_16 
REMARK    6  A    between atoms: C_5  and  C_12 
REMARK    7  A    between atoms: S_7  and  C_19 
REMARK    8  A    between atoms: C_12  and  C_14 
REMARK    9  A    between atoms: C_14  and  C_19 
ROOT
HETATM    1  N           1     -35.446  -1.417 -10.762  0.00  0.00    -0.345 N 
HETATM    2  C           1     -35.390  -2.780 -10.636  0.00  0.00     0.249 C 
HETATM    3  O           1     -36.385  -3.443 -10.800  0.00  0.00    -0.271 OA
HETATM    4  H           1     -34.611  -0.862 -10.625  0.00  0.00     0.163 HD
ENDROOT
BRANCH   2   5
HETATM    5  C           1     -34.082  -3.452 -10.292  0.00  0.00     0.275 C 
BRANCH   5   6
HETATM    6  C           1     -33.078  -3.209 -11.411  0.00  0.00     0.046 C 
BRANCH   6   7
HETATM    7  C           1     -33.011  -4.439 -12.309  0.00  0.00    -0.020 C 
HETATM    8  C           1     -33.651  -4.120 -13.655  0.00  0.00     0.009 C 
HETATM    9  C           1     -31.555  -4.832 -12.521  0.00  0.00     0.009 C 
ENDBRANCH   6   7
ENDBRANCH   5   6
BRANCH   5  10
HETATM   10  N           1     -34.307  -4.926 -10.133  0.00  0.00    -0.066 N 
HETATM   11  H           1     -34.200  -5.397 -11.060  0.00  0.00     0.275 HD
HETATM   12  H           1     -33.605  -5.314  -9.464  0.00  0.00     0.275 HD
HETATM   13  H           1     -35.269  -5.094  -9.765  0.00  0.00     0.275 HD
ENDBRANCH   5  10
ENDBRANCH   2   5
BRANCH   1  14
HETATM   14  C           1     -36.701  -0.771 -11.092  0.00  0.00     0.186 C 
BRANCH  14  15
HETATM   15  C           1     -36.668  -0.316 -12.531  0.00  0.00     0.196 C 
HETATM   16  O           1     -37.523  -0.739 -13.340  0.00  0.00    -0.646 OA
HETATM   17  O           1     -35.787   0.483 -12.914  0.00  0.00    -0.646 OA
ENDBRANCH  14  15
BRANCH  14  18
HETATM   18  C           1     -36.906   0.434 -10.183  0.00  0.00     0.046 C 
BRANCH  18  19
HETATM   19  C           1     -37.431  -0.033  -8.833  0.00  0.00     0.076 C 
BRANCH  19  20
HETATM   20  S           1     -36.968   1.169  -7.554  0.00  0.00    -0.173 SA
HETATM   21  C           1     -37.742   0.291  -6.166  0.00  0.00     0.089 C 
ENDBRANCH  19  20
ENDBRANCH  18  19
ENDBRANCH  14  18
ENDBRANCH   1  14
TORSDOF 9
ENDMDL
MODEL 8
REMARK VINA RESULT:      -5.1     14.871     17.463
REMARK  9 active torsions:
REMARK  status: ('A' for Active; 'I' for Inactive)
REMARK    1  A    between atoms: N_1  and  C_12 
REMARK       I    between atoms: N_1  and  C_2 
REMARK    2  A    between atoms: C_2  and  C_3 
REMARK    3  A    between atoms: C_3  and  C_4 
REMARK    4  A    between atoms: C_3  and  N_13 
REMARK    5  A    between atoms: C_4  and  C_16 
REMARK    6  A    between atoms: C_5  and  C_12 
REMARK    7  A    between atoms: S_7  and  C_19 
REMARK    8  A    between atoms: C_12  and  C_14 
REMARK    9  A    between atoms: C_14  and  C_19 
ROOT
HETATM    1  N           1     -20.951  -6.557  -4.738  0.00  0.00    -0.345 N 
HETATM    2  C           1     -21.726  -5.779  -5.557  0.00  0.00     0.249 C 
HETATM    3  O           1     -22.928  -5.881  -5.526  0.00  0.00    -0.271 OA
HETATM    4  H           1     -19.943  -6.470  -4.763  0.00  0.00     0.163 HD
ENDROOT
BRANCH   2   5
HETATM    5  C           1     -21.075  -4.794  -6.497  0.00  0.00     0.275 C 
BRANCH   5   6
HETATM    6  C           1     -21.237  -5.279  -7.932  0.00  0.00     0.046 C 
BRANCH   6   7
HETATM    7  C           1     -21.326  -4.079  -8.867  0.00  0.00    -0.020 C 
HETATM    8  C           1     -20.491  -4.344 -10.114  0.00  0.00     0.009 C 
HETATM    9  C           1     -22.778  -3.855  -9.268  0.00  0.00     0.009 C 
ENDBRANCH   6   7
ENDBRANCH   5   6
BRANCH   5  10
HETATM   10  N           1     -19.616  -4.680  -6.170  0.00  0.00    -0.066 N 
HETATM   11  H           1     -19.305  -3.692  -6.304  0.00  0.00     0.275 HD
HETATM   12  H           1     -19.460  -4.962  -5.176  0.00  0.00     0.275 HD
HETATM   13  H           1     -19.068  -5.307  -6.800  0.00  0.00     0.275 HD
ENDBRANCH   5  10
ENDBRANCH   2   5
BRANCH   1  14
HETATM   14  C           1     -21.575  -7.503  -3.833  0.00  0.00     0.186 C 
BRANCH  14  15
HETATM   15  C           1     -21.597  -6.925  -2.439  0.00  0.00     0.196 C 
HETATM   16  O           1     -20.911  -7.447  -1.535  0.00  0.00    -0.646 OA
HETATM   17  O           1     -22.301  -5.923  -2.190  0.00  0.00    -0.646 OA
ENDBRANCH  14  15
BRANCH  14  18
HETATM   18  C           1     -20.781  -8.802  -3.832  0.00  0.00     0.046 C 
BRANCH  18  19
HETATM   19  C           1     -19.569  -8.658  -4.743  0.00  0.00     0.076 C 
BRANCH  19  20
HETATM   20  S           1     -18.185  -9.618  -4.068  0.00  0.00    -0.173 SA
HETATM   21  C           1     -17.377  -9.948  -5.659  0.00  0.00     0.089 C 
ENDBRANCH  19  20
ENDBRANCH  18  19
ENDBRANCH  14  18
ENDBRANCH   1  14
TORSDOF 9
ENDMDL
MODEL 9
REMARK VINA RESULT:      -5.0     16.356     18.062
REMARK  9 active torsions:
REMARK  status: ('A' for Active; 'I' for Inactive)
REMARK    1  A    between atoms: N_1  and  C_12 
REMARK       I    between atoms: N_1  and  C_2 
REMARK    2  A    between atoms: C_2  and  C_3 
REMARK    3  A    between atoms: C_3  and  C_4 
REMARK    4  A    between atoms: C_3  and  N_13 
REMARK    5  A    between atoms: C_4  and  C_16 
REMARK    6  A    between atoms: C_5  and  C_12 
REMARK    7  A    between atoms: S_7  and  C_19 
REMARK    8  A    between atoms: C_12  and  C_14 
REMARK    9  A    between atoms: C_14  and  C_19 
ROOT
HETATM    1  N           1     -21.269  -8.664  -3.471  0.00  0.00    -0.345 N 
HETATM    2  C           1     -20.654  -9.014  -2.298  0.00  0.00     0.249 C 
HETATM    3  O           1     -19.896  -8.243  -1.761  0.00  0.00    -0.271 OA
HETATM    4  H           1     -21.905  -9.310  -3.920  0.00  0.00     0.163 HD
ENDROOT
BRANCH   2   5
HETATM    5  C           1     -20.926 -10.363  -1.677  0.00  0.00     0.275 C 
BRANCH   5   6
HETATM    6  C           1     -21.542 -10.172  -0.298  0.00  0.00     0.046 C 
BRANCH   6   7
HETATM    7  C           1     -22.962  -9.639  -0.445  0.00  0.00    -0.020 C 
HETATM    8  C           1     -23.955 -10.720  -0.038  0.00  0.00     0.009 C 
HETATM    9  C           1     -23.142  -8.423   0.453  0.00  0.00     0.009 C 
ENDBRANCH   6   7
ENDBRANCH   5   6
BRANCH   5  10
HETATM   10  N           1     -19.638 -11.121  -1.549  0.00  0.00    -0.066 N 
HETATM   11  H           1     -19.649 -11.939  -2.199  0.00  0.00     0.275 HD
HETATM   12  H           1     -18.839 -10.493  -1.792  0.00  0.00     0.275 HD
HETATM   13  H           1     -19.529 -11.458  -0.567  0.00  0.00     0.275 HD
ENDBRANCH   5  10
ENDBRANCH   2   5
BRANCH   1  14
HETATM   14  C           1     -21.010  -7.369  -4.067  0.00  0.00     0.186 C 
BRANCH  14  15
HETATM   15  C           1     -22.151  -6.432  -3.751  0.00  0.00     0.196 C 
HETATM   16  O           1     -22.993  -6.154  -4.631  0.00  0.00    -0.646 OA
HETATM   17  O           1     -22.253  -5.937  -2.608  0.00  0.00    -0.646 OA
ENDBRANCH  14  15
BRANCH  14  18
HETATM   18  C           1     -20.882  -7.522  -5.577  0.00  0.00     0.046 C 
BRANCH  18  19
HETATM   19  C           1     -20.001  -6.409  -6.128  0.00  0.00     0.076 C 
BRANCH  19  20
HETATM   20  S           1     -20.869  -5.561  -7.477  0.00  0.00    -0.173 SA
HETATM   21  C           1     -19.534  -4.395  -7.871  0.00  0.00     0.089 C 
ENDBRANCH  19  20
ENDBRANCH  18  19
ENDBRANCH  14  18
ENDBRANCH   1  14
TORSDOF 9
ENDMDL
