MODEL 1
REMARK VINA RESULT:      -6.4      0.000      0.000
REMARK  8 active torsions:
REMARK  status: ('A' for Active; 'I' for Inactive)
REMARK    1  A    between atoms: N_2  and  C_18 
REMARK       I    between atoms: N_2  and  C_3 
REMARK    2  A    between atoms: C_3  and  C_4 
REMARK    3  A    between atoms: C_4  and  C_5 
REMARK    4  A    between atoms: C_4  and  N_14 
REMARK    5  A    between atoms: C_5  and  C_9 
REMARK    6  A    between atoms: C_17  and  C_18 
REMARK    7  A    between atoms: C_18  and  C_20 
REMARK    8  A    between atoms: O_19  and  C_20 
ROOT
HETATM    1  N           1     -35.049  -1.281 -13.964  0.00  0.00    -0.343 N 
HETATM    2  C           1     -35.366  -1.750 -12.718  0.00  0.00     0.249 C 
HETATM    3  H           1     -34.118  -1.422 -14.336  0.00  0.00     0.163 HD
HETATM    4  O           1     -36.477  -1.582 -12.275  0.00  0.00    -0.271 OA
ENDROOT
BRANCH   2   5
HETATM    5  C           1     -34.329  -2.479 -11.900  0.00  0.00     0.284 C 
BRANCH   5   6
HETATM    6  C           1     -34.981  -3.656 -11.185  0.00  0.00     0.155 C 
BRANCH   6   7
HETATM    7  C           1     -34.585  -4.942 -11.869  0.00  0.00     0.175 C 
HETATM    8  O           1     -33.708  -5.675 -11.362  0.00  0.00    -0.648 OA
HETATM    9  O           1     -35.134  -5.274 -12.942  0.00  0.00    -0.648 OA
ENDBRANCH   6   7
ENDBRANCH   5   6
BRANCH   5  10
HETATM   10  N           1     -33.745  -1.542 -10.886  0.00  0.00    -0.066 N 
HETATM   11  H           1     -33.561  -0.615 -11.333  0.00  0.00     0.275 HD
HETATM   12  H           1     -34.418  -1.419 -10.096  0.00  0.00     0.275 HD
HETATM   13  H           1     -32.847  -1.937 -10.522  0.00  0.00     0.275 HD
ENDBRANCH   5  10
ENDBRANCH   2   5
BRANCH   1  14
HETATM   14  C           1     -36.046  -0.581 -14.751  0.00  0.00     0.214 C 
BRANCH  14  15
HETATM   15  C           1     -35.885  -0.946 -16.206  0.00  0.00     0.199 C 
HETATM   16  O           1     -36.844  -0.807 -16.995  0.00  0.00    -0.646 OA
HETATM   17  O           1     -34.793  -1.389 -16.622  0.00  0.00    -0.646 OA
ENDBRANCH  14  15
BRANCH  14  18
HETATM   18  C           1     -35.861   0.922 -14.581  0.00  0.00     0.147 C 
HETATM   19  C           1     -34.485   1.200 -13.992  0.00  0.00     0.042 C 
BRANCH  18  20
HETATM   20  O           1     -35.973   1.550 -15.829  0.00  0.00    -0.393 OA
HETATM   21  H           1     -36.544   2.290 -15.713  0.00  0.00     0.210 HD
ENDBRANCH  18  20
ENDBRANCH  14  18
ENDBRANCH   1  14
TORSDOF 8
ENDMDL
MODEL 2
REMARK VINA RESULT:      -6.4      2.180      3.607
REMARK  8 active torsions:
REMARK  status: ('A' for Active; 'I' for Inactive)
REMARK    1  A    between atoms: N_2  and  C_18 
REMARK       I    between atoms: N_2  and  C_3 
REMARK    2  A    between atoms: C_3  and  C_4 
REMARK    3  A    between atoms: C_4  and  C_5 
REMARK    4  A    between atoms: C_4  and  N_14 
REMARK    5  A    between atoms: C_5  and  C_9 
REMARK    6  A    between atoms: C_17  and  C_18 
REMARK    7  A    between atoms: C_18  and  C_20 
REMARK    8  A    between atoms: O_19  and  C_20 
ROOT
HETATM    1  N           1     -35.495  -1.791 -11.508  0.00  0.00    -0.343 N 
HETATM    2  C           1     -34.305  -2.214 -10.981  0.00  0.00     0.249 C 
HETATM    3  H           1     -36.167  -2.467 -11.849  0.00  0.00     0.163 HD
HETATM    4  O           1     -33.504  -1.407 -10.574  0.00  0.00    -0.271 OA
ENDROOT
BRANCH   2   5
HETATM    5  C           1     -33.995  -3.689 -10.907  0.00  0.00     0.284 C 
BRANCH   5   6
HETATM    6  C           1     -33.282  -4.123 -12.181  0.00  0.00     0.155 C 
BRANCH   6   7
HETATM    7  C           1     -34.276  -4.197 -13.314  0.00  0.00     0.175 C 
HETATM    8  O           1     -34.998  -5.209 -13.447  0.00  0.00    -0.648 OA
HETATM    9  O           1     -34.376  -3.247 -14.120  0.00  0.00    -0.648 OA
ENDBRANCH   6   7
ENDBRANCH   5   6
BRANCH   5  10
HETATM   10  N           1     -35.271  -4.461 -10.761  0.00  0.00    -0.066 N 
HETATM   11  H           1     -35.886  -3.990 -10.059  0.00  0.00     0.275 HD
HETATM   12  H           1     -35.762  -4.499 -11.683  0.00  0.00     0.275 HD
HETATM   13  H           1     -35.056  -5.432 -10.440  0.00  0.00     0.275 HD
ENDBRANCH   5  10
ENDBRANCH   2   5
BRANCH   1  14
HETATM   14  C           1     -35.794  -0.374 -11.580  0.00  0.00     0.214 C 
BRANCH  14  15
HETATM   15  C           1     -36.984  -0.066 -10.704  0.00  0.00     0.199 C 
HETATM   16  O           1     -38.073  -0.644 -10.905  0.00  0.00    -0.646 OA
HETATM   17  O           1     -36.879   0.767  -9.777  0.00  0.00    -0.646 OA
ENDBRANCH  14  15
BRANCH  14  18
HETATM   18  C           1     -36.111   0.005 -13.020  0.00  0.00     0.147 C 
HETATM   19  C           1     -34.843   0.497 -13.706  0.00  0.00     0.042 C 
BRANCH  18  20
HETATM   20  O           1     -36.606  -1.116 -13.700  0.00  0.00    -0.393 OA
HETATM   21  H           1     -37.538  -1.129 -13.567  0.00  0.00     0.210 HD
ENDBRANCH  18  20
ENDBRANCH  14  18
ENDBRANCH   1  14
TORSDOF 8
ENDMDL
MODEL 3
REMARK VINA RESULT:      -6.3      1.651      5.212
REMARK  8 active torsions:
REMARK  status: ('A' for Active; 'I' for Inactive)
REMARK    1  A    between atoms: N_2  and  C_18 
REMARK       I    between atoms: N_2  and  C_3 
REMARK    2  A    between atoms: C_3  and  C_4 
REMARK    3  A    between atoms: C_4  and  C_5 
REMARK    4  A    between atoms: C_4  and  N_14 
REMARK    5  A    between atoms: C_5  and  C_9 
REMARK    6  A    between atoms: C_17  and  C_18 
REMARK    7  A    between atoms: C_18  and  C_20 
REMARK    8  A    between atoms: O_19  and  C_20 
ROOT
HETATM    1  N           1     -34.802  -1.372 -13.292  0.00  0.00    -0.343 N 
HETATM    2  C           1     -35.917  -0.638 -13.592  0.00  0.00     0.249 C 
HETATM    3  H           1     -33.916  -1.149 -13.730  0.00  0.00     0.163 HD
HETATM    4  O           1     -36.973  -0.903 -13.070  0.00  0.00    -0.271 OA
ENDROOT
BRANCH   2   5
HETATM    5  C           1     -35.827   0.505 -14.574  0.00  0.00     0.284 C 
BRANCH   5   6
HETATM    6  C           1     -35.117   0.036 -15.837  0.00  0.00     0.155 C 
BRANCH   6   7
HETATM    7  C           1     -35.912  -1.074 -16.479  0.00  0.00     0.175 C 
HETATM    8  O           1     -36.995  -0.818 -17.049  0.00  0.00    -0.648 OA
HETATM    9  O           1     -35.488  -2.249 -16.442  0.00  0.00    -0.648 OA
ENDBRANCH   6   7
ENDBRANCH   5   6
BRANCH   5  10
HETATM   10  N           1     -35.055   1.633 -13.957  0.00  0.00    -0.066 N 
HETATM   11  H           1     -34.526   1.281 -13.127  0.00  0.00     0.275 HD
HETATM   12  H           1     -34.383   2.019 -14.658  0.00  0.00     0.275 HD
HETATM   13  H           1     -35.716   2.384 -13.655  0.00  0.00     0.275 HD
ENDBRANCH   5  10
ENDBRANCH   2   5
BRANCH   1  14
HETATM   14  C           1     -34.888  -2.470 -12.349  0.00  0.00     0.214 C 
BRANCH  14  15
HETATM   15  C           1     -34.255  -2.061 -11.043  0.00  0.00     0.199 C 
HETATM   16  O           1     -34.916  -1.412 -10.204  0.00  0.00    -0.646 OA
HETATM   17  O           1     -33.069  -2.372 -10.798  0.00  0.00    -0.646 OA
ENDBRANCH  14  15
BRANCH  14  18
HETATM   18  C           1     -34.156  -3.681 -12.913  0.00  0.00     0.147 C 
HETATM   19  C           1     -34.779  -4.955 -12.358  0.00  0.00     0.042 C 
BRANCH  18  20
HETATM   20  O           1     -34.258  -3.680 -14.311  0.00  0.00    -0.393 OA
HETATM   21  H           1     -35.065  -3.244 -14.526  0.00  0.00     0.210 HD
ENDBRANCH  18  20
ENDBRANCH  14  18
ENDBRANCH   1  14
TORSDOF 8
ENDMDL
MODEL 4
REMARK VINA RESULT:      -6.3     13.035     14.803
REMARK  8 active torsions:
REMARK  status: ('A' for Active; 'I' for Inactive)
REMARK    1  A    between atoms: N_2  and  C_18 
REMARK       I    between atoms: N_2  and  C_3 
REMARK    2  A    between atoms: C_3  and  C_4 
REMARK    3  A    between atoms: C_4  and  C_5 
REMARK    4  A    between atoms: C_4  and  N_14 
REMARK    5  A    between atoms: C_5  and  C_9 
REMARK    6  A    between atoms: C_17  and  C_18 
REMARK    7  A    between atoms: C_18  and  C_20 
REMARK    8  A    between atoms: O_19  and  C_20 
ROOT
HETATM    1  N           1     -22.149  -4.787  -9.033  0.00  0.00    -0.343 N 
HETATM    2  C           1     -21.686  -4.530  -7.771  0.00  0.00     0.249 C 
HETATM    3  H           1     -22.179  -5.738  -9.377  0.00  0.00     0.163 HD
HETATM    4  O           1     -21.651  -3.394  -7.360  0.00  0.00    -0.271 OA
ENDROOT
BRANCH   2   5
HETATM    5  C           1     -21.221  -5.664  -6.892  0.00  0.00     0.284 C 
BRANCH   5   6
HETATM    6  C           1     -20.921  -5.136  -5.495  0.00  0.00     0.155 C 
BRANCH   6   7
HETATM    7  C           1     -21.180  -6.221  -4.479  0.00  0.00     0.175 C 
HETATM    8  O           1     -20.567  -7.308  -4.555  0.00  0.00    -0.648 OA
HETATM    9  O           1     -22.009  -6.034  -3.562  0.00  0.00    -0.648 OA
ENDBRANCH   6   7
ENDBRANCH   5   6
BRANCH   5  10
HETATM   10  N           1     -19.978  -6.269  -7.473  0.00  0.00    -0.066 N 
HETATM   11  H           1     -20.229  -7.126  -8.016  0.00  0.00     0.275 HD
HETATM   12  H           1     -19.519  -5.577  -8.108  0.00  0.00     0.275 HD
HETATM   13  H           1     -19.321  -6.526  -6.702  0.00  0.00     0.275 HD
ENDBRANCH   5  10
ENDBRANCH   2   5
BRANCH   1  14
HETATM   14  C           1     -22.596  -3.696  -9.877  0.00  0.00     0.214 C 
BRANCH  14  15
HETATM   15  C           1     -24.066  -3.861 -10.174  0.00  0.00     0.199 C 
HETATM   16  O           1     -24.649  -4.925  -9.875  0.00  0.00    -0.646 OA
HETATM   17  O           1     -24.702  -2.932 -10.719  0.00  0.00    -0.646 OA
ENDBRANCH  14  15
BRANCH  14  18
HETATM   18  C           1     -21.809  -3.710 -11.182  0.00  0.00     0.147 C 
HETATM   19  C           1     -20.410  -4.252 -10.923  0.00  0.00     0.042 C 
BRANCH  18  20
HETATM   20  O           1     -22.463  -4.529 -12.113  0.00  0.00    -0.393 OA
HETATM   21  H           1     -23.234  -4.065 -12.392  0.00  0.00     0.210 HD
ENDBRANCH  18  20
ENDBRANCH  14  18
ENDBRANCH   1  14
TORSDOF 8
ENDMDL
MODEL 5
REMARK VINA RESULT:      -5.8     12.861     14.451
REMARK  8 active torsions:
REMARK  status: ('A' for Active; 'I' for Inactive)
REMARK    1  A    between atoms: N_2  and  C_18 
REMARK       I    between atoms: N_2  and  C_3 
REMARK    2  A    between atoms: C_3  and  C_4 
REMARK    3  A    between atoms: C_4  and  C_5 
REMARK    4  A    between atoms: C_4  and  N_14 
REMARK    5  A    between atoms: C_5  and  C_9 
REMARK    6  A    between atoms: C_17  and  C_18 
REMARK    7  A    between atoms: C_18  and  C_20 
REMARK    8  A    between atoms: O_19  and  C_20 
ROOT
HETATM    1  N           1     -22.084  -3.715  -9.850  0.00  0.00    -0.343 N 
HETATM    2  C           1     -20.851  -4.150  -9.443  0.00  0.00     0.249 C 
HETATM    3  H           1     -22.635  -3.118  -9.246  0.00  0.00     0.163 HD
HETATM    4  O           1     -20.194  -4.862 -10.164  0.00  0.00    -0.271 OA
ENDROOT
BRANCH   2   5
HETATM    5  C           1     -20.313  -3.739  -8.094  0.00  0.00     0.284 C 
BRANCH   5   6
HETATM    6  C           1     -19.490  -4.878  -7.507  0.00  0.00     0.155 C 
BRANCH   6   7
HETATM    7  C           1     -20.346  -5.682  -6.559  0.00  0.00     0.175 C 
HETATM    8  O           1     -20.374  -5.393  -5.343  0.00  0.00    -0.648 OA
HETATM    9  O           1     -21.028  -6.637  -6.991  0.00  0.00    -0.648 OA
ENDBRANCH   6   7
ENDBRANCH   5   6
BRANCH   5  10
HETATM   10  N           1     -21.456  -3.424  -7.176  0.00  0.00    -0.066 N 
HETATM   11  H           1     -21.578  -2.388  -7.114  0.00  0.00     0.275 HD
HETATM   12  H           1     -22.332  -3.855  -7.550  0.00  0.00     0.275 HD
HETATM   13  H           1     -21.255  -3.809  -6.225  0.00  0.00     0.275 HD
ENDBRANCH   5  10
ENDBRANCH   2   5
BRANCH   1  14
HETATM   14  C           1     -22.601  -4.110 -11.146  0.00  0.00     0.214 C 
BRANCH  14  15
HETATM   15  C           1     -22.302  -3.030 -12.156  0.00  0.00     0.199 C 
HETATM   16  O           1     -21.912  -1.906 -11.774  0.00  0.00    -0.646 OA
HETATM   17  O           1     -22.443  -3.260 -13.378  0.00  0.00    -0.646 OA
ENDBRANCH  14  15
BRANCH  14  18
HETATM   18  C           1     -24.107  -4.314 -11.050  0.00  0.00     0.147 C 
HETATM   19  C           1     -24.502  -4.495  -9.590  0.00  0.00     0.042 C 
BRANCH  18  20
HETATM   20  O           1     -24.764  -3.194 -11.577  0.00  0.00    -0.393 OA
HETATM   21  H           1     -24.814  -2.554 -10.886  0.00  0.00     0.210 HD
ENDBRANCH  18  20
ENDBRANCH  14  18
ENDBRANCH   1  14
TORSDOF 8
ENDMDL
MODEL 6
REMARK VINA RESULT:      -5.8     12.511     14.921
REMARK  8 active torsions:
REMARK  status: ('A' for Active; 'I' for Inactive)
REMARK    1  A    between atoms: N_2  and  C_18 
REMARK       I    between atoms: N_2  and  C_3 
REMARK    2  A    between atoms: C_3  and  C_4 
REMARK    3  A    between atoms: C_4  and  C_5 
REMARK    4  A    between atoms: C_4  and  N_14 
REMARK    5  A    between atoms: C_5  and  C_9 
REMARK    6  A    between atoms: C_17  and  C_18 
REMARK    7  A    between atoms: C_18  and  C_20 
REMARK    8  A    between atoms: O_19  and  C_20 
ROOT
HETATM    1  N           1     -22.217  -5.031  -8.367  0.00  0.00    -0.343 N 
HETATM    2  C           1     -23.076  -4.132  -8.938  0.00  0.00     0.249 C 
HETATM    3  H           1     -22.338  -6.022  -8.535  0.00  0.00     0.163 HD
HETATM    4  O           1     -22.932  -2.949  -8.739  0.00  0.00    -0.271 OA
ENDROOT
BRANCH   2   5
HETATM    5  C           1     -24.202  -4.617  -9.818  0.00  0.00     0.284 C 
BRANCH   5   6
HETATM    6  C           1     -23.705  -4.753 -11.252  0.00  0.00     0.155 C 
BRANCH   6   7
HETATM    7  C           1     -23.955  -3.464 -11.996  0.00  0.00     0.175 C 
HETATM    8  O           1     -25.018  -3.307 -12.634  0.00  0.00    -0.648 OA
HETATM    9  O           1     -23.097  -2.554 -11.975  0.00  0.00    -0.648 OA
ENDBRANCH   6   7
ENDBRANCH   5   6
BRANCH   5  10
HETATM   10  N           1     -25.331  -3.631  -9.773  0.00  0.00    -0.066 N 
HETATM   11  H           1     -25.360  -3.092 -10.668  0.00  0.00     0.275 HD
HETATM   12  H           1     -26.234  -4.141  -9.645  0.00  0.00     0.275 HD
HETATM   13  H           1     -25.186  -2.971  -8.975  0.00  0.00     0.275 HD
ENDBRANCH   5  10
ENDBRANCH   2   5
BRANCH   1  14
HETATM   14  C           1     -21.135  -4.565  -7.522  0.00  0.00     0.214 C 
BRANCH  14  15
HETATM   15  C           1     -19.864  -4.487  -8.331  0.00  0.00     0.199 C 
HETATM   16  O           1     -19.871  -4.805  -9.539  0.00  0.00    -0.646 OA
HETATM   17  O           1     -18.802  -4.104  -7.791  0.00  0.00    -0.646 OA
ENDBRANCH  14  15
BRANCH  14  18
HETATM   18  C           1     -20.943  -5.536  -6.364  0.00  0.00     0.147 C 
HETATM   19  C           1     -22.303  -5.934  -5.806  0.00  0.00     0.042 C 
BRANCH  18  20
HETATM   20  O           1     -20.271  -6.678  -6.819  0.00  0.00    -0.393 OA
HETATM   21  H           1     -20.527  -6.808  -7.716  0.00  0.00     0.210 HD
ENDBRANCH  18  20
ENDBRANCH  14  18
ENDBRANCH   1  14
TORSDOF 8
ENDMDL
MODEL 7
REMARK VINA RESULT:      -5.8      2.307      5.695
REMARK  8 active torsions:
REMARK  status: ('A' for Active; 'I' for Inactive)
REMARK    1  A    between atoms: N_2  and  C_18 
REMARK       I    between atoms: N_2  and  C_3 
REMARK    2  A    between atoms: C_3  and  C_4 
REMARK    3  A    between atoms: C_4  and  C_5 
REMARK    4  A    between atoms: C_4  and  N_14 
REMARK    5  A    between atoms: C_5  and  C_9 
REMARK    6  A    between atoms: C_17  and  C_18 
REMARK    7  A    between atoms: C_18  and  C_20 
REMARK    8  A    between atoms: O_19  and  C_20 
ROOT
HETATM    1  N           1     -36.001  -0.347 -11.982  0.00  0.00    -0.343 N 
HETATM    2  C           1     -36.720  -0.327 -13.147  0.00  0.00     0.249 C 
HETATM    3  H           1     -35.069   0.047 -11.957  0.00  0.00     0.163 HD
HETATM    4  O           1     -37.833  -0.797 -13.178  0.00  0.00    -0.271 OA
ENDROOT
BRANCH   2   5
HETATM    5  C           1     -36.125   0.283 -14.392  0.00  0.00     0.284 C 
BRANCH   5   6
HETATM    6  C           1     -37.223   0.513 -15.422  0.00  0.00     0.155 C 
BRANCH   6   7
HETATM    7  C           1     -37.238  -0.630 -16.407  0.00  0.00     0.175 C 
HETATM    8  O           1     -38.075  -1.551 -16.283  0.00  0.00    -0.648 OA
HETATM    9  O           1     -36.414  -0.656 -17.346  0.00  0.00    -0.648 OA
ENDBRANCH   6   7
ENDBRANCH   5   6
BRANCH   5  10
HETATM   10  N           1     -35.096  -0.647 -14.960  0.00  0.00    -0.066 N 
HETATM   11  H           1     -34.140  -0.305 -14.711  0.00  0.00     0.275 HD
HETATM   12  H           1     -35.235  -1.605 -14.565  0.00  0.00     0.275 HD
HETATM   13  H           1     -35.193  -0.682 -16.001  0.00  0.00     0.275 HD
ENDBRANCH   5  10
ENDBRANCH   2   5
BRANCH   1  14
HETATM   14  C           1     -36.574  -0.933 -10.786  0.00  0.00     0.214 C 
BRANCH  14  15
HETATM   15  C           1     -36.832   0.151  -9.769  0.00  0.00     0.199 C 
HETATM   16  O           1     -37.653   1.059 -10.018  0.00  0.00    -0.646 OA
HETATM   17  O           1     -36.223   0.141  -8.677  0.00  0.00    -0.646 OA
ENDBRANCH  14  15
BRANCH  14  18
HETATM   18  C           1     -35.602  -1.953 -10.207  0.00  0.00     0.147 C 
HETATM   19  C           1     -35.731  -3.265 -10.970  0.00  0.00     0.042 C 
BRANCH  18  20
HETATM   20  O           1     -34.292  -1.470 -10.326  0.00  0.00    -0.393 OA
HETATM   21  H           1     -33.815  -1.782  -9.576  0.00  0.00     0.210 HD
ENDBRANCH  18  20
ENDBRANCH  14  18
ENDBRANCH   1  14
TORSDOF 8
ENDMDL
MODEL 8
REMARK VINA RESULT:      -5.7      7.113      9.038
REMARK  8 active torsions:
REMARK  status: ('A' for Active; 'I' for Inactive)
REMARK    1  A    between atoms: N_2  and  C_18 
REMARK       I    between atoms: N_2  and  C_3 
REMARK    2  A    between atoms: C_3  and  C_4 
REMARK    3  A    between atoms: C_4  and  C_5 
REMARK    4  A    between atoms: C_4  and  N_14 
REMARK    5  A    between atoms: C_5  and  C_9 
REMARK    6  A    between atoms: C_17  and  C_18 
REMARK    7  A    between atoms: C_18  and  C_20 
REMARK    8  A    between atoms: O_19  and  C_20 
ROOT
HETATM    1  N           1     -29.766  -6.131 -17.033  0.00  0.00    -0.343 N 
HETATM    2  C           1     -30.921  -6.718 -17.473  0.00  0.00     0.249 C 
HETATM    3  H           1     -29.770  -5.160 -16.745  0.00  0.00     0.163 HD
HETATM    4  O           1     -30.917  -7.876 -17.817  0.00  0.00    -0.271 OA
ENDROOT
BRANCH   2   5
HETATM    5  C           1     -32.201  -5.920 -17.526  0.00  0.00     0.284 C 
BRANCH   5   6
HETATM    6  C           1     -32.111  -4.748 -16.556  0.00  0.00     0.155 C 
BRANCH   6   7
HETATM    7  C           1     -32.153  -3.452 -17.327  0.00  0.00     0.175 C 
HETATM    8  O           1     -33.249  -2.898 -17.559  0.00  0.00    -0.648 OA
HETATM    9  O           1     -31.091  -2.932 -17.735  0.00  0.00    -0.648 OA
ENDBRANCH   6   7
ENDBRANCH   5   6
BRANCH   5  10
HETATM   10  N           1     -33.353  -6.798 -17.141  0.00  0.00    -0.066 N 
HETATM   11  H           1     -33.725  -6.499 -16.211  0.00  0.00     0.275 HD
HETATM   12  H           1     -34.108  -6.718 -17.859  0.00  0.00     0.275 HD
HETATM   13  H           1     -33.030  -7.791 -17.082  0.00  0.00     0.275 HD
ENDBRANCH   5  10
ENDBRANCH   2   5
BRANCH   1  14
HETATM   14  C           1     -28.536  -6.898 -16.982  0.00  0.00     0.214 C 
BRANCH  14  15
HETATM   15  C           1     -27.875  -6.698 -15.641  0.00  0.00     0.199 C 
HETATM   16  O           1     -27.035  -7.526 -15.229  0.00  0.00    -0.646 OA
HETATM   17  O           1     -28.168  -5.703 -14.942  0.00  0.00    -0.646 OA
ENDBRANCH  14  15
BRANCH  14  18
HETATM   18  C           1     -27.599  -6.426 -18.087  0.00  0.00     0.147 C 
HETATM   19  C           1     -28.380  -5.586 -19.089  0.00  0.00     0.042 C 
BRANCH  18  20
HETATM   20  O           1     -26.571  -5.654 -17.529  0.00  0.00    -0.393 OA
HETATM   21  H           1     -26.561  -5.836 -16.605  0.00  0.00     0.210 HD
ENDBRANCH  18  20
ENDBRANCH  14  18
ENDBRANCH   1  14
TORSDOF 8
ENDMDL
MODEL 9
REMARK VINA RESULT:      -5.5      9.857     11.386
REMARK  8 active torsions:
REMARK  status: ('A' for Active; 'I' for Inactive)
REMARK    1  A    between atoms: N_2  and  C_18 
REMARK       I    between atoms: N_2  and  C_3 
REMARK    2  A    between atoms: C_3  and  C_4 
REMARK    3  A    between atoms: C_4  and  C_5 
REMARK    4  A    between atoms: C_4  and  N_14 
REMARK    5  A    between atoms: C_5  and  C_9 
REMARK    6  A    between atoms: C_17  and  C_18 
REMARK    7  A    between atoms: C_18  and  C_20 
REMARK    8  A    between atoms: O_19  and  C_20 
ROOT
HETATM    1  N           1     -27.682  -6.723 -17.726  0.00  0.00    -0.343 N 
HETATM    2  C           1     -27.436  -5.982 -18.850  0.00  0.00     0.249 C 
HETATM    3  H           1     -27.003  -7.405 -17.411  0.00  0.00     0.163 HD
HETATM    4  O           1     -28.246  -5.168 -19.225  0.00  0.00    -0.271 OA
ENDROOT
BRANCH   2   5
HETATM    5  C           1     -26.153  -6.180 -19.619  0.00  0.00     0.284 C 
BRANCH   5   6
HETATM    6  C           1     -26.475  -6.508 -21.071  0.00  0.00     0.155 C 
BRANCH   6   7
HETATM    7  C           1     -26.222  -7.974 -21.324  0.00  0.00     0.175 C 
HETATM    8  O           1     -25.066  -8.374 -21.580  0.00  0.00    -0.648 OA
HETATM    9  O           1     -27.170  -8.789 -21.278  0.00  0.00    -0.648 OA
ENDBRANCH   6   7
ENDBRANCH   5   6
BRANCH   5  10
HETATM   10  N           1     -25.377  -7.310 -19.012  0.00  0.00    -0.066 N 
HETATM   11  H           1     -24.496  -6.941 -18.587  0.00  0.00     0.275 HD
HETATM   12  H           1     -25.954  -7.770 -18.271  0.00  0.00     0.275 HD
HETATM   13  H           1     -25.140  -8.008 -19.754  0.00  0.00     0.275 HD
ENDBRANCH   5  10
ENDBRANCH   2   5
BRANCH   1  14
HETATM   14  C           1     -28.915  -6.533 -16.987  0.00  0.00     0.214 C 
BRANCH  14  15
HETATM   15  C           1     -28.608  -6.436 -15.513  0.00  0.00     0.199 C 
HETATM   16  O           1     -29.079  -5.497 -14.836  0.00  0.00    -0.646 OA
HETATM   17  O           1     -27.881  -7.295 -14.968  0.00  0.00    -0.646 OA
ENDBRANCH  14  15
BRANCH  14  18
HETATM   18  C           1     -29.843  -7.715 -17.236  0.00  0.00     0.147 C 
HETATM   19  C           1     -30.287  -7.711 -18.693  0.00  0.00     0.042 C 
BRANCH  18  20
HETATM   20  O           1     -29.164  -8.908 -16.957  0.00  0.00    -0.393 OA
HETATM   21  H           1     -28.243  -8.723 -17.027  0.00  0.00     0.210 HD
ENDBRANCH  18  20
ENDBRANCH  14  18
ENDBRANCH   1  14
TORSDOF 8
ENDMDL
