MODEL 1
REMARK VINA RESULT:      -7.0      0.000      0.000
REMARK  14 active torsions:
REMARK  status: ('A' for Active; 'I' for Inactive)
REMARK    1  A    between atoms: C_1  and  C_28 
REMARK    2  A    between atoms: C_1  and  C_16 
REMARK    3  A    between atoms: C_5  and  C_16 
REMARK    4  A    between atoms: C_6  and  C_7 
REMARK    5  A    between atoms: C_6  and  C_26 
REMARK    6  A    between atoms: C_6  and  N_29 
REMARK       I    between atoms: C_7  and  N_8 
REMARK    7  A    between atoms: N_8  and  C_16 
REMARK    8  A    between atoms: C_10  and  C_24 
REMARK    9  A    between atoms: C_10  and  C_11 
REMARK   10  A    between atoms: C_10  and  N_27 
REMARK   11  A    between atoms: C_18  and  C_25 
REMARK   12  A    between atoms: C_18  and  N_19 
REMARK       I    between atoms: N_19  and  C_20 
REMARK       I    between atoms: C_20  and  N_21 
REMARK   13  A    between atoms: C_25  and  C_26 
REMARK   14  A    between atoms: N_27  and  C_28 
ROOT
HETATM    1  C           1     -21.431  -6.524  -4.207  0.00  0.00     0.249 C 
HETATM    2  N           1     -20.899  -5.455  -4.878  0.00  0.00    -0.345 N 
HETATM    3  H           1     -20.428  -4.721  -4.365  0.00  0.00     0.163 HD
HETATM    4  O           1     -21.995  -7.401  -4.819  0.00  0.00    -0.271 OA
ENDROOT
BRANCH   1   5
HETATM    5  C           1     -21.316  -6.606  -2.706  0.00  0.00     0.274 C 
BRANCH   5   6
HETATM    6  C           1     -21.376  -8.064  -2.270  0.00  0.00     0.044 C 
BRANCH   6   7
HETATM    7  C           1     -19.962  -8.615  -2.143  0.00  0.00     0.023 C 
BRANCH   7   8
HETATM    8  C           1     -19.833  -9.882  -2.977  0.00  0.00     0.138 C 
BRANCH   8   9
HETATM    9  N           1     -18.762  -9.710  -3.969  0.00  0.00    -0.227 N 
HETATM   10  H           1     -17.759  -9.671  -3.659  0.00  0.00     0.177 HD
HETATM   11  C           1     -19.049  -9.610  -5.199  0.00  0.00     0.665 C 
HETATM   12  N           1     -18.127  -9.462  -6.054  0.00  0.00    -0.235 N 
HETATM   13  N           1     -20.290  -9.659  -5.583  0.00  0.00    -0.235 N 
HETATM   14  H           1     -17.124  -9.424  -5.743  0.00  0.00     0.174 HD
HETATM   15  H           1     -18.364  -9.379  -7.073  0.00  0.00     0.174 HD
HETATM   16  H           1     -21.050  -9.781  -4.877  0.00  0.00     0.174 HD
HETATM   17  H           1     -20.526  -9.576  -6.597  0.00  0.00     0.174 HD
ENDBRANCH   8   9
ENDBRANCH   7   8
ENDBRANCH   6   7
ENDBRANCH   5   6
BRANCH   5  18
HETATM   18  N           1     -22.445  -5.848  -2.074  0.00  0.00    -0.067 N 
HETATM   19  H           1     -22.875  -5.211  -2.782  0.00  0.00     0.275 HD
HETATM   20  H           1     -22.083  -5.285  -1.272  0.00  0.00     0.275 HD
HETATM   21  H           1     -23.166  -6.522  -1.728  0.00  0.00     0.275 HD
ENDBRANCH   5  18
ENDBRANCH   1   5
BRANCH   2  22
HETATM   22  C           1     -21.011  -5.376  -6.321  0.00  0.00     0.187 C 
BRANCH  22  23
HETATM   23  C           1     -21.416  -3.963  -6.721  0.00  0.00     0.066 C 
BRANCH  23  24
HETATM   24  C           1     -22.653  -4.020  -7.608  0.00  0.00     0.273 C 
BRANCH  24  25
HETATM   25  N           1     -22.278  -4.452  -8.927  0.00  0.00     0.098 N 
HETATM   26  H           1     -22.617  -5.402  -9.083  0.00  0.00     0.317 HD
BRANCH  25  27
HETATM   27  C           1     -22.896  -3.561  -9.871  0.00  0.00     0.323 C 
BRANCH  27  28
HETATM   28  C           1     -22.336  -3.827 -11.261  0.00  0.00     0.021 C 
HETATM   29  C           1     -20.823  -3.986 -11.176  0.00  0.00     0.012 C 
HETATM   30  C           1     -22.673  -2.657 -12.176  0.00  0.00     0.012 C 
ENDBRANCH  27  28
BRANCH  27  31
HETATM   31  C           1     -24.387  -3.792  -9.877  0.00  0.00     0.207 C 
HETATM   32  O           1     -25.169  -2.829  -9.717  0.00  0.00    -0.646 OA
HETATM   33  O           1     -24.841  -4.944 -10.041  0.00  0.00    -0.646 OA
ENDBRANCH  27  31
ENDBRANCH  25  27
ENDBRANCH  24  25
ENDBRANCH  23  24
ENDBRANCH  22  23
BRANCH  22  34
HETATM   34  C           1     -19.683  -5.716  -6.948  0.00  0.00     0.196 C 
HETATM   35  O           1     -18.941  -4.805  -7.377  0.00  0.00    -0.646 OA
HETATM   36  O           1     -19.321  -6.910  -7.038  0.00  0.00    -0.646 OA
ENDBRANCH  22  34
ENDBRANCH   2  22
TORSDOF 14
ENDMDL
MODEL 2
REMARK VINA RESULT:      -6.8      2.736      8.801
REMARK  14 active torsions:
REMARK  status: ('A' for Active; 'I' for Inactive)
REMARK    1  A    between atoms: C_1  and  C_28 
REMARK    2  A    between atoms: C_1  and  C_16 
REMARK    3  A    between atoms: C_5  and  C_16 
REMARK    4  A    between atoms: C_6  and  C_7 
REMARK    5  A    between atoms: C_6  and  C_26 
REMARK    6  A    between atoms: C_6  and  N_29 
REMARK       I    between atoms: C_7  and  N_8 
REMARK    7  A    between atoms: N_8  and  C_16 
REMARK    8  A    between atoms: C_10  and  C_24 
REMARK    9  A    between atoms: C_10  and  C_11 
REMARK   10  A    between atoms: C_10  and  N_27 
REMARK   11  A    between atoms: C_18  and  C_25 
REMARK   12  A    between atoms: C_18  and  N_19 
REMARK       I    between atoms: N_19  and  C_20 
REMARK       I    between atoms: C_20  and  N_21 
REMARK   13  A    between atoms: C_25  and  C_26 
REMARK   14  A    between atoms: N_27  and  C_28 
ROOT
HETATM    1  C           1     -20.811  -5.331  -7.131  0.00  0.00     0.249 C 
HETATM    2  N           1     -21.581  -5.981  -6.203  0.00  0.00    -0.345 N 
HETATM    3  H           1     -22.580  -6.062  -6.342  0.00  0.00     0.163 HD
HETATM    4  O           1     -19.618  -5.235  -6.965  0.00  0.00    -0.271 OA
ENDROOT
BRANCH   1   5
HETATM    5  C           1     -21.453  -4.735  -8.359  0.00  0.00     0.274 C 
BRANCH   5   6
HETATM    6  C           1     -20.379  -4.121  -9.246  0.00  0.00     0.044 C 
BRANCH   6   7
HETATM    7  C           1     -20.666  -4.465 -10.702  0.00  0.00     0.023 C 
BRANCH   7   8
HETATM    8  C           1     -21.078  -3.204 -11.451  0.00  0.00     0.138 C 
BRANCH   8   9
HETATM    9  N           1     -21.671  -3.572 -12.745  0.00  0.00    -0.227 N 
HETATM   10  H           1     -21.168  -4.237 -13.383  0.00  0.00     0.177 HD
HETATM   11  C           1     -22.790  -3.088 -13.089  0.00  0.00     0.665 C 
HETATM   12  N           1     -23.301  -3.405 -14.203  0.00  0.00    -0.235 N 
HETATM   13  N           1     -23.413  -2.266 -12.298  0.00  0.00    -0.235 N 
HETATM   14  H           1     -22.797  -4.070 -14.841  0.00  0.00     0.174 HD
HETATM   15  H           1     -24.228  -3.004 -14.489  0.00  0.00     0.174 HD
HETATM   16  H           1     -22.991  -2.004 -11.379  0.00  0.00     0.174 HD
HETATM   17  H           1     -24.335  -1.866 -12.583  0.00  0.00     0.174 HD
ENDBRANCH   8   9
ENDBRANCH   7   8
ENDBRANCH   6   7
ENDBRANCH   5   6
BRANCH   5  18
HETATM   18  N           1     -22.429  -3.673  -7.948  0.00  0.00    -0.067 N 
HETATM   19  H           1     -23.178  -3.591  -8.672  0.00  0.00     0.275 HD
HETATM   20  H           1     -21.932  -2.759  -7.855  0.00  0.00     0.275 HD
HETATM   21  H           1     -22.858  -3.932  -7.030  0.00  0.00     0.275 HD
ENDBRANCH   5  18
ENDBRANCH   1   5
BRANCH   2  22
HETATM   22  C           1     -20.964  -6.554  -5.022  0.00  0.00     0.187 C 
BRANCH  22  23
HETATM   23  C           1     -21.928  -6.453  -3.847  0.00  0.00     0.066 C 
BRANCH  23  24
HETATM   24  C           1     -21.167  -6.665  -2.546  0.00  0.00     0.273 C 
BRANCH  24  25
HETATM   25  N           1     -21.986  -7.408  -1.626  0.00  0.00     0.098 N 
HETATM   26  H           1     -22.676  -7.949  -2.148  0.00  0.00     0.317 HD
BRANCH  25  27
HETATM   27  C           1     -21.127  -8.300  -0.897  0.00  0.00     0.323 C 
BRANCH  27  28
HETATM   28  C           1     -21.862  -8.822   0.330  0.00  0.00     0.021 C 
HETATM   29  C           1     -23.147  -8.027   0.527  0.00  0.00     0.012 C 
HETATM   30  C           1     -20.973  -8.665   1.557  0.00  0.00     0.012 C 
ENDBRANCH  27  28
BRANCH  27  31
HETATM   31  C           1     -20.739  -9.459  -1.782  0.00  0.00     0.207 C 
HETATM   32  O           1     -21.618 -10.235  -2.217  0.00  0.00    -0.646 OA
HETATM   33  O           1     -19.540  -9.643  -2.081  0.00  0.00    -0.646 OA
ENDBRANCH  27  31
ENDBRANCH  25  27
ENDBRANCH  24  25
ENDBRANCH  23  24
ENDBRANCH  22  23
BRANCH  22  34
HETATM   34  C           1     -20.633  -8.003  -5.280  0.00  0.00     0.196 C 
HETATM   35  O           1     -21.530  -8.871  -5.212  0.00  0.00    -0.646 OA
HETATM   36  O           1     -19.462  -8.336  -5.563  0.00  0.00    -0.646 OA
ENDBRANCH  22  34
ENDBRANCH   2  22
TORSDOF 14
ENDMDL
MODEL 3
REMARK VINA RESULT:      -6.7      1.863      2.909
REMARK  14 active torsions:
REMARK  status: ('A' for Active; 'I' for Inactive)
REMARK    1  A    between atoms: C_1  and  C_28 
REMARK    2  A    between atoms: C_1  and  C_16 
REMARK    3  A    between atoms: C_5  and  C_16 
REMARK    4  A    between atoms: C_6  and  C_7 
REMARK    5  A    between atoms: C_6  and  C_26 
REMARK    6  A    between atoms: C_6  and  N_29 
REMARK       I    between atoms: C_7  and  N_8 
REMARK    7  A    between atoms: N_8  and  C_16 
REMARK    8  A    between atoms: C_10  and  C_24 
REMARK    9  A    between atoms: C_10  and  C_11 
REMARK   10  A    between atoms: C_10  and  N_27 
REMARK   11  A    between atoms: C_18  and  C_25 
REMARK   12  A    between atoms: C_18  and  N_19 
REMARK       I    between atoms: N_19  and  C_20 
REMARK       I    between atoms: C_20  and  N_21 
REMARK   13  A    between atoms: C_25  and  C_26 
REMARK   14  A    between atoms: N_27  and  C_28 
ROOT
HETATM    1  C           1     -21.498  -6.407  -4.561  0.00  0.00     0.249 C 
HETATM    2  N           1     -20.898  -5.345  -5.184  0.00  0.00    -0.345 N 
HETATM    3  H           1     -20.335  -4.697  -4.648  0.00  0.00     0.163 HD
HETATM    4  O           1     -22.170  -7.181  -5.201  0.00  0.00    -0.271 OA
ENDROOT
BRANCH   1   5
HETATM    5  C           1     -21.321  -6.609  -3.077  0.00  0.00     0.274 C 
BRANCH   5   6
HETATM    6  C           1     -21.393  -8.095  -2.754  0.00  0.00     0.044 C 
BRANCH   6   7
HETATM    7  C           1     -20.218  -8.478  -1.863  0.00  0.00     0.023 C 
BRANCH   7   8
HETATM    8  C           1     -20.734  -9.185  -0.617  0.00  0.00     0.138 C 
BRANCH   8   9
HETATM    9  N           1     -21.677  -8.307   0.091  0.00  0.00    -0.227 N 
HETATM   10  H           1     -21.355  -7.378   0.457  0.00  0.00     0.177 HD
HETATM   11  C           1     -22.878  -8.673   0.258  0.00  0.00     0.665 C 
HETATM   12  N           1     -23.690  -7.917   0.868  0.00  0.00    -0.235 N 
HETATM   13  N           1     -23.276  -9.824  -0.196  0.00  0.00    -0.235 N 
HETATM   14  H           1     -23.368  -6.987   1.234  0.00  0.00     0.174 HD
HETATM   15  H           1     -24.686  -8.219   1.006  0.00  0.00     0.174 HD
HETATM   16  H           1     -22.606 -10.447  -0.699  0.00  0.00     0.174 HD
HETATM   17  H           1     -24.267 -10.125  -0.057  0.00  0.00     0.174 HD
ENDBRANCH   8   9
ENDBRANCH   7   8
ENDBRANCH   6   7
ENDBRANCH   5   6
BRANCH   5  18
HETATM   18  N           1     -22.407  -5.884  -2.340  0.00  0.00    -0.067 N 
HETATM   19  H           1     -22.520  -6.301  -1.388  0.00  0.00     0.275 HD
HETATM   20  H           1     -23.305  -5.971  -2.867  0.00  0.00     0.275 HD
HETATM   21  H           1     -22.153  -4.874  -2.251  0.00  0.00     0.275 HD
ENDBRANCH   5  18
ENDBRANCH   1   5
BRANCH   2  22
HETATM   22  C           1     -21.068  -5.151  -6.611  0.00  0.00     0.187 C 
BRANCH  22  23
HETATM   23  C           1     -21.379  -3.686  -6.889  0.00  0.00     0.066 C 
BRANCH  23  24
HETATM   24  C           1     -22.540  -3.590  -7.870  0.00  0.00     0.273 C 
BRANCH  24  25
HETATM   25  N           1     -22.186  -4.250  -9.098  0.00  0.00     0.098 N 
HETATM   26  H           1     -22.500  -5.220  -9.065  0.00  0.00     0.317 HD
BRANCH  25  27
HETATM   27  C           1     -22.853  -3.565 -10.171  0.00  0.00     0.323 C 
BRANCH  27  28
HETATM   28  C           1     -22.200  -3.938 -11.495  0.00  0.00     0.021 C 
HETATM   29  C           1     -20.688  -3.996 -11.315  0.00  0.00     0.012 C 
HETATM   30  C           1     -22.547  -2.891 -12.545  0.00  0.00     0.012 C 
ENDBRANCH  27  28
BRANCH  27  31
HETATM   31  C           1     -24.307  -3.966 -10.196  0.00  0.00     0.207 C 
HETATM   32  O           1     -24.623  -5.174 -10.124  0.00  0.00    -0.646 OA
HETATM   33  O           1     -25.195  -3.093 -10.289  0.00  0.00    -0.646 OA
ENDBRANCH  27  31
ENDBRANCH  25  27
ENDBRANCH  24  25
ENDBRANCH  23  24
ENDBRANCH  22  23
BRANCH  22  34
HETATM   34  C           1     -19.800  -5.542  -7.327  0.00  0.00     0.196 C 
HETATM   35  O           1     -19.359  -6.708  -7.229  0.00  0.00    -0.646 OA
HETATM   36  O           1     -19.188  -4.699  -8.020  0.00  0.00    -0.646 OA
ENDBRANCH  22  34
ENDBRANCH   2  22
TORSDOF 14
ENDMDL
MODEL 4
REMARK VINA RESULT:      -6.4      2.584      8.007
REMARK  14 active torsions:
REMARK  status: ('A' for Active; 'I' for Inactive)
REMARK    1  A    between atoms: C_1  and  C_28 
REMARK    2  A    between atoms: C_1  and  C_16 
REMARK    3  A    between atoms: C_5  and  C_16 
REMARK    4  A    between atoms: C_6  and  C_7 
REMARK    5  A    between atoms: C_6  and  C_26 
REMARK    6  A    between atoms: C_6  and  N_29 
REMARK       I    between atoms: C_7  and  N_8 
REMARK    7  A    between atoms: N_8  and  C_16 
REMARK    8  A    between atoms: C_10  and  C_24 
REMARK    9  A    between atoms: C_10  and  C_11 
REMARK   10  A    between atoms: C_10  and  N_27 
REMARK   11  A    between atoms: C_18  and  C_25 
REMARK   12  A    between atoms: C_18  and  N_19 
REMARK       I    between atoms: N_19  and  C_20 
REMARK       I    between atoms: C_20  and  N_21 
REMARK   13  A    between atoms: C_25  and  C_26 
REMARK   14  A    between atoms: N_27  and  C_28 
ROOT
HETATM    1  C           1     -21.489  -6.316  -4.949  0.00  0.00     0.249 C 
HETATM    2  N           1     -20.923  -6.984  -3.896  0.00  0.00    -0.345 N 
HETATM    3  H           1     -19.918  -6.986  -3.781  0.00  0.00     0.163 HD
HETATM    4  O           1     -22.690  -6.314  -5.087  0.00  0.00    -0.271 OA
ENDROOT
BRANCH   1   5
HETATM    5  C           1     -20.615  -5.585  -5.937  0.00  0.00     0.274 C 
BRANCH   5   6
HETATM    6  C           1     -21.402  -4.444  -6.566  0.00  0.00     0.044 C 
BRANCH   6   7
HETATM    7  C           1     -21.847  -4.847  -7.966  0.00  0.00     0.023 C 
BRANCH   7   8
HETATM    8  C           1     -22.429  -3.635  -8.683  0.00  0.00     0.138 C 
BRANCH   8   9
HETATM    9  N           1     -23.898  -3.696  -8.637  0.00  0.00    -0.227 N 
HETATM   10  H           1     -24.386  -3.909  -7.732  0.00  0.00     0.177 HD
HETATM   11  C           1     -24.573  -3.492  -9.688  0.00  0.00     0.665 C 
HETATM   12  N           1     -25.837  -3.544  -9.649  0.00  0.00    -0.235 N 
HETATM   13  N           1     -23.967  -3.228 -10.808  0.00  0.00    -0.235 N 
HETATM   14  H           1     -26.325  -3.756  -8.744  0.00  0.00     0.174 HD
HETATM   15  H           1     -26.397  -3.374 -10.521  0.00  0.00     0.174 HD
HETATM   16  H           1     -22.924  -3.186 -10.841  0.00  0.00     0.174 HD
HETATM   17  H           1     -24.525  -3.060 -11.676  0.00  0.00     0.174 HD
ENDBRANCH   8   9
ENDBRANCH   7   8
ENDBRANCH   6   7
ENDBRANCH   5   6
BRANCH   5  18
HETATM   18  N           1     -20.168  -6.535  -7.008  0.00  0.00    -0.067 N 
HETATM   19  H           1     -19.194  -6.295  -7.301  0.00  0.00     0.275 HD
HETATM   20  H           1     -20.808  -6.459  -7.831  0.00  0.00     0.275 HD
HETATM   21  H           1     -20.191  -7.512  -6.638  0.00  0.00     0.275 HD
ENDBRANCH   5  18
ENDBRANCH   1   5
BRANCH   2  22
HETATM   22  C           1     -21.764  -7.687  -2.947  0.00  0.00     0.187 C 
BRANCH  22  23
HETATM   23  C           1     -21.027  -8.916  -2.430  0.00  0.00     0.066 C 
BRANCH  23  24
HETATM   24  C           1     -19.532  -8.630  -2.385  0.00  0.00     0.273 C 
BRANCH  24  25
HETATM   25  N           1     -18.806  -9.810  -2.770  0.00  0.00     0.098 N 
HETATM   26  H           1     -19.463 -10.571  -2.943  0.00  0.00     0.317 HD
BRANCH  25  27
HETATM   27  C           1     -18.092  -9.508  -3.981  0.00  0.00     0.323 C 
BRANCH  27  28
HETATM   28  C           1     -16.758 -10.242  -3.979  0.00  0.00     0.021 C 
HETATM   29  C           1     -16.058 -10.017  -2.645  0.00  0.00     0.012 C 
HETATM   30  C           1     -15.885  -9.709  -5.108  0.00  0.00     0.012 C 
ENDBRANCH  27  28
BRANCH  27  31
HETATM   31  C           1     -18.909  -9.951  -5.170  0.00  0.00     0.207 C 
HETATM   32  O           1     -18.935 -11.158  -5.495  0.00  0.00    -0.646 OA
HETATM   33  O           1     -19.559  -9.111  -5.829  0.00  0.00    -0.646 OA
ENDBRANCH  27  31
ENDBRANCH  25  27
ENDBRANCH  24  25
ENDBRANCH  23  24
ENDBRANCH  22  23
BRANCH  22  34
HETATM   34  C           1     -22.091  -6.773  -1.792  0.00  0.00     0.196 C 
HETATM   35  O           1     -22.033  -5.533  -1.939  0.00  0.00    -0.646 OA
HETATM   36  O           1     -22.423  -7.256  -0.687  0.00  0.00    -0.646 OA
ENDBRANCH  22  34
ENDBRANCH   2  22
TORSDOF 14
ENDMDL
MODEL 5
REMARK VINA RESULT:      -6.4      3.033      8.850
REMARK  14 active torsions:
REMARK  status: ('A' for Active; 'I' for Inactive)
REMARK    1  A    between atoms: C_1  and  C_28 
REMARK    2  A    between atoms: C_1  and  C_16 
REMARK    3  A    between atoms: C_5  and  C_16 
REMARK    4  A    between atoms: C_6  and  C_7 
REMARK    5  A    between atoms: C_6  and  C_26 
REMARK    6  A    between atoms: C_6  and  N_29 
REMARK       I    between atoms: C_7  and  N_8 
REMARK    7  A    between atoms: N_8  and  C_16 
REMARK    8  A    between atoms: C_10  and  C_24 
REMARK    9  A    between atoms: C_10  and  C_11 
REMARK   10  A    between atoms: C_10  and  N_27 
REMARK   11  A    between atoms: C_18  and  C_25 
REMARK   12  A    between atoms: C_18  and  N_19 
REMARK       I    between atoms: N_19  and  C_20 
REMARK       I    between atoms: C_20  and  N_21 
REMARK   13  A    between atoms: C_25  and  C_26 
REMARK   14  A    between atoms: N_27  and  C_28 
ROOT
HETATM    1  C           1     -21.446  -5.825  -5.651  0.00  0.00     0.249 C 
HETATM    2  N           1     -20.818  -6.681  -4.785  0.00  0.00    -0.345 N 
HETATM    3  H           1     -19.811  -6.782  -4.816  0.00  0.00     0.163 HD
HETATM    4  O           1     -22.648  -5.704  -5.614  0.00  0.00    -0.271 OA
ENDROOT
BRANCH   1   5
HETATM    5  C           1     -20.638  -5.035  -6.650  0.00  0.00     0.274 C 
BRANCH   5   6
HETATM    6  C           1     -21.558  -4.096  -7.418  0.00  0.00     0.044 C 
BRANCH   6   7
HETATM    7  C           1     -21.249  -4.188  -8.907  0.00  0.00     0.023 C 
BRANCH   7   8
HETATM    8  C           1     -22.479  -3.784  -9.707  0.00  0.00     0.138 C 
BRANCH   8   9
HETATM    9  N           1     -22.063  -3.250 -11.013  0.00  0.00    -0.227 N 
HETATM   10  H           1     -21.414  -2.426 -11.060  0.00  0.00     0.177 HD
HETATM   11  C           1     -22.488  -3.785 -12.079  0.00  0.00     0.665 C 
HETATM   12  N           1     -22.130  -3.326 -13.203  0.00  0.00    -0.235 N 
HETATM   13  N           1     -23.291  -4.805 -12.020  0.00  0.00    -0.235 N 
HETATM   14  H           1     -21.480  -2.503 -13.251  0.00  0.00     0.174 HD
HETATM   15  H           1     -22.481  -3.769 -14.088  0.00  0.00     0.174 HD
HETATM   16  H           1     -23.587  -5.184 -11.092  0.00  0.00     0.174 HD
HETATM   17  H           1     -23.642  -5.246 -12.900  0.00  0.00     0.174 HD
ENDBRANCH   8   9
ENDBRANCH   7   8
ENDBRANCH   6   7
ENDBRANCH   5   6
BRANCH   5  18
HETATM   18  N           1     -19.971  -5.976  -7.609  0.00  0.00    -0.067 N 
HETATM   19  H           1     -19.587  -5.435  -8.416  0.00  0.00     0.275 HD
HETATM   20  H           1     -20.668  -6.673  -7.957  0.00  0.00     0.275 HD
HETATM   21  H           1     -19.193  -6.476  -7.121  0.00  0.00     0.275 HD
ENDBRANCH   5  18
ENDBRANCH   1   5
BRANCH   2  22
HETATM   22  C           1     -21.595  -7.440  -3.825  0.00  0.00     0.187 C 
BRANCH  22  23
HETATM   23  C           1     -20.946  -8.801  -3.611  0.00  0.00     0.066 C 
BRANCH  23  24
HETATM   24  C           1     -21.945  -9.743  -2.953  0.00  0.00     0.273 C 
BRANCH  24  25
HETATM   25  N           1     -21.554  -9.981  -1.589  0.00  0.00     0.098 N 
HETATM   26  H           1     -20.869  -9.279  -1.306  0.00  0.00     0.317 HD
BRANCH  25  27
HETATM   27  C           1     -22.730  -9.863  -0.771  0.00  0.00     0.323 C 
BRANCH  27  28
HETATM   28  C           1     -23.042 -11.211  -0.136  0.00  0.00     0.021 C 
HETATM   29  C           1     -21.790 -12.080  -0.149  0.00  0.00     0.012 C 
HETATM   30  C           1     -24.147 -11.900  -0.925  0.00  0.00     0.012 C 
ENDBRANCH  27  28
BRANCH  27  31
HETATM   31  C           1     -22.487  -8.841   0.312  0.00  0.00     0.207 C 
HETATM   32  O           1     -23.394  -8.040   0.630  0.00  0.00    -0.646 OA
HETATM   33  O           1     -21.381  -8.793   0.891  0.00  0.00    -0.646 OA
ENDBRANCH  27  31
ENDBRANCH  25  27
ENDBRANCH  24  25
ENDBRANCH  23  24
ENDBRANCH  22  23
BRANCH  22  34
HETATM   34  C           1     -21.643  -6.694  -2.515  0.00  0.00     0.196 C 
HETATM   35  O           1     -22.609  -5.944  -2.256  0.00  0.00    -0.646 OA
HETATM   36  O           1     -20.716  -6.826  -1.685  0.00  0.00    -0.646 OA
ENDBRANCH  22  34
ENDBRANCH   2  22
TORSDOF 14
ENDMDL
MODEL 6
REMARK VINA RESULT:      -6.2      2.846      8.415
REMARK  14 active torsions:
REMARK  status: ('A' for Active; 'I' for Inactive)
REMARK    1  A    between atoms: C_1  and  C_28 
REMARK    2  A    between atoms: C_1  and  C_16 
REMARK    3  A    between atoms: C_5  and  C_16 
REMARK    4  A    between atoms: C_6  and  C_7 
REMARK    5  A    between atoms: C_6  and  C_26 
REMARK    6  A    between atoms: C_6  and  N_29 
REMARK       I    between atoms: C_7  and  N_8 
REMARK    7  A    between atoms: N_8  and  C_16 
REMARK    8  A    between atoms: C_10  and  C_24 
REMARK    9  A    between atoms: C_10  and  C_11 
REMARK   10  A    between atoms: C_10  and  N_27 
REMARK   11  A    between atoms: C_18  and  C_25 
REMARK   12  A    between atoms: C_18  and  N_19 
REMARK       I    between atoms: N_19  and  C_20 
REMARK       I    between atoms: C_20  and  N_21 
REMARK   13  A    between atoms: C_25  and  C_26 
REMARK   14  A    between atoms: N_27  and  C_28 
ROOT
HETATM    1  C           1     -20.543  -7.379  -5.409  0.00  0.00     0.249 C 
HETATM    2  N           1     -20.763  -8.329  -4.447  0.00  0.00    -0.345 N 
HETATM    3  H           1     -21.479  -8.183  -3.748  0.00  0.00     0.163 HD
HETATM    4  O           1     -19.688  -7.552  -6.245  0.00  0.00    -0.271 OA
ENDROOT
BRANCH   1   5
HETATM    5  C           1     -21.368  -6.116  -5.425  0.00  0.00     0.274 C 
BRANCH   5   6
HETATM    6  C           1     -20.477  -4.930  -5.766  0.00  0.00     0.044 C 
BRANCH   6   7
HETATM    7  C           1     -21.205  -4.011  -6.739  0.00  0.00     0.023 C 
BRANCH   7   8
HETATM    8  C           1     -22.107  -4.840  -7.642  0.00  0.00     0.138 C 
BRANCH   8   9
HETATM    9  N           1     -23.381  -4.135  -7.845  0.00  0.00    -0.227 N 
HETATM   10  H           1     -23.993  -3.908  -7.022  0.00  0.00     0.177 HD
HETATM   11  C           1     -23.741  -3.801  -9.012  0.00  0.00     0.665 C 
HETATM   12  N           1     -24.838  -3.194  -9.187  0.00  0.00    -0.235 N 
HETATM   13  N           1     -22.984  -4.082 -10.031  0.00  0.00    -0.235 N 
HETATM   14  H           1     -25.449  -2.967  -8.364  0.00  0.00     0.174 HD
HETATM   15  H           1     -25.137  -2.917 -10.155  0.00  0.00     0.174 HD
HETATM   16  H           1     -22.079  -4.583  -9.887  0.00  0.00     0.174 HD
HETATM   17  H           1     -23.282  -3.807 -10.994  0.00  0.00     0.174 HD
ENDBRANCH   8   9
ENDBRANCH   7   8
ENDBRANCH   6   7
ENDBRANCH   5   6
BRANCH   5  18
HETATM   18  N           1     -21.986  -5.905  -4.075  0.00  0.00    -0.067 N 
HETATM   19  H           1     -22.044  -4.881  -3.874  0.00  0.00     0.275 HD
HETATM   20  H           1     -21.400  -6.371  -3.346  0.00  0.00     0.275 HD
HETATM   21  H           1     -22.947  -6.318  -4.064  0.00  0.00     0.275 HD
ENDBRANCH   5  18
ENDBRANCH   1   5
BRANCH   2  22
HETATM   22  C           1     -19.969  -9.542  -4.433  0.00  0.00     0.187 C 
BRANCH  22  23
HETATM   23  C           1     -19.650  -9.921  -2.992  0.00  0.00     0.066 C 
BRANCH  23  24
HETATM   24  C           1     -20.386  -8.982  -2.045  0.00  0.00     0.273 C 
BRANCH  24  25
HETATM   25  N           1     -20.889  -9.729  -0.924  0.00  0.00     0.098 N 
HETATM   26  H           1     -20.369  -9.473  -0.084  0.00  0.00     0.317 HD
BRANCH  25  27
HETATM   27  C           1     -22.274  -9.383  -0.755  0.00  0.00     0.323 C 
BRANCH  27  28
HETATM   28  C           1     -23.044 -10.602  -0.264  0.00  0.00     0.021 C 
HETATM   29  C           1     -22.070 -11.613   0.328  0.00  0.00     0.012 C 
HETATM   30  C           1     -23.788 -11.236  -1.433  0.00  0.00     0.012 C 
ENDBRANCH  27  28
BRANCH  27  31
HETATM   31  C           1     -22.395  -8.271   0.257  0.00  0.00     0.207 C 
HETATM   32  O           1     -21.576  -8.192   1.199  0.00  0.00    -0.646 OA
HETATM   33  O           1     -23.313  -7.429   0.155  0.00  0.00    -0.646 OA
ENDBRANCH  27  31
ENDBRANCH  25  27
ENDBRANCH  24  25
ENDBRANCH  23  24
ENDBRANCH  22  23
BRANCH  22  34
HETATM   34  C           1     -20.744 -10.658  -5.088  0.00  0.00     0.196 C 
HETATM   35  O           1     -21.573 -11.318  -4.424  0.00  0.00    -0.646 OA
HETATM   36  O           1     -20.559 -10.923  -6.296  0.00  0.00    -0.646 OA
ENDBRANCH  22  34
ENDBRANCH   2  22
TORSDOF 14
ENDMDL
MODEL 7
REMARK VINA RESULT:      -6.1      3.115      8.969
REMARK  14 active torsions:
REMARK  status: ('A' for Active; 'I' for Inactive)
REMARK    1  A    between atoms: C_1  and  C_28 
REMARK    2  A    between atoms: C_1  and  C_16 
REMARK    3  A    between atoms: C_5  and  C_16 
REMARK    4  A    between atoms: C_6  and  C_7 
REMARK    5  A    between atoms: C_6  and  C_26 
REMARK    6  A    between atoms: C_6  and  N_29 
REMARK       I    between atoms: C_7  and  N_8 
REMARK    7  A    between atoms: N_8  and  C_16 
REMARK    8  A    between atoms: C_10  and  C_24 
REMARK    9  A    between atoms: C_10  and  C_11 
REMARK   10  A    between atoms: C_10  and  N_27 
REMARK   11  A    between atoms: C_18  and  C_25 
REMARK   12  A    between atoms: C_18  and  N_19 
REMARK       I    between atoms: N_19  and  C_20 
REMARK       I    between atoms: C_20  and  N_21 
REMARK   13  A    between atoms: C_25  and  C_26 
REMARK   14  A    between atoms: N_27  and  C_28 
ROOT
HETATM    1  C           1     -21.435  -6.728  -4.751  0.00  0.00     0.249 C 
HETATM    2  N           1     -20.940  -6.696  -3.474  0.00  0.00    -0.345 N 
HETATM    3  H           1     -20.198  -6.051  -3.236  0.00  0.00     0.163 HD
HETATM    4  O           1     -22.322  -7.499  -5.035  0.00  0.00    -0.271 OA
ENDROOT
BRANCH   1   5
HETATM    5  C           1     -20.874  -5.803  -5.802  0.00  0.00     0.274 C 
BRANCH   5   6
HETATM    6  C           1     -22.017  -5.124  -6.544  0.00  0.00     0.044 C 
BRANCH   6   7
HETATM    7  C           1     -21.478  -3.930  -7.322  0.00  0.00     0.023 C 
BRANCH   7   8
HETATM    8  C           1     -22.018  -3.965  -8.745  0.00  0.00     0.138 C 
BRANCH   8   9
HETATM    9  N           1     -23.423  -3.531  -8.749  0.00  0.00    -0.227 N 
HETATM   10  H           1     -23.759  -2.836  -8.037  0.00  0.00     0.177 HD
HETATM   11  C           1     -24.227  -3.996  -9.610  0.00  0.00     0.665 C 
HETATM   12  N           1     -25.436  -3.623  -9.613  0.00  0.00    -0.235 N 
HETATM   13  N           1     -23.810  -4.857 -10.490  0.00  0.00    -0.235 N 
HETATM   14  H           1     -25.772  -2.927  -8.902  0.00  0.00     0.174 HD
HETATM   15  H           1     -26.103  -4.008 -10.327  0.00  0.00     0.174 HD
HETATM   16  H           1     -22.812  -5.165 -10.487  0.00  0.00     0.174 HD
HETATM   17  H           1     -24.473  -5.241 -11.200  0.00  0.00     0.174 HD
ENDBRANCH   8   9
ENDBRANCH   7   8
ENDBRANCH   6   7
ENDBRANCH   5   6
BRANCH   5  18
HETATM   18  N           1     -20.046  -6.591  -6.771  0.00  0.00    -0.067 N 
HETATM   19  H           1     -19.972  -7.580  -6.442  0.00  0.00     0.275 HD
HETATM   20  H           1     -19.090  -6.173  -6.835  0.00  0.00     0.275 HD
HETATM   21  H           1     -20.499  -6.570  -7.714  0.00  0.00     0.275 HD
ENDBRANCH   5  18
ENDBRANCH   1   5
BRANCH   2  22
HETATM   22  C           1     -21.479  -7.586  -2.465  0.00  0.00     0.187 C 
BRANCH  22  23
HETATM   23  C           1     -20.341  -8.359  -1.810  0.00  0.00     0.066 C 
BRANCH  23  24
HETATM   24  C           1     -20.533  -9.849  -2.055  0.00  0.00     0.273 C 
BRANCH  24  25
HETATM   25  N           1     -21.896 -10.211  -1.773  0.00  0.00     0.098 N 
HETATM   26  H           1     -22.414 -10.289  -2.648  0.00  0.00     0.317 HD
BRANCH  25  27
HETATM   27  C           1     -21.881 -11.485  -1.108  0.00  0.00     0.323 C 
BRANCH  27  28
HETATM   28  C           1     -23.262 -11.773  -0.534  0.00  0.00     0.021 C 
HETATM   29  C           1     -23.914 -10.465  -0.103  0.00  0.00     0.012 C 
HETATM   30  C           1     -23.128 -12.696   0.670  0.00  0.00     0.012 C 
ENDBRANCH  27  28
BRANCH  27  31
HETATM   31  C           1     -21.513 -12.564  -2.097  0.00  0.00     0.207 C 
HETATM   32  O           1     -22.225 -12.756  -3.107  0.00  0.00    -0.646 OA
HETATM   33  O           1     -20.496 -13.265  -1.907  0.00  0.00    -0.646 OA
ENDBRANCH  27  31
ENDBRANCH  25  27
ENDBRANCH  24  25
ENDBRANCH  23  24
ENDBRANCH  22  23
BRANCH  22  34
HETATM   34  C           1     -22.207  -6.778  -1.419  0.00  0.00     0.196 C 
HETATM   35  O           1     -22.607  -7.328  -0.370  0.00  0.00    -0.646 OA
HETATM   36  O           1     -22.409  -5.558  -1.601  0.00  0.00    -0.646 OA
ENDBRANCH  22  34
ENDBRANCH   2  22
TORSDOF 14
ENDMDL
MODEL 8
REMARK VINA RESULT:      -6.0      2.616      8.734
REMARK  14 active torsions:
REMARK  status: ('A' for Active; 'I' for Inactive)
REMARK    1  A    between atoms: C_1  and  C_28 
REMARK    2  A    between atoms: C_1  and  C_16 
REMARK    3  A    between atoms: C_5  and  C_16 
REMARK    4  A    between atoms: C_6  and  C_7 
REMARK    5  A    between atoms: C_6  and  C_26 
REMARK    6  A    between atoms: C_6  and  N_29 
REMARK       I    between atoms: C_7  and  N_8 
REMARK    7  A    between atoms: N_8  and  C_16 
REMARK    8  A    between atoms: C_10  and  C_24 
REMARK    9  A    between atoms: C_10  and  C_11 
REMARK   10  A    between atoms: C_10  and  N_27 
REMARK   11  A    between atoms: C_18  and  C_25 
REMARK   12  A    between atoms: C_18  and  N_19 
REMARK       I    between atoms: N_19  and  C_20 
REMARK       I    between atoms: C_20  and  N_21 
REMARK   13  A    between atoms: C_25  and  C_26 
REMARK   14  A    between atoms: N_27  and  C_28 
ROOT
HETATM    1  C           1     -21.997  -4.412  -9.090  0.00  0.00     0.249 C 
HETATM    2  N           1     -21.868  -5.412  -8.163  0.00  0.00    -0.345 N 
HETATM    3  H           1     -22.202  -6.344  -8.375  0.00  0.00     0.163 HD
HETATM    4  O           1     -21.598  -3.300  -8.837  0.00  0.00    -0.271 OA
ENDROOT
BRANCH   1   5
HETATM    5  C           1     -22.638  -4.698 -10.425  0.00  0.00     0.274 C 
BRANCH   5   6
HETATM    6  C           1     -22.704  -3.416 -11.243  0.00  0.00     0.044 C 
BRANCH   6   7
HETATM    7  C           1     -24.150  -2.945 -11.332  0.00  0.00     0.023 C 
BRANCH   7   8
HETATM    8  C           1     -24.585  -2.914 -12.791  0.00  0.00     0.138 C 
BRANCH   8   9
HETATM    9  N           1     -23.490  -3.405 -13.641  0.00  0.00    -0.227 N 
HETATM   10  H           1     -23.033  -4.326 -13.427  0.00  0.00     0.177 HD
HETATM   11  C           1     -23.100  -2.718 -14.630  0.00  0.00     0.665 C 
HETATM   12  N           1     -22.158  -3.140 -15.362  0.00  0.00    -0.235 N 
HETATM   13  N           1     -23.668  -1.578 -14.894  0.00  0.00    -0.235 N 
HETATM   14  H           1     -21.700  -4.061 -15.149  0.00  0.00     0.174 HD
HETATM   15  H           1     -21.834  -2.571 -16.183  0.00  0.00     0.174 HD
HETATM   16  H           1     -24.445  -1.229 -14.290  0.00  0.00     0.174 HD
HETATM   17  H           1     -23.345  -1.011 -15.710  0.00  0.00     0.174 HD
ENDBRANCH   8   9
ENDBRANCH   7   8
ENDBRANCH   6   7
ENDBRANCH   5   6
BRANCH   5  18
HETATM   18  N           1     -24.025  -5.227 -10.211  0.00  0.00    -0.067 N 
HETATM   19  H           1     -24.677  -4.430 -10.030  0.00  0.00     0.275 HD
HETATM   20  H           1     -24.030  -5.873  -9.390  0.00  0.00     0.275 HD
HETATM   21  H           1     -24.336  -5.745 -11.064  0.00  0.00     0.275 HD
ENDBRANCH   5  18
ENDBRANCH   1   5
BRANCH   2  22
HETATM   22  C           1     -21.252  -5.136  -6.880  0.00  0.00     0.187 C 
BRANCH  22  23
HETATM   23  C           1     -21.972  -5.924  -5.793  0.00  0.00     0.066 C 
BRANCH  23  24
HETATM   24  C           1     -21.213  -5.788  -4.480  0.00  0.00     0.273 C 
BRANCH  24  25
HETATM   25  N           1     -21.956  -6.428  -3.427  0.00  0.00     0.098 N 
HETATM   26  H           1     -22.763  -6.909  -3.826  0.00  0.00     0.317 HD
BRANCH  25  27
HETATM   27  C           1     -21.088  -7.385  -2.799  0.00  0.00     0.323 C 
BRANCH  27  28
HETATM   28  C           1     -21.785  -7.980  -1.583  0.00  0.00     0.021 C 
HETATM   29  C           1     -22.457  -6.866  -0.789  0.00  0.00     0.012 C 
HETATM   30  C           1     -20.759  -8.684  -0.704  0.00  0.00     0.012 C 
ENDBRANCH  27  28
BRANCH  27  31
HETATM   31  C           1     -20.759  -8.484  -3.778  0.00  0.00     0.207 C 
HETATM   32  O           1     -19.581  -8.644  -4.167  0.00  0.00    -0.646 OA
HETATM   33  O           1     -21.664  -9.235  -4.202  0.00  0.00    -0.646 OA
ENDBRANCH  27  31
ENDBRANCH  25  27
ENDBRANCH  24  25
ENDBRANCH  23  24
ENDBRANCH  22  23
BRANCH  22  34
HETATM   34  C           1     -19.801  -5.545  -6.920  0.00  0.00     0.196 C 
HETATM   35  O           1     -18.905  -4.674  -6.920  0.00  0.00    -0.646 OA
HETATM   36  O           1     -19.493  -6.757  -6.953  0.00  0.00    -0.646 OA
ENDBRANCH  22  34
ENDBRANCH   2  22
TORSDOF 14
ENDMDL
MODEL 9
REMARK VINA RESULT:      -6.0      2.927      8.990
REMARK  14 active torsions:
REMARK  status: ('A' for Active; 'I' for Inactive)
REMARK    1  A    between atoms: C_1  and  C_28 
REMARK    2  A    between atoms: C_1  and  C_16 
REMARK    3  A    between atoms: C_5  and  C_16 
REMARK    4  A    between atoms: C_6  and  C_7 
REMARK    5  A    between atoms: C_6  and  C_26 
REMARK    6  A    between atoms: C_6  and  N_29 
REMARK       I    between atoms: C_7  and  N_8 
REMARK    7  A    between atoms: N_8  and  C_16 
REMARK    8  A    between atoms: C_10  and  C_24 
REMARK    9  A    between atoms: C_10  and  C_11 
REMARK   10  A    between atoms: C_10  and  N_27 
REMARK   11  A    between atoms: C_18  and  C_25 
REMARK   12  A    between atoms: C_18  and  N_19 
REMARK       I    between atoms: N_19  and  C_20 
REMARK       I    between atoms: C_20  and  N_21 
REMARK   13  A    between atoms: C_25  and  C_26 
REMARK   14  A    between atoms: N_27  and  C_28 
ROOT
HETATM    1  C           1     -21.729  -5.664  -5.469  0.00  0.00     0.249 C 
HETATM    2  N           1     -20.964  -6.202  -4.469  0.00  0.00    -0.345 N 
HETATM    3  H           1     -19.978  -5.983  -4.414  0.00  0.00     0.163 HD
HETATM    4  O           1     -22.907  -5.925  -5.535  0.00  0.00    -0.271 OA
ENDROOT
BRANCH   1   5
HETATM    5  C           1     -21.101  -4.746  -6.489  0.00  0.00     0.274 C 
BRANCH   5   6
HETATM    6  C           1     -21.510  -5.186  -7.888  0.00  0.00     0.044 C 
BRANCH   6   7
HETATM    7  C           1     -21.715  -3.958  -8.766  0.00  0.00     0.023 C 
BRANCH   7   8
HETATM    8  C           1     -22.007  -4.397 -10.194  0.00  0.00     0.138 C 
BRANCH   8   9
HETATM    9  N           1     -22.902  -3.422 -10.835  0.00  0.00    -0.227 N 
HETATM   10  H           1     -23.692  -2.997 -10.289  0.00  0.00     0.177 HD
HETATM   11  C           1     -22.719  -3.095 -12.045  0.00  0.00     0.665 C 
HETATM   12  N           1     -23.489  -2.255 -12.596  0.00  0.00    -0.235 N 
HETATM   13  N           1     -21.740  -3.621 -12.719  0.00  0.00    -0.235 N 
HETATM   14  H           1     -24.279  -1.830 -12.050  0.00  0.00     0.174 HD
HETATM   15  H           1     -23.338  -1.983 -13.599  0.00  0.00     0.174 HD
HETATM   16  H           1     -21.105  -4.313 -12.264  0.00  0.00     0.174 HD
HETATM   17  H           1     -21.590  -3.350 -13.717  0.00  0.00     0.174 HD
ENDBRANCH   8   9
ENDBRANCH   7   8
ENDBRANCH   6   7
ENDBRANCH   5   6
BRANCH   5  18
HETATM   18  N           1     -19.608  -4.805  -6.362  0.00  0.00    -0.067 N 
HETATM   19  H           1     -19.224  -3.834  -6.324  0.00  0.00     0.275 HD
HETATM   20  H           1     -19.207  -5.307  -7.186  0.00  0.00     0.275 HD
HETATM   21  H           1     -19.353  -5.316  -5.486  0.00  0.00     0.275 HD
ENDBRANCH   5  18
ENDBRANCH   1   5
BRANCH   2  22
HETATM   22  C           1     -21.568  -7.084  -3.489  0.00  0.00     0.187 C 
BRANCH  22  23
HETATM   23  C           1     -20.563  -8.153  -3.082  0.00  0.00     0.066 C 
BRANCH  23  24
HETATM   24  C           1     -21.180  -9.531  -3.276  0.00  0.00     0.273 C 
BRANCH  24  25
HETATM   25  N           1     -21.929  -9.891  -2.102  0.00  0.00     0.098 N 
HETATM   26  H           1     -22.397 -10.784  -2.259  0.00  0.00     0.317 HD
BRANCH  25  27
HETATM   27  C           1     -21.001 -10.020  -1.013  0.00  0.00     0.323 C 
BRANCH  27  28
HETATM   28  C           1     -21.749  -9.900   0.308  0.00  0.00     0.021 C 
HETATM   29  C           1     -23.247  -9.835   0.038  0.00  0.00     0.012 C 
HETATM   30  C           1     -21.307  -8.633   1.028  0.00  0.00     0.012 C 
ENDBRANCH  27  28
BRANCH  27  31
HETATM   31  C           1     -20.323 -11.365  -1.087  0.00  0.00     0.207 C 
HETATM   32  O           1     -19.113 -11.473  -0.791  0.00  0.00    -0.646 OA
HETATM   33  O           1     -20.971 -12.373  -1.443  0.00  0.00    -0.646 OA
ENDBRANCH  27  31
ENDBRANCH  25  27
ENDBRANCH  24  25
ENDBRANCH  23  24
ENDBRANCH  22  23
BRANCH  22  34
HETATM   34  C           1     -21.974  -6.285  -2.276  0.00  0.00     0.196 C 
HETATM   35  O           1     -21.564  -5.112  -2.133  0.00  0.00    -0.646 OA
HETATM   36  O           1     -22.721  -6.795  -1.412  0.00  0.00    -0.646 OA
ENDBRANCH  22  34
ENDBRANCH   2  22
TORSDOF 14
ENDMDL
