MODEL 1
REMARK VINA RESULT:      -8.7      0.000      0.000
REMARK  10 active torsions:
REMARK  status: ('A' for Active; 'I' for Inactive)
REMARK    1  A    between atoms: C_2  and  C_27 
REMARK    2  A    between atoms: C_2  and  C_21 
REMARK    3  A    between atoms: C_6  and  C_7 
REMARK    4  A    between atoms: C_7  and  C_8 
REMARK    5  A    between atoms: C_8  and  C_9 
REMARK    6  A    between atoms: C_8  and  N_12 
REMARK       I    between atoms: C_9  and  N_13 
REMARK    7  A    between atoms: N_13  and  C_20 
REMARK       I    between atoms: N_14  and  C_29 
REMARK    8  A    between atoms: C_20  and  C_21 
REMARK    9  A    between atoms: C_20  and  C_30 
REMARK       I    between atoms: N_22  and  C_29 
REMARK   10  A    between atoms: N_22  and  C_27 
ROOT
HETATM    1  H           1     -22.294  -5.843  -9.142  0.00  0.00     0.163 HD
HETATM    2  C           1     -21.628  -4.629  -7.604  0.00  0.00     0.249 C 
HETATM    3  O           1     -21.522  -3.489  -7.217  0.00  0.00    -0.271 OA
HETATM    4  N           1     -22.205  -4.888  -8.818  0.00  0.00    -0.345 N 
ENDROOT
BRANCH   4   5
HETATM    5  C           1     -22.690  -3.796  -9.639  0.00  0.00     0.185 C 
BRANCH   5   6
HETATM    6  C           1     -22.125  -3.928 -11.047  0.00  0.00     0.038 C 
BRANCH   6   7
HETATM    7  C           1     -22.394  -2.647 -11.826  0.00  0.00     0.023 C 
BRANCH   7   8
HETATM    8  C           1     -23.109  -2.985 -13.128  0.00  0.00     0.138 C 
BRANCH   8   9
HETATM    9  N           1     -23.931  -1.840 -13.546  0.00  0.00    -0.227 N 
HETATM   10  H           1     -24.660  -1.453 -12.898  0.00  0.00     0.177 HD
HETATM   11  C           1     -23.760  -1.322 -14.689  0.00  0.00     0.665 C 
HETATM   12  N           1     -24.488  -0.310 -15.059  0.00  0.00    -0.235 N 
HETATM   13  N           1     -22.882  -1.790 -15.470  0.00  0.00    -0.235 N 
HETATM   14  H           1     -25.213   0.076 -14.413  0.00  0.00     0.174 HD
HETATM   15  H           1     -24.347   0.118 -16.002  0.00  0.00     0.174 HD
HETATM   16  H           1     -22.740  -1.360 -16.419  0.00  0.00     0.174 HD
HETATM   17  H           1     -22.295  -2.607 -15.172  0.00  0.00     0.174 HD
ENDBRANCH   8   9
ENDBRANCH   7   8
ENDBRANCH   6   7
ENDBRANCH   5   6
BRANCH   5  18
HETATM   18  C           1     -24.197  -3.841  -9.697  0.00  0.00     0.196 C 
HETATM   19  O           1     -24.780  -4.912  -9.977  0.00  0.00    -0.646 OA
HETATM   20  O           1     -24.863  -2.810  -9.463  0.00  0.00    -0.646 OA
ENDBRANCH   5  18
ENDBRANCH   4   5
BRANCH   2  21
HETATM   21  C           1     -21.125  -5.765  -6.749  0.00  0.00     0.278 C 
BRANCH  21  22
HETATM   22  C           1     -20.826  -5.253  -5.347  0.00  0.00     0.081 C 
BRANCH  22  23
HETATM   23  C           1     -21.128  -6.327  -4.347  0.00  0.00    -0.056 A 
HETATM   24  C           1     -21.177  -7.660  -4.751  0.00  0.00     0.007 A 
HETATM   25  C           1     -21.459  -8.661  -3.821  0.00  0.00     0.001 A 
HETATM   26  C           1     -21.690  -8.327  -2.487  0.00  0.00     0.000 A 
HETATM   27  C           1     -21.641  -6.992  -2.083  0.00  0.00     0.001 A 
HETATM   28  C           1     -21.360  -5.992  -3.013  0.00  0.00     0.007 A 
ENDBRANCH  22  23
ENDBRANCH  21  22
BRANCH  21  29
HETATM   29  N           1     -19.872  -6.327  -7.354  0.00  0.00    -0.066 N 
HETATM   30  H           1     -19.604  -7.202  -6.850  0.00  0.00     0.275 HD
HETATM   31  H           1     -20.038  -6.543  -8.363  0.00  0.00     0.275 HD
HETATM   32  H           1     -19.101  -5.626  -7.269  0.00  0.00     0.275 HD
ENDBRANCH  21  29
ENDBRANCH   2  21
TORSDOF 10
ENDMDL
MODEL 2
REMARK VINA RESULT:      -8.1     12.103     14.286
REMARK  10 active torsions:
REMARK  status: ('A' for Active; 'I' for Inactive)
REMARK    1  A    between atoms: C_2  and  C_27 
REMARK    2  A    between atoms: C_2  and  C_21 
REMARK    3  A    between atoms: C_6  and  C_7 
REMARK    4  A    between atoms: C_7  and  C_8 
REMARK    5  A    between atoms: C_8  and  C_9 
REMARK    6  A    between atoms: C_8  and  N_12 
REMARK       I    between atoms: C_9  and  N_13 
REMARK    7  A    between atoms: N_13  and  C_20 
REMARK       I    between atoms: N_14  and  C_29 
REMARK    8  A    between atoms: C_20  and  C_21 
REMARK    9  A    between atoms: C_20  and  C_30 
REMARK       I    between atoms: N_22  and  C_29 
REMARK   10  A    between atoms: N_22  and  C_27 
ROOT
HETATM    1  H           1     -32.490  -3.450 -14.277  0.00  0.00     0.163 HD
HETATM    2  C           1     -33.924  -4.524 -15.312  0.00  0.00     0.249 C 
HETATM    3  O           1     -35.008  -5.054 -15.241  0.00  0.00    -0.271 OA
HETATM    4  N           1     -33.397  -3.893 -14.217  0.00  0.00    -0.345 N 
ENDROOT
BRANCH   4   5
HETATM    5  C           1     -34.141  -3.860 -12.972  0.00  0.00     0.185 C 
BRANCH   5   6
HETATM    6  C           1     -33.170  -3.886 -11.800  0.00  0.00     0.038 C 
BRANCH   6   7
HETATM    7  C           1     -33.821  -4.587 -10.615  0.00  0.00     0.023 C 
BRANCH   7   8
HETATM    8  C           1     -34.637  -5.774 -11.112  0.00  0.00     0.138 C 
BRANCH   8   9
HETATM    9  N           1     -33.839  -7.002 -10.988  0.00  0.00    -0.227 N 
HETATM   10  H           1     -32.966  -7.122 -11.559  0.00  0.00     0.177 HD
HETATM   11  C           1     -34.205  -7.917 -10.192  0.00  0.00     0.665 C 
HETATM   12  N           1     -33.499  -9.003 -10.083  0.00  0.00    -0.235 N 
HETATM   13  N           1     -35.257  -7.773  -9.504  0.00  0.00    -0.235 N 
HETATM   14  H           1     -32.630  -9.122 -10.651  0.00  0.00     0.174 HD
HETATM   15  H           1     -33.801  -9.758  -9.426  0.00  0.00     0.174 HD
HETATM   16  H           1     -35.561  -8.531  -8.844  0.00  0.00     0.174 HD
HETATM   17  H           1     -35.827  -6.896  -9.593  0.00  0.00     0.174 HD
ENDBRANCH   8   9
ENDBRANCH   7   8
ENDBRANCH   6   7
ENDBRANCH   5   6
BRANCH   5  18
HETATM   18  C           1     -34.964  -2.598 -12.913  0.00  0.00     0.196 C 
HETATM   19  O           1     -35.780  -2.427 -11.980  0.00  0.00    -0.646 OA
HETATM   20  O           1     -34.831  -1.722 -13.794  0.00  0.00    -0.646 OA
ENDBRANCH   5  18
ENDBRANCH   4   5
BRANCH   2  21
HETATM   21  C           1     -33.152  -4.558 -16.608  0.00  0.00     0.278 C 
BRANCH  21  22
HETATM   22  C           1     -31.660  -4.480 -16.314  0.00  0.00     0.081 C 
BRANCH  22  23
HETATM   23  C           1     -30.978  -5.692 -16.869  0.00  0.00    -0.056 A 
HETATM   24  C           1     -31.632  -6.494 -17.804  0.00  0.00     0.007 A 
HETATM   25  C           1     -30.997  -7.623 -18.321  0.00  0.00     0.001 A 
HETATM   26  C           1     -29.707  -7.950 -17.902  0.00  0.00     0.000 A 
HETATM   27  C           1     -29.052  -7.147 -16.967  0.00  0.00     0.001 A 
HETATM   28  C           1     -29.688  -6.019 -16.450  0.00  0.00     0.007 A 
ENDBRANCH  22  23
ENDBRANCH  21  22
BRANCH  21  29
HETATM   29  N           1     -33.556  -3.391 -17.459  0.00  0.00    -0.066 N 
HETATM   30  H           1     -34.312  -2.853 -16.978  0.00  0.00     0.275 HD
HETATM   31  H           1     -32.731  -2.769 -17.613  0.00  0.00     0.275 HD
HETATM   32  H           1     -33.908  -3.738 -18.380  0.00  0.00     0.275 HD
ENDBRANCH  21  29
ENDBRANCH   2  21
TORSDOF 10
ENDMDL
MODEL 3
REMARK VINA RESULT:      -7.9      1.999      2.673
REMARK  10 active torsions:
REMARK  status: ('A' for Active; 'I' for Inactive)
REMARK    1  A    between atoms: C_2  and  C_27 
REMARK    2  A    between atoms: C_2  and  C_21 
REMARK    3  A    between atoms: C_6  and  C_7 
REMARK    4  A    between atoms: C_7  and  C_8 
REMARK    5  A    between atoms: C_8  and  C_9 
REMARK    6  A    between atoms: C_8  and  N_12 
REMARK       I    between atoms: C_9  and  N_13 
REMARK    7  A    between atoms: N_13  and  C_20 
REMARK       I    between atoms: N_14  and  C_29 
REMARK    8  A    between atoms: C_20  and  C_21 
REMARK    9  A    between atoms: C_20  and  C_30 
REMARK       I    between atoms: N_22  and  C_29 
REMARK   10  A    between atoms: N_22  and  C_27 
ROOT
HETATM    1  H           1     -22.044  -4.105  -6.762  0.00  0.00     0.163 HD
HETATM    2  C           1     -20.777  -5.740  -6.812  0.00  0.00     0.249 C 
HETATM    3  O           1     -20.213  -6.535  -7.526  0.00  0.00    -0.271 OA
HETATM    4  N           1     -21.572  -4.770  -7.360  0.00  0.00    -0.345 N 
ENDROOT
BRANCH   4   5
HETATM    5  C           1     -21.737  -4.696  -8.799  0.00  0.00     0.185 C 
BRANCH   5   6
HETATM    6  C           1     -22.949  -3.836  -9.128  0.00  0.00     0.038 C 
BRANCH   6   7
HETATM    7  C           1     -23.988  -4.678  -9.857  0.00  0.00     0.023 C 
BRANCH   7   8
HETATM    8  C           1     -23.613  -4.787 -11.329  0.00  0.00     0.138 C 
BRANCH   8   9
HETATM    9  N           1     -24.070  -3.584 -12.041  0.00  0.00    -0.227 N 
HETATM   10  H           1     -25.038  -3.213 -11.876  0.00  0.00     0.177 HD
HETATM   11  C           1     -23.296  -2.998 -12.853  0.00  0.00     0.665 C 
HETATM   12  N           1     -23.702  -1.935 -13.483  0.00  0.00    -0.235 N 
HETATM   13  N           1     -22.130  -3.446 -13.053  0.00  0.00    -0.235 N 
HETATM   14  H           1     -24.665  -1.564 -13.318  0.00  0.00     0.174 HD
HETATM   15  H           1     -23.063  -1.450 -14.154  0.00  0.00     0.174 HD
HETATM   16  H           1     -21.488  -2.960 -13.727  0.00  0.00     0.174 HD
HETATM   17  H           1     -21.803  -4.304 -12.545  0.00  0.00     0.174 HD
ENDBRANCH   8   9
ENDBRANCH   7   8
ENDBRANCH   6   7
ENDBRANCH   5   6
BRANCH   5  18
HETATM   18  C           1     -20.504  -4.082  -9.415  0.00  0.00     0.196 C 
HETATM   19  O           1     -19.700  -3.443  -8.700  0.00  0.00    -0.646 OA
HETATM   20  O           1     -20.285  -4.212 -10.638  0.00  0.00    -0.646 OA
ENDBRANCH   5  18
ENDBRANCH   4   5
BRANCH   2  21
HETATM   21  C           1     -20.603  -5.817  -5.315  0.00  0.00     0.278 C 
BRANCH  21  22
HETATM   22  C           1     -21.934  -6.169  -4.665  0.00  0.00     0.081 C 
BRANCH  22  23
HETATM   23  C           1     -21.689  -6.781  -3.321  0.00  0.00    -0.056 A 
HETATM   24  C           1     -20.821  -7.866  -3.198  0.00  0.00     0.007 A 
HETATM   25  C           1     -20.593  -8.438  -1.946  0.00  0.00     0.001 A 
HETATM   26  C           1     -21.231  -7.922  -0.818  0.00  0.00     0.000 A 
HETATM   27  C           1     -22.099  -6.837  -0.941  0.00  0.00     0.001 A 
HETATM   28  C           1     -22.328  -6.266  -2.193  0.00  0.00     0.007 A 
ENDBRANCH  22  23
ENDBRANCH  21  22
BRANCH  21  29
HETATM   29  N           1     -20.130  -4.490  -4.799  0.00  0.00    -0.066 N 
HETATM   30  H           1     -20.926  -3.814  -4.793  0.00  0.00     0.275 HD
HETATM   31  H           1     -19.763  -4.605  -3.827  0.00  0.00     0.275 HD
HETATM   32  H           1     -19.370  -4.128  -5.418  0.00  0.00     0.275 HD
ENDBRANCH  21  29
ENDBRANCH   2  21
TORSDOF 10
ENDMDL
MODEL 4
REMARK VINA RESULT:      -7.9      1.483      2.086
REMARK  10 active torsions:
REMARK  status: ('A' for Active; 'I' for Inactive)
REMARK    1  A    between atoms: C_2  and  C_27 
REMARK    2  A    between atoms: C_2  and  C_21 
REMARK    3  A    between atoms: C_6  and  C_7 
REMARK    4  A    between atoms: C_7  and  C_8 
REMARK    5  A    between atoms: C_8  and  C_9 
REMARK    6  A    between atoms: C_8  and  N_12 
REMARK       I    between atoms: C_9  and  N_13 
REMARK    7  A    between atoms: N_13  and  C_20 
REMARK       I    between atoms: N_14  and  C_29 
REMARK    8  A    between atoms: C_20  and  C_21 
REMARK    9  A    between atoms: C_20  and  C_30 
REMARK       I    between atoms: N_22  and  C_29 
REMARK   10  A    between atoms: N_22  and  C_27 
ROOT
HETATM    1  H           1     -23.182  -5.911  -7.489  0.00  0.00     0.163 HD
HETATM    2  C           1     -21.660  -5.114  -6.335  0.00  0.00     0.249 C 
HETATM    3  O           1     -20.808  -4.259  -6.272  0.00  0.00    -0.271 OA
HETATM    4  N           1     -22.469  -5.195  -7.436  0.00  0.00    -0.345 N 
ENDROOT
BRANCH   4   5
HETATM    5  C           1     -22.304  -4.254  -8.527  0.00  0.00     0.185 C 
BRANCH   5   6
HETATM    6  C           1     -21.218  -4.754  -9.470  0.00  0.00     0.038 C 
BRANCH   6   7
HETATM    7  C           1     -20.773  -3.618 -10.382  0.00  0.00     0.023 C 
BRANCH   7   8
HETATM    8  C           1     -21.180  -3.930 -11.817  0.00  0.00     0.138 C 
BRANCH   8   9
HETATM    9  N           1     -21.983  -2.820 -12.351  0.00  0.00    -0.227 N 
HETATM   10  H           1     -21.608  -1.840 -12.323  0.00  0.00     0.177 HD
HETATM   11  C           1     -23.126  -3.047 -12.846  0.00  0.00     0.665 C 
HETATM   12  N           1     -23.836  -2.065 -13.318  0.00  0.00    -0.235 N 
HETATM   13  N           1     -23.577  -4.229 -12.880  0.00  0.00    -0.235 N 
HETATM   14  H           1     -23.463  -1.090 -13.290  0.00  0.00     0.174 HD
HETATM   15  H           1     -24.780  -2.253 -13.726  0.00  0.00     0.174 HD
HETATM   16  H           1     -24.526  -4.418 -13.291  0.00  0.00     0.174 HD
HETATM   17  H           1     -23.004  -5.021 -12.499  0.00  0.00     0.174 HD
ENDBRANCH   8   9
ENDBRANCH   7   8
ENDBRANCH   6   7
ENDBRANCH   5   6
BRANCH   5  18
HETATM   18  C           1     -23.604  -4.128  -9.282  0.00  0.00     0.196 C 
HETATM   19  O           1     -24.298  -3.094  -9.165  0.00  0.00    -0.646 OA
HETATM   20  O           1     -23.988  -5.056 -10.026  0.00  0.00    -0.646 OA
ENDBRANCH   5  18
ENDBRANCH   4   5
BRANCH   2  21
HETATM   21  C           1     -21.831  -6.092  -5.199  0.00  0.00     0.278 C 
BRANCH  21  22
HETATM   22  C           1     -20.824  -5.778  -4.101  0.00  0.00     0.081 C 
BRANCH  22  23
HETATM   23  C           1     -21.156  -6.574  -2.876  0.00  0.00    -0.056 A 
HETATM   24  C           1     -20.443  -7.737  -2.587  0.00  0.00     0.007 A 
HETATM   25  C           1     -20.752  -8.479  -1.447  0.00  0.00     0.001 A 
HETATM   26  C           1     -21.772  -8.056  -0.596  0.00  0.00     0.000 A 
HETATM   27  C           1     -22.485  -6.892  -0.885  0.00  0.00     0.001 A 
HETATM   28  C           1     -22.177  -6.151  -2.025  0.00  0.00     0.007 A 
ENDBRANCH  22  23
ENDBRANCH  21  22
BRANCH  21  29
HETATM   29  N           1     -21.602  -7.486  -5.703  0.00  0.00    -0.066 N 
HETATM   30  H           1     -22.494  -8.028  -5.646  0.00  0.00     0.275 HD
HETATM   31  H           1     -21.280  -7.450  -6.697  0.00  0.00     0.275 HD
HETATM   32  H           1     -20.874  -7.953  -5.117  0.00  0.00     0.275 HD
ENDBRANCH  21  29
ENDBRANCH   2  21
TORSDOF 10
ENDMDL
MODEL 5
REMARK VINA RESULT:      -7.9     12.154     14.326
REMARK  10 active torsions:
REMARK  status: ('A' for Active; 'I' for Inactive)
REMARK    1  A    between atoms: C_2  and  C_27 
REMARK    2  A    between atoms: C_2  and  C_21 
REMARK    3  A    between atoms: C_6  and  C_7 
REMARK    4  A    between atoms: C_7  and  C_8 
REMARK    5  A    between atoms: C_8  and  C_9 
REMARK    6  A    between atoms: C_8  and  N_12 
REMARK       I    between atoms: C_9  and  N_13 
REMARK    7  A    between atoms: N_13  and  C_20 
REMARK       I    between atoms: N_14  and  C_29 
REMARK    8  A    between atoms: C_20  and  C_21 
REMARK    9  A    between atoms: C_20  and  C_30 
REMARK       I    between atoms: N_22  and  C_29 
REMARK   10  A    between atoms: N_22  and  C_27 
ROOT
HETATM    1  H           1     -36.179  -1.458 -14.151  0.00  0.00     0.163 HD
HETATM    2  C           1     -35.053   0.037 -13.269  0.00  0.00     0.249 C 
HETATM    3  O           1     -34.420   1.047 -13.465  0.00  0.00    -0.271 OA
HETATM    4  N           1     -35.649  -0.612 -14.316  0.00  0.00    -0.345 N 
ENDROOT
BRANCH   4   5
HETATM    5  C           1     -35.520  -0.088 -15.662  0.00  0.00     0.185 C 
BRANCH   5   6
HETATM    6  C           1     -35.713  -1.214 -16.668  0.00  0.00     0.038 C 
BRANCH   6   7
HETATM    7  C           1     -34.997  -2.465 -16.174  0.00  0.00     0.023 C 
BRANCH   7   8
HETATM    8  C           1     -33.971  -2.906 -17.210  0.00  0.00     0.138 C 
BRANCH   8   9
HETATM    9  N           1     -33.228  -4.067 -16.700  0.00  0.00    -0.227 N 
HETATM   10  H           1     -33.722  -4.799 -16.132  0.00  0.00     0.177 HD
HETATM   11  C           1     -31.992  -4.186 -16.947  0.00  0.00     0.665 C 
HETATM   12  N           1     -31.335  -5.213 -16.495  0.00  0.00    -0.235 N 
HETATM   13  N           1     -31.396  -3.304 -17.632  0.00  0.00    -0.235 N 
HETATM   14  H           1     -31.827  -5.941 -15.930  0.00  0.00     0.174 HD
HETATM   15  H           1     -30.314  -5.311 -16.699  0.00  0.00     0.174 HD
HETATM   16  H           1     -30.370  -3.402 -17.837  0.00  0.00     0.174 HD
HETATM   17  H           1     -31.926  -2.475 -17.996  0.00  0.00     0.174 HD
ENDBRANCH   8   9
ENDBRANCH   7   8
ENDBRANCH   6   7
ENDBRANCH   5   6
BRANCH   5  18
HETATM   18  C           1     -36.570   0.972 -15.889  0.00  0.00     0.196 C 
HETATM   19  O           1     -36.228   2.135 -16.197  0.00  0.00    -0.646 OA
HETATM   20  O           1     -37.781   0.688 -15.773  0.00  0.00    -0.646 OA
ENDBRANCH   5  18
ENDBRANCH   4   5
BRANCH   2  21
HETATM   21  C           1     -35.187  -0.508 -11.868  0.00  0.00     0.278 C 
BRANCH  21  22
HETATM   22  C           1     -35.967  -1.814 -11.902  0.00  0.00     0.081 C 
BRANCH  22  23
HETATM   23  C           1     -35.041  -2.957 -11.620  0.00  0.00    -0.056 A 
HETATM   24  C           1     -35.509  -4.083 -10.944  0.00  0.00     0.007 A 
HETATM   25  C           1     -34.647  -5.147 -10.680  0.00  0.00     0.001 A 
HETATM   26  C           1     -33.316  -5.086 -11.095  0.00  0.00     0.000 A 
HETATM   27  C           1     -32.848  -3.959 -11.772  0.00  0.00     0.001 A 
HETATM   28  C           1     -33.710  -2.895 -12.034  0.00  0.00     0.007 A 
ENDBRANCH  22  23
ENDBRANCH  21  22
BRANCH  21  29
HETATM   29  N           1     -35.915   0.488 -11.014  0.00  0.00    -0.066 N 
HETATM   30  H           1     -36.614   1.001 -11.596  0.00  0.00     0.275 HD
HETATM   31  H           1     -36.407  -0.011 -10.239  0.00  0.00     0.275 HD
HETATM   32  H           1     -35.230   1.168 -10.613  0.00  0.00     0.275 HD
ENDBRANCH  21  29
ENDBRANCH   2  21
TORSDOF 10
ENDMDL
MODEL 6
REMARK VINA RESULT:      -7.8      1.985      3.103
REMARK  10 active torsions:
REMARK  status: ('A' for Active; 'I' for Inactive)
REMARK    1  A    between atoms: C_2  and  C_27 
REMARK    2  A    between atoms: C_2  and  C_21 
REMARK    3  A    between atoms: C_6  and  C_7 
REMARK    4  A    between atoms: C_7  and  C_8 
REMARK    5  A    between atoms: C_8  and  C_9 
REMARK    6  A    between atoms: C_8  and  N_12 
REMARK       I    between atoms: C_9  and  N_13 
REMARK    7  A    between atoms: N_13  and  C_20 
REMARK       I    between atoms: N_14  and  C_29 
REMARK    8  A    between atoms: C_20  and  C_21 
REMARK    9  A    between atoms: C_20  and  C_30 
REMARK       I    between atoms: N_22  and  C_29 
REMARK   10  A    between atoms: N_22  and  C_27 
ROOT
HETATM    1  H           1     -22.392  -5.960  -6.943  0.00  0.00     0.163 HD
HETATM    2  C           1     -20.585  -6.872  -6.514  0.00  0.00     0.249 C 
HETATM    3  O           1     -19.412  -6.932  -6.800  0.00  0.00    -0.271 OA
HETATM    4  N           1     -21.410  -6.010  -7.183  0.00  0.00    -0.345 N 
ENDROOT
BRANCH   4   5
HETATM    5  C           1     -20.878  -5.168  -8.237  0.00  0.00     0.185 C 
BRANCH   5   6
HETATM    6  C           1     -21.963  -4.898  -9.270  0.00  0.00     0.038 C 
BRANCH   6   7
HETATM    7  C           1     -21.324  -4.413 -10.565  0.00  0.00     0.023 C 
BRANCH   7   8
HETATM    8  C           1     -22.272  -3.450 -11.269  0.00  0.00     0.138 C 
BRANCH   8   9
HETATM    9  N           1     -22.027  -3.495 -12.718  0.00  0.00    -0.227 N 
HETATM   10  H           1     -21.202  -4.023 -13.095  0.00  0.00     0.177 HD
HETATM   11  C           1     -22.811  -2.895 -13.511  0.00  0.00     0.665 C 
HETATM   12  N           1     -22.594  -2.935 -14.793  0.00  0.00    -0.235 N 
HETATM   13  N           1     -23.806  -2.258 -13.056  0.00  0.00    -0.235 N 
HETATM   14  H           1     -21.773  -3.461 -15.168  0.00  0.00     0.174 HD
HETATM   15  H           1     -23.242  -2.440 -15.447  0.00  0.00     0.174 HD
HETATM   16  H           1     -24.457  -1.761 -13.714  0.00  0.00     0.174 HD
HETATM   17  H           1     -23.981  -2.226 -12.022  0.00  0.00     0.174 HD
ENDBRANCH   8   9
ENDBRANCH   7   8
ENDBRANCH   6   7
ENDBRANCH   5   6
BRANCH   5  18
HETATM   18  C           1     -20.412  -3.860  -7.646  0.00  0.00     0.196 C 
HETATM   19  O           1     -21.213  -3.139  -7.012  0.00  0.00    -0.646 OA
HETATM   20  O           1     -19.224  -3.497  -7.789  0.00  0.00    -0.646 OA
ENDBRANCH   5  18
ENDBRANCH   4   5
BRANCH   2  21
HETATM   21  C           1     -21.137  -7.749  -5.417  0.00  0.00     0.278 C 
BRANCH  21  22
HETATM   22  C           1     -20.164  -7.774  -4.247  0.00  0.00     0.081 C 
BRANCH  22  23
HETATM   23  C           1     -20.915  -7.570  -2.967  0.00  0.00    -0.056 A 
HETATM   24  C           1     -21.563  -6.358  -2.725  0.00  0.00     0.007 A 
HETATM   25  C           1     -22.261  -6.167  -1.533  0.00  0.00     0.001 A 
HETATM   26  C           1     -22.314  -7.188  -0.585  0.00  0.00     0.000 A 
HETATM   27  C           1     -21.667  -8.400  -0.827  0.00  0.00     0.001 A 
HETATM   28  C           1     -20.967  -8.591  -2.019  0.00  0.00     0.007 A 
ENDBRANCH  22  23
ENDBRANCH  21  22
BRANCH  21  29
HETATM   29  N           1     -21.327  -9.142  -5.941  0.00  0.00    -0.066 N 
HETATM   30  H           1     -20.394  -9.572  -6.133  0.00  0.00     0.275 HD
HETATM   31  H           1     -21.835  -9.716  -5.230  0.00  0.00     0.275 HD
HETATM   32  H           1     -21.883  -9.108  -6.825  0.00  0.00     0.275 HD
ENDBRANCH  21  29
ENDBRANCH   2  21
TORSDOF 10
ENDMDL
MODEL 7
REMARK VINA RESULT:      -7.6      4.030      9.571
REMARK  10 active torsions:
REMARK  status: ('A' for Active; 'I' for Inactive)
REMARK    1  A    between atoms: C_2  and  C_27 
REMARK    2  A    between atoms: C_2  and  C_21 
REMARK    3  A    between atoms: C_6  and  C_7 
REMARK    4  A    between atoms: C_7  and  C_8 
REMARK    5  A    between atoms: C_8  and  C_9 
REMARK    6  A    between atoms: C_8  and  N_12 
REMARK       I    between atoms: C_9  and  N_13 
REMARK    7  A    between atoms: N_13  and  C_20 
REMARK       I    between atoms: N_14  and  C_29 
REMARK    8  A    between atoms: C_20  and  C_21 
REMARK    9  A    between atoms: C_20  and  C_30 
REMARK       I    between atoms: N_22  and  C_29 
REMARK   10  A    between atoms: N_22  and  C_27 
ROOT
HETATM    1  H           1     -22.096  -6.209  -5.151  0.00  0.00     0.163 HD
HETATM    2  C           1     -20.639  -6.106  -6.617  0.00  0.00     0.249 C 
HETATM    3  O           1     -19.576  -6.544  -6.990  0.00  0.00    -0.271 OA
HETATM    4  N           1     -21.206  -6.576  -5.463  0.00  0.00    -0.345 N 
ENDROOT
BRANCH   4   5
HETATM    5  C           1     -20.530  -7.598  -4.688  0.00  0.00     0.185 C 
BRANCH   5   6
HETATM    6  C           1     -20.559  -7.220  -3.214  0.00  0.00     0.038 C 
BRANCH   6   7
HETATM    7  C           1     -21.763  -6.327  -2.941  0.00  0.00     0.023 C 
BRANCH   7   8
HETATM    8  C           1     -22.289  -6.598  -1.537  0.00  0.00     0.138 C 
BRANCH   8   9
HETATM    9  N           1     -21.954  -7.976  -1.146  0.00  0.00    -0.227 N 
HETATM   10  H           1     -21.197  -8.496  -1.655  0.00  0.00     0.177 HD
HETATM   11  C           1     -22.578  -8.533  -0.197  0.00  0.00     0.665 C 
HETATM   12  N           1     -22.282  -9.752   0.148  0.00  0.00    -0.235 N 
HETATM   13  N           1     -23.490  -7.906   0.416  0.00  0.00    -0.235 N 
HETATM   14  H           1     -21.529 -10.270  -0.359  0.00  0.00     0.174 HD
HETATM   15  H           1     -22.798 -10.213   0.932  0.00  0.00     0.174 HD
HETATM   16  H           1     -24.008  -8.369   1.204  0.00  0.00     0.174 HD
HETATM   17  H           1     -23.729  -6.923   0.138  0.00  0.00     0.174 HD
ENDBRANCH   8   9
ENDBRANCH   7   8
ENDBRANCH   6   7
ENDBRANCH   5   6
BRANCH   5  18
HETATM   18  C           1     -21.232  -8.919  -4.881  0.00  0.00     0.196 C 
HETATM   19  O           1     -21.145  -9.521  -5.974  0.00  0.00    -0.646 OA
HETATM   20  O           1     -21.900  -9.415  -3.948  0.00  0.00    -0.646 OA
ENDBRANCH   5  18
ENDBRANCH   4   5
BRANCH   2  21
HETATM   21  C           1     -21.341  -5.043  -7.426  0.00  0.00     0.278 C 
BRANCH  21  22
HETATM   22  C           1     -20.704  -4.947  -8.805  0.00  0.00     0.081 C 
BRANCH  22  23
HETATM   23  C           1     -21.666  -4.308  -9.757  0.00  0.00    -0.056 A 
HETATM   24  C           1     -21.189  -3.563 -10.835  0.00  0.00     0.007 A 
HETATM   25  C           1     -22.085  -2.966 -11.722  0.00  0.00     0.001 A 
HETATM   26  C           1     -23.458  -3.117 -11.532  0.00  0.00     0.000 A 
HETATM   27  C           1     -23.936  -3.862 -10.453  0.00  0.00     0.001 A 
HETATM   28  C           1     -23.040  -4.458  -9.566  0.00  0.00     0.007 A 
ENDBRANCH  22  23
ENDBRANCH  21  22
BRANCH  21  29
HETATM   29  N           1     -21.218  -3.722  -6.725  0.00  0.00    -0.066 N 
HETATM   30  H           1     -21.649  -2.974  -7.313  0.00  0.00     0.275 HD
HETATM   31  H           1     -21.710  -3.768  -5.804  0.00  0.00     0.275 HD
HETATM   32  H           1     -20.208  -3.504  -6.570  0.00  0.00     0.275 HD
ENDBRANCH  21  29
ENDBRANCH   2  21
TORSDOF 10
ENDMDL
MODEL 8
REMARK VINA RESULT:      -7.5      2.703      4.191
REMARK  10 active torsions:
REMARK  status: ('A' for Active; 'I' for Inactive)
REMARK    1  A    between atoms: C_2  and  C_27 
REMARK    2  A    between atoms: C_2  and  C_21 
REMARK    3  A    between atoms: C_6  and  C_7 
REMARK    4  A    between atoms: C_7  and  C_8 
REMARK    5  A    between atoms: C_8  and  C_9 
REMARK    6  A    between atoms: C_8  and  N_12 
REMARK       I    between atoms: C_9  and  N_13 
REMARK    7  A    between atoms: N_13  and  C_20 
REMARK       I    between atoms: N_14  and  C_29 
REMARK    8  A    between atoms: C_20  and  C_21 
REMARK    9  A    between atoms: C_20  and  C_30 
REMARK       I    between atoms: N_22  and  C_29 
REMARK   10  A    between atoms: N_22  and  C_27 
ROOT
HETATM    1  H           1     -22.311  -5.746  -5.016  0.00  0.00     0.163 HD
HETATM    2  C           1     -21.183  -7.455  -5.316  0.00  0.00     0.249 C 
HETATM    3  O           1     -20.412  -8.016  -6.059  0.00  0.00    -0.271 OA
HETATM    4  N           1     -21.665  -6.215  -5.638  0.00  0.00    -0.345 N 
ENDROOT
BRANCH   4   5
HETATM    5  C           1     -21.251  -5.575  -6.871  0.00  0.00     0.185 C 
BRANCH   5   6
HETATM    6  C           1     -22.354  -4.643  -7.356  0.00  0.00     0.038 C 
BRANCH   6   7
HETATM    7  C           1     -22.531  -4.803  -8.860  0.00  0.00     0.023 C 
BRANCH   7   8
HETATM    8  C           1     -22.263  -3.470  -9.548  0.00  0.00     0.138 C 
BRANCH   8   9
HETATM    9  N           1     -22.625  -3.570 -10.969  0.00  0.00    -0.227 N 
HETATM   10  H           1     -23.620  -3.757 -11.245  0.00  0.00     0.177 HD
HETATM   11  C           1     -21.736  -3.432 -11.859  0.00  0.00     0.665 C 
HETATM   12  N           1     -22.056  -3.521 -13.117  0.00  0.00    -0.235 N 
HETATM   13  N           1     -20.536  -3.207 -11.526  0.00  0.00    -0.235 N 
HETATM   14  H           1     -23.047  -3.707 -13.392  0.00  0.00     0.174 HD
HETATM   15  H           1     -21.322  -3.407 -13.852  0.00  0.00     0.174 HD
HETATM   16  H           1     -19.798  -3.092 -12.265  0.00  0.00     0.174 HD
HETATM   17  H           1     -20.277  -3.135 -10.512  0.00  0.00     0.174 HD
ENDBRANCH   8   9
ENDBRANCH   7   8
ENDBRANCH   6   7
ENDBRANCH   5   6
BRANCH   5  18
HETATM   18  C           1     -19.994  -4.778  -6.625  0.00  0.00     0.196 C 
HETATM   19  O           1     -19.252  -4.469  -7.583  0.00  0.00    -0.646 OA
HETATM   20  O           1     -19.694  -4.425  -5.464  0.00  0.00    -0.646 OA
ENDBRANCH   5  18
ENDBRANCH   4   5
BRANCH   2  21
HETATM   21  C           1     -21.613  -8.123  -4.033  0.00  0.00     0.278 C 
BRANCH  21  22
HETATM   22  C           1     -20.561  -7.885  -2.958  0.00  0.00     0.081 C 
BRANCH  22  23
HETATM   23  C           1     -21.188  -8.025  -1.605  0.00  0.00    -0.056 A 
HETATM   24  C           1     -20.794  -9.060  -0.758  0.00  0.00     0.007 A 
HETATM   25  C           1     -21.379  -9.192   0.502  0.00  0.00     0.001 A 
HETATM   26  C           1     -22.355  -8.285   0.915  0.00  0.00     0.000 A 
HETATM   27  C           1     -22.748  -7.248   0.067  0.00  0.00     0.001 A 
HETATM   28  C           1     -22.165  -7.118  -1.193  0.00  0.00     0.007 A 
ENDBRANCH  22  23
ENDBRANCH  21  22
BRANCH  21  29
HETATM   29  N           1     -21.767  -9.597  -4.265  0.00  0.00    -0.066 N 
HETATM   30  H           1     -22.607  -9.770  -4.861  0.00  0.00     0.275 HD
HETATM   31  H           1     -20.916  -9.965  -4.748  0.00  0.00     0.275 HD
HETATM   32  H           1     -21.885 -10.082  -3.347  0.00  0.00     0.275 HD
ENDBRANCH  21  29
ENDBRANCH   2  21
TORSDOF 10
ENDMDL
MODEL 9
REMARK VINA RESULT:      -7.5      4.159      9.608
REMARK  10 active torsions:
REMARK  status: ('A' for Active; 'I' for Inactive)
REMARK    1  A    between atoms: C_2  and  C_27 
REMARK    2  A    between atoms: C_2  and  C_21 
REMARK    3  A    between atoms: C_6  and  C_7 
REMARK    4  A    between atoms: C_7  and  C_8 
REMARK    5  A    between atoms: C_8  and  C_9 
REMARK    6  A    between atoms: C_8  and  N_12 
REMARK       I    between atoms: C_9  and  N_13 
REMARK    7  A    between atoms: N_13  and  C_20 
REMARK       I    between atoms: N_14  and  C_29 
REMARK    8  A    between atoms: C_20  and  C_21 
REMARK    9  A    between atoms: C_20  and  C_30 
REMARK       I    between atoms: N_22  and  C_29 
REMARK   10  A    between atoms: N_22  and  C_27 
ROOT
HETATM    1  H           1     -22.654  -7.097  -5.224  0.00  0.00     0.163 HD
HETATM    2  C           1     -21.272  -5.984  -6.289  0.00  0.00     0.249 C 
HETATM    3  O           1     -20.095  -5.775  -6.470  0.00  0.00    -0.271 OA
HETATM    4  N           1     -21.668  -6.923  -5.376  0.00  0.00    -0.345 N 
ENDROOT
BRANCH   4   5
HETATM    5  C           1     -20.676  -7.669  -4.626  0.00  0.00     0.185 C 
BRANCH   5   6
HETATM    6  C           1     -20.645  -7.171  -3.188  0.00  0.00     0.038 C 
BRANCH   6   7
HETATM    7  C           1     -21.927  -6.405  -2.887  0.00  0.00     0.023 C 
BRANCH   7   8
HETATM    8  C           1     -22.353  -6.673  -1.449  0.00  0.00     0.138 C 
BRANCH   8   9
HETATM    9  N           1     -22.038  -8.065  -1.096  0.00  0.00    -0.227 N 
HETATM   10  H           1     -21.317  -8.595  -1.645  0.00  0.00     0.177 HD
HETATM   11  C           1     -22.638  -8.625  -0.132  0.00  0.00     0.665 C 
HETATM   12  N           1     -22.359  -9.856   0.179  0.00  0.00    -0.235 N 
HETATM   13  N           1     -23.507  -7.985   0.529  0.00  0.00    -0.235 N 
HETATM   14  H           1     -21.641 -10.384  -0.366  0.00  0.00     0.174 HD
HETATM   15  H           1     -22.854 -10.318   0.976  0.00  0.00     0.174 HD
HETATM   16  H           1     -24.005  -8.450   1.329  0.00  0.00     0.174 HD
HETATM   17  H           1     -23.732  -6.992   0.278  0.00  0.00     0.174 HD
ENDBRANCH   8   9
ENDBRANCH   7   8
ENDBRANCH   6   7
ENDBRANCH   5   6
BRANCH   5  18
HETATM   18  C           1     -21.034  -9.135  -4.642  0.00  0.00     0.196 C 
HETATM   19  O           1     -21.299  -9.725  -3.572  0.00  0.00    -0.646 OA
HETATM   20  O           1     -21.066  -9.760  -5.724  0.00  0.00    -0.646 OA
ENDBRANCH   5  18
ENDBRANCH   4   5
BRANCH   2  21
HETATM   21  C           1     -22.303  -5.207  -7.070  0.00  0.00     0.278 C 
BRANCH  21  22
HETATM   22  C           1     -21.702  -3.890  -7.538  0.00  0.00     0.081 C 
BRANCH  22  23
HETATM   23  C           1     -21.689  -3.850  -9.035  0.00  0.00    -0.056 A 
HETATM   24  C           1     -22.872  -3.618  -9.736  0.00  0.00     0.007 A 
HETATM   25  C           1     -22.861  -3.583 -11.131  0.00  0.00     0.001 A 
HETATM   26  C           1     -21.665  -3.777 -11.823  0.00  0.00     0.000 A 
HETATM   27  C           1     -20.482  -4.009 -11.122  0.00  0.00     0.001 A 
HETATM   28  C           1     -20.494  -4.046  -9.728  0.00  0.00     0.007 A 
ENDBRANCH  22  23
ENDBRANCH  21  22
BRANCH  21  29
HETATM   29  N           1     -23.489  -4.931  -6.192  0.00  0.00    -0.066 N 
HETATM   30  H           1     -23.602  -3.899  -6.073  0.00  0.00     0.275 HD
HETATM   31  H           1     -24.350  -5.326  -6.635  0.00  0.00     0.275 HD
HETATM   32  H           1     -23.341  -5.376  -5.259  0.00  0.00     0.275 HD
ENDBRANCH  21  29
ENDBRANCH   2  21
TORSDOF 10
ENDMDL
