MODEL 1
REMARK VINA RESULT:      -7.7      0.000      0.000
REMARK  7 active torsions:
REMARK  status: ('A' for Active; 'I' for Inactive)
REMARK    1  A    between atoms: C_1  and  C_2 
REMARK    2  A    between atoms: C_1  and  C_6 
REMARK    3  A    between atoms: C_2  and  C_3 
REMARK    4  A    between atoms: C_2  and  N_12 
REMARK       I    between atoms: C_3  and  N_4 
REMARK    5  A    between atoms: C_5  and  C_24 
REMARK    6  A    between atoms: C_6  and  C_7 
REMARK    7  A    between atoms: C_7  and  N_8 
REMARK       I    between atoms: N_8  and  C_9 
REMARK       I    between atoms: C_9  and  N_10 
ROOT
HETATM    1  C           1     -34.155  -2.294 -11.486  0.00  0.00     0.275 C 
ENDROOT
BRANCH   1   2
HETATM    2  C           1     -33.295  -3.551 -11.469  0.00  0.00     0.044 C 
BRANCH   2   3
HETATM    3  C           1     -33.875  -4.550 -10.478  0.00  0.00     0.023 C 
BRANCH   3   4
HETATM    4  C           1     -34.550  -5.686 -11.236  0.00  0.00     0.138 C 
BRANCH   4   5
HETATM    5  N           1     -33.760  -6.916 -11.082  0.00  0.00    -0.227 N 
HETATM    6  C           1     -34.146  -7.820 -10.285  0.00  0.00     0.665 C 
HETATM    7  N           1     -33.467  -8.880 -10.152  0.00  0.00    -0.235 N 
HETATM    8  N           1     -35.242  -7.660  -9.603  0.00  0.00    -0.235 N 
HETATM    9  H           1     -33.787  -9.630  -9.490  0.00  0.00     0.174 HD
HETATM   10  H           1     -32.582  -9.008 -10.702  0.00  0.00     0.174 HD
HETATM   11  H           1     -35.561  -8.407  -8.945  0.00  0.00     0.174 HD
HETATM   12  H           1     -35.804  -6.786  -9.713  0.00  0.00     0.174 HD
HETATM   13  H           1     -32.875  -7.045 -11.633  0.00  0.00     0.177 HD
ENDBRANCH   4   5
ENDBRANCH   3   4
ENDBRANCH   2   3
ENDBRANCH   1   2
BRANCH   1  14
HETATM   14  C           1     -34.746  -2.107 -12.862  0.00  0.00     0.251 C 
HETATM   15  N           1     -35.580  -1.050 -13.111  0.00  0.00    -0.336 N 
HETATM   16  C           1     -36.238  -0.714 -14.371  0.00  0.00     0.188 C 
HETATM   17  C           1     -36.005  -0.013 -12.175  0.00  0.00     0.127 C 
HETATM   18  C           1     -37.629  -0.274 -13.946  0.00  0.00     0.038 C 
HETATM   19  C           1     -37.474   0.192 -12.503  0.00  0.00     0.022 C 
HETATM   20  O           1     -34.484  -2.890 -13.744  0.00  0.00    -0.271 OA
BRANCH  16  21
HETATM   21  C           1     -35.512   0.405 -15.074  0.00  0.00     0.196 C 
HETATM   22  O           1     -36.137   1.175 -15.835  0.00  0.00    -0.646 OA
HETATM   23  O           1     -34.284   0.563 -14.896  0.00  0.00    -0.646 OA
ENDBRANCH  16  21
ENDBRANCH   1  14
BRANCH   1  24
HETATM   24  N           1     -35.261  -2.431 -10.483  0.00  0.00    -0.067 N 
HETATM   25  H           1     -36.124  -2.779 -10.959  0.00  0.00     0.275 HD
HETATM   26  H           1     -34.977  -3.110  -9.742  0.00  0.00     0.275 HD
HETATM   27  H           1     -35.455  -1.500 -10.049  0.00  0.00     0.275 HD
ENDBRANCH   1  24
TORSDOF 7
ENDMDL
MODEL 2
REMARK VINA RESULT:      -7.6     12.568     15.030
REMARK  7 active torsions:
REMARK  status: ('A' for Active; 'I' for Inactive)
REMARK    1  A    between atoms: C_1  and  C_2 
REMARK    2  A    between atoms: C_1  and  C_6 
REMARK    3  A    between atoms: C_2  and  C_3 
REMARK    4  A    between atoms: C_2  and  N_12 
REMARK       I    between atoms: C_3  and  N_4 
REMARK    5  A    between atoms: C_5  and  C_24 
REMARK    6  A    between atoms: C_6  and  C_7 
REMARK    7  A    between atoms: C_7  and  N_8 
REMARK       I    between atoms: N_8  and  C_9 
REMARK       I    between atoms: C_9  and  N_10 
ROOT
HETATM    1  C           1     -21.651  -3.254 -10.706  0.00  0.00     0.275 C 
ENDROOT
BRANCH   1   2
HETATM    2  C           1     -22.869  -3.024 -11.591  0.00  0.00     0.044 C 
BRANCH   2   3
HETATM    3  C           1     -22.450  -3.073 -13.054  0.00  0.00     0.023 C 
BRANCH   3   4
HETATM    4  C           1     -23.636  -2.705 -13.936  0.00  0.00     0.138 C 
BRANCH   4   5
HETATM    5  N           1     -23.177  -1.858 -15.047  0.00  0.00    -0.227 N 
HETATM    6  C           1     -23.758  -0.760 -15.287  0.00  0.00     0.665 C 
HETATM    7  N           1     -23.363  -0.032 -16.245  0.00  0.00    -0.235 N 
HETATM    8  N           1     -24.759  -0.380 -14.551  0.00  0.00    -0.235 N 
HETATM    9  H           1     -23.845   0.880 -16.444  0.00  0.00     0.174 HD
HETATM   10  H           1     -22.554  -0.339 -16.840  0.00  0.00     0.174 HD
HETATM   11  H           1     -25.238   0.528 -14.750  0.00  0.00     0.174 HD
HETATM   12  H           1     -25.085  -0.980 -13.760  0.00  0.00     0.174 HD
HETATM   13  H           1     -22.368  -2.167 -15.642  0.00  0.00     0.177 HD
ENDBRANCH   4   5
ENDBRANCH   3   4
ENDBRANCH   2   3
ENDBRANCH   1   2
BRANCH   1  14
HETATM   14  C           1     -21.908  -4.426  -9.791  0.00  0.00     0.251 C 
HETATM   15  N           1     -21.203  -4.552  -8.624  0.00  0.00    -0.336 N 
HETATM   16  C           1     -21.317  -5.611  -7.625  0.00  0.00     0.188 C 
HETATM   17  C           1     -20.172  -3.656  -8.108  0.00  0.00     0.127 C 
HETATM   18  C           1     -19.878  -5.886  -7.223  0.00  0.00     0.038 C 
HETATM   19  C           1     -19.126  -4.598  -7.536  0.00  0.00     0.022 C 
HETATM   20  O           1     -22.737  -5.254 -10.087  0.00  0.00    -0.271 OA
BRANCH  16  21
HETATM   21  C           1     -22.127  -5.146  -6.440  0.00  0.00     0.196 C 
HETATM   22  O           1     -21.719  -5.366  -5.279  0.00  0.00    -0.646 OA
HETATM   23  O           1     -23.205  -4.541  -6.619  0.00  0.00    -0.646 OA
ENDBRANCH  16  21
ENDBRANCH   1  14
BRANCH   1  24
HETATM   24  N           1     -20.456  -3.545 -11.564  0.00  0.00    -0.067 N 
HETATM   25  H           1     -19.640  -2.984 -11.228  0.00  0.00     0.275 HD
HETATM   26  H           1     -20.226  -4.561 -11.508  0.00  0.00     0.275 HD
HETATM   27  H           1     -20.669  -3.289 -12.555  0.00  0.00     0.275 HD
ENDBRANCH   1  24
TORSDOF 7
ENDMDL
MODEL 3
REMARK VINA RESULT:      -7.2      2.380      3.331
REMARK  7 active torsions:
REMARK  status: ('A' for Active; 'I' for Inactive)
REMARK    1  A    between atoms: C_1  and  C_2 
REMARK    2  A    between atoms: C_1  and  C_6 
REMARK    3  A    between atoms: C_2  and  C_3 
REMARK    4  A    between atoms: C_2  and  N_12 
REMARK       I    between atoms: C_3  and  N_4 
REMARK    5  A    between atoms: C_5  and  C_24 
REMARK    6  A    between atoms: C_6  and  C_7 
REMARK    7  A    between atoms: C_7  and  N_8 
REMARK       I    between atoms: N_8  and  C_9 
REMARK       I    between atoms: C_9  and  N_10 
ROOT
HETATM    1  C           1     -36.427  -0.415 -11.188  0.00  0.00     0.275 C 
ENDROOT
BRANCH   1   2
HETATM    2  C           1     -35.958  -1.835 -10.898  0.00  0.00     0.044 C 
BRANCH   2   3
HETATM    3  C           1     -34.505  -1.807 -10.445  0.00  0.00     0.023 C 
BRANCH   3   4
HETATM    4  C           1     -33.793  -3.058 -10.943  0.00  0.00     0.138 C 
BRANCH   4   5
HETATM    5  N           1     -33.735  -3.038 -12.412  0.00  0.00    -0.227 N 
HETATM    6  C           1     -34.000  -4.085 -13.070  0.00  0.00     0.665 C 
HETATM    7  N           1     -33.950  -4.067 -14.335  0.00  0.00    -0.235 N 
HETATM    8  N           1     -34.326  -5.179 -12.448  0.00  0.00    -0.235 N 
HETATM    9  H           1     -34.171  -4.937 -14.882  0.00  0.00     0.174 HD
HETATM   10  H           1     -33.688  -3.184 -14.838  0.00  0.00     0.174 HD
HETATM   11  H           1     -34.546  -6.044 -12.992  0.00  0.00     0.174 HD
HETATM   12  H           1     -34.368  -5.194 -11.404  0.00  0.00     0.174 HD
HETATM   13  H           1     -33.472  -2.154 -12.914  0.00  0.00     0.177 HD
ENDBRANCH   4   5
ENDBRANCH   3   4
ENDBRANCH   2   3
ENDBRANCH   1   2
BRANCH   1  14
HETATM   14  C           1     -36.944  -0.333 -12.603  0.00  0.00     0.251 C 
HETATM   15  N           1     -36.133   0.136 -13.602  0.00  0.00    -0.336 N 
HETATM   16  C           1     -36.461   0.284 -15.017  0.00  0.00     0.188 C 
HETATM   17  C           1     -34.753   0.598 -13.483  0.00  0.00     0.127 C 
HETATM   18  C           1     -35.825   1.610 -15.399  0.00  0.00     0.038 C 
HETATM   19  C           1     -34.699   1.814 -14.393  0.00  0.00     0.022 C 
HETATM   20  O           1     -38.073  -0.683 -12.855  0.00  0.00    -0.271 OA
BRANCH  16  21
HETATM   21  C           1     -35.873  -0.847 -15.825  0.00  0.00     0.196 C 
HETATM   22  O           1     -36.061  -0.897 -17.060  0.00  0.00    -0.646 OA
HETATM   23  O           1     -35.197  -1.733 -15.259  0.00  0.00    -0.646 OA
ENDBRANCH  16  21
ENDBRANCH   1  14
BRANCH   1  24
HETATM   24  N           1     -37.524  -0.047 -10.234  0.00  0.00    -0.067 N 
HETATM   25  H           1     -37.301   0.868  -9.781  0.00  0.00     0.275 HD
HETATM   26  H           1     -38.425   0.035 -10.755  0.00  0.00     0.275 HD
HETATM   27  H           1     -37.610  -0.786  -9.500  0.00  0.00     0.275 HD
ENDBRANCH   1  24
TORSDOF 7
ENDMDL
MODEL 4
REMARK VINA RESULT:      -7.1     13.034     14.784
REMARK  7 active torsions:
REMARK  status: ('A' for Active; 'I' for Inactive)
REMARK    1  A    between atoms: C_1  and  C_2 
REMARK    2  A    between atoms: C_1  and  C_6 
REMARK    3  A    between atoms: C_2  and  C_3 
REMARK    4  A    between atoms: C_2  and  N_12 
REMARK       I    between atoms: C_3  and  N_4 
REMARK    5  A    between atoms: C_5  and  C_24 
REMARK    6  A    between atoms: C_6  and  C_7 
REMARK    7  A    between atoms: C_7  and  N_8 
REMARK       I    between atoms: N_8  and  C_9 
REMARK       I    between atoms: C_9  and  N_10 
ROOT
HETATM    1  C           1     -20.300  -5.129  -7.530  0.00  0.00     0.275 C 
ENDROOT
BRANCH   1   2
HETATM    2  C           1     -20.648  -5.412  -6.074  0.00  0.00     0.044 C 
BRANCH   2   3
HETATM    3  C           1     -20.549  -6.908  -5.809  0.00  0.00     0.023 C 
BRANCH   3   4
HETATM    4  C           1     -21.748  -7.359  -4.986  0.00  0.00     0.138 C 
BRANCH   4   5
HETATM    5  N           1     -22.075  -6.330  -3.989  0.00  0.00    -0.227 N 
HETATM    6  C           1     -21.917  -6.569  -2.757  0.00  0.00     0.665 C 
HETATM    7  N           1     -22.199  -5.681  -1.899  0.00  0.00    -0.235 N 
HETATM    8  N           1     -21.464  -7.724  -2.372  0.00  0.00    -0.235 N 
HETATM    9  H           1     -22.067  -5.880  -0.876  0.00  0.00     0.174 HD
HETATM   10  H           1     -22.565  -4.748  -2.209  0.00  0.00     0.174 HD
HETATM   11  H           1     -21.333  -7.921  -1.354  0.00  0.00     0.174 HD
HETATM   12  H           1     -21.230  -8.457  -3.080  0.00  0.00     0.174 HD
HETATM   13  H           1     -22.441  -5.396  -4.301  0.00  0.00     0.177 HD
ENDBRANCH   4   5
ENDBRANCH   3   4
ENDBRANCH   2   3
ENDBRANCH   1   2
BRANCH   1  14
HETATM   14  C           1     -21.417  -4.343  -8.171  0.00  0.00     0.251 C 
HETATM   15  N           1     -21.474  -4.220  -9.534  0.00  0.00    -0.336 N 
HETATM   16  C           1     -22.472  -3.503 -10.322  0.00  0.00     0.188 C 
HETATM   17  C           1     -20.548  -4.779 -10.515  0.00  0.00     0.127 C 
HETATM   18  C           1     -21.656  -2.825 -11.409  0.00  0.00     0.038 C 
HETATM   19  C           1     -20.393  -3.667 -11.540  0.00  0.00     0.022 C 
HETATM   20  O           1     -22.262  -3.821  -7.482  0.00  0.00    -0.271 OA
BRANCH  16  21
HETATM   21  C           1     -23.474  -4.461 -10.919  0.00  0.00     0.196 C 
HETATM   22  O           1     -23.641  -4.499 -12.157  0.00  0.00    -0.646 OA
HETATM   23  O           1     -24.136  -5.216 -10.175  0.00  0.00    -0.646 OA
ENDBRANCH  16  21
ENDBRANCH   1  14
BRANCH   1  24
HETATM   24  N           1     -19.029  -4.336  -7.596  0.00  0.00    -0.067 N 
HETATM   25  H           1     -18.414  -4.595  -6.791  0.00  0.00     0.275 HD
HETATM   26  H           1     -18.536  -4.543  -8.492  0.00  0.00     0.275 HD
HETATM   27  H           1     -19.253  -3.316  -7.547  0.00  0.00     0.275 HD
ENDBRANCH   1  24
TORSDOF 7
ENDMDL
MODEL 5
REMARK VINA RESULT:      -6.8     13.585     16.263
REMARK  7 active torsions:
REMARK  status: ('A' for Active; 'I' for Inactive)
REMARK    1  A    between atoms: C_1  and  C_2 
REMARK    2  A    between atoms: C_1  and  C_6 
REMARK    3  A    between atoms: C_2  and  C_3 
REMARK    4  A    between atoms: C_2  and  N_12 
REMARK       I    between atoms: C_3  and  N_4 
REMARK    5  A    between atoms: C_5  and  C_24 
REMARK    6  A    between atoms: C_6  and  C_7 
REMARK    7  A    between atoms: C_7  and  N_8 
REMARK       I    between atoms: N_8  and  C_9 
REMARK       I    between atoms: C_9  and  N_10 
ROOT
HETATM    1  C           1     -21.624  -5.031  -7.172  0.00  0.00     0.275 C 
ENDROOT
BRANCH   1   2
HETATM    2  C           1     -21.601  -5.129  -8.692  0.00  0.00     0.044 C 
BRANCH   2   3
HETATM    3  C           1     -22.547  -4.092  -9.282  0.00  0.00     0.023 C 
BRANCH   3   4
HETATM    4  C           1     -22.030  -3.649 -10.644  0.00  0.00     0.138 C 
BRANCH   4   5
HETATM    5  N           1     -23.088  -2.918 -11.357  0.00  0.00    -0.227 N 
HETATM    6  C           1     -23.059  -2.832 -12.619  0.00  0.00     0.665 C 
HETATM    7  N           1     -23.971  -2.203 -13.232  0.00  0.00    -0.235 N 
HETATM    8  N           1     -22.093  -3.391 -13.285  0.00  0.00    -0.235 N 
HETATM    9  H           1     -23.946  -2.132 -14.280  0.00  0.00     0.174 HD
HETATM   10  H           1     -24.751  -1.752 -12.694  0.00  0.00     0.174 HD
HETATM   11  H           1     -22.069  -3.320 -14.328  0.00  0.00     0.174 HD
HETATM   12  H           1     -21.340  -3.911 -12.780  0.00  0.00     0.174 HD
HETATM   13  H           1     -23.869  -2.467 -10.817  0.00  0.00     0.177 HD
ENDBRANCH   4   5
ENDBRANCH   3   4
ENDBRANCH   2   3
ENDBRANCH   1   2
BRANCH   1  14
HETATM   14  C           1     -20.774  -6.131  -6.584  0.00  0.00     0.251 C 
HETATM   15  N           1     -21.153  -6.739  -5.418  0.00  0.00    -0.336 N 
HETATM   16  C           1     -20.461  -7.812  -4.708  0.00  0.00     0.188 C 
HETATM   17  C           1     -22.337  -6.457  -4.612  0.00  0.00     0.127 C 
HETATM   18  C           1     -20.592  -7.422  -3.246  0.00  0.00     0.038 C 
HETATM   19  C           1     -21.829  -6.535  -3.182  0.00  0.00     0.022 C 
HETATM   20  O           1     -19.759  -6.475  -7.143  0.00  0.00    -0.271 OA
BRANCH  16  21
HETATM   21  C           1     -21.121  -9.143  -4.971  0.00  0.00     0.196 C 
HETATM   22  O           1     -21.188  -9.587  -6.138  0.00  0.00    -0.646 OA
HETATM   23  O           1     -21.601  -9.801  -4.023  0.00  0.00    -0.646 OA
ENDBRANCH  16  21
ENDBRANCH   1  14
BRANCH   1  24
HETATM   24  N           1     -21.079  -3.700  -6.748  0.00  0.00    -0.067 N 
HETATM   25  H           1     -21.479  -2.949  -7.357  0.00  0.00     0.275 HD
HETATM   26  H           1     -21.341  -3.517  -5.754  0.00  0.00     0.275 HD
HETATM   27  H           1     -20.038  -3.704  -6.840  0.00  0.00     0.275 HD
ENDBRANCH   1  24
TORSDOF 7
ENDMDL
MODEL 6
REMARK VINA RESULT:      -6.8     12.839     14.431
REMARK  7 active torsions:
REMARK  status: ('A' for Active; 'I' for Inactive)
REMARK    1  A    between atoms: C_1  and  C_2 
REMARK    2  A    between atoms: C_1  and  C_6 
REMARK    3  A    between atoms: C_2  and  C_3 
REMARK    4  A    between atoms: C_2  and  N_12 
REMARK       I    between atoms: C_3  and  N_4 
REMARK    5  A    between atoms: C_5  and  C_24 
REMARK    6  A    between atoms: C_6  and  C_7 
REMARK    7  A    between atoms: C_7  and  N_8 
REMARK       I    between atoms: N_8  and  C_9 
REMARK       I    between atoms: C_9  and  N_10 
ROOT
HETATM    1  C           1     -21.416  -4.121  -7.129  0.00  0.00     0.275 C 
ENDROOT
BRANCH   1   2
HETATM    2  C           1     -20.445  -4.924  -6.273  0.00  0.00     0.044 C 
BRANCH   2   3
HETATM    3  C           1     -20.958  -6.350  -6.124  0.00  0.00     0.023 C 
BRANCH   3   4
HETATM    4  C           1     -20.697  -6.839  -4.706  0.00  0.00     0.138 C 
BRANCH   4   5
HETATM    5  N           1     -21.542  -6.090  -3.765  0.00  0.00    -0.227 N 
HETATM    6  C           1     -21.647  -6.475  -2.564  0.00  0.00     0.665 C 
HETATM    7  N           1     -22.375  -5.829  -1.754  0.00  0.00    -0.235 N 
HETATM    8  N           1     -21.006  -7.531  -2.162  0.00  0.00    -0.235 N 
HETATM    9  H           1     -22.461  -6.148  -0.757  0.00  0.00     0.174 HD
HETATM   10  H           1     -22.893  -4.976  -2.078  0.00  0.00     0.174 HD
HETATM   11  H           1     -21.092  -7.848  -1.170  0.00  0.00     0.174 HD
HETATM   12  H           1     -20.404  -8.064  -2.830  0.00  0.00     0.174 HD
HETATM   13  H           1     -22.060  -5.236  -4.091  0.00  0.00     0.177 HD
ENDBRANCH   4   5
ENDBRANCH   3   4
ENDBRANCH   2   3
ENDBRANCH   1   2
BRANCH   1  14
HETATM   14  C           1     -21.206  -4.462  -8.584  0.00  0.00     0.251 C 
HETATM   15  N           1     -22.181  -4.176  -9.501  0.00  0.00    -0.336 N 
HETATM   16  C           1     -22.153  -4.432 -10.939  0.00  0.00     0.188 C 
HETATM   17  C           1     -23.476  -3.547  -9.256  0.00  0.00     0.127 C 
HETATM   18  C           1     -23.560  -4.913 -11.248  0.00  0.00     0.038 C 
HETATM   19  C           1     -24.431  -4.327 -10.144  0.00  0.00     0.022 C 
HETATM   20  O           1     -20.178  -4.987  -8.939  0.00  0.00    -0.271 OA
BRANCH  16  21
HETATM   21  C           1     -21.835  -3.170 -11.703  0.00  0.00     0.196 C 
HETATM   22  O           1     -20.815  -2.507 -11.418  0.00  0.00    -0.646 OA
HETATM   23  O           1     -22.593  -2.788 -12.620  0.00  0.00    -0.646 OA
ENDBRANCH  16  21
ENDBRANCH   1  14
BRANCH   1  24
HETATM   24  N           1     -22.824  -4.455  -6.736  0.00  0.00    -0.067 N 
HETATM   25  H           1     -23.472  -4.217  -7.521  0.00  0.00     0.275 HD
HETATM   26  H           1     -22.893  -5.476  -6.526  0.00  0.00     0.275 HD
HETATM   27  H           1     -23.088  -3.905  -5.888  0.00  0.00     0.275 HD
ENDBRANCH   1  24
TORSDOF 7
ENDMDL
MODEL 7
REMARK VINA RESULT:      -6.7     14.110     16.979
REMARK  7 active torsions:
REMARK  status: ('A' for Active; 'I' for Inactive)
REMARK    1  A    between atoms: C_1  and  C_2 
REMARK    2  A    between atoms: C_1  and  C_6 
REMARK    3  A    between atoms: C_2  and  C_3 
REMARK    4  A    between atoms: C_2  and  N_12 
REMARK       I    between atoms: C_3  and  N_4 
REMARK    5  A    between atoms: C_5  and  C_24 
REMARK    6  A    between atoms: C_6  and  C_7 
REMARK    7  A    between atoms: C_7  and  N_8 
REMARK       I    between atoms: N_8  and  C_9 
REMARK       I    between atoms: C_9  and  N_10 
ROOT
HETATM    1  C           1     -21.051  -5.681  -5.644  0.00  0.00     0.275 C 
ENDROOT
BRANCH   1   2
HETATM    2  C           1     -21.817  -5.478  -6.946  0.00  0.00     0.044 C 
BRANCH   2   3
HETATM    3  C           1     -21.928  -3.988  -7.242  0.00  0.00     0.023 C 
BRANCH   3   4
HETATM    4  C           1     -22.460  -3.790  -8.655  0.00  0.00     0.138 C 
BRANCH   4   5
HETATM    5  N           1     -23.929  -3.769  -8.628  0.00  0.00    -0.227 N 
HETATM    6  C           1     -24.579  -3.516  -9.684  0.00  0.00     0.665 C 
HETATM    7  N           1     -25.845  -3.498  -9.660  0.00  0.00    -0.235 N 
HETATM    8  N           1     -23.946  -3.275 -10.793  0.00  0.00    -0.235 N 
HETATM    9  H           1     -26.383  -3.288 -10.537  0.00  0.00     0.174 HD
HETATM   10  H           1     -26.356  -3.692  -8.764  0.00  0.00     0.174 HD
HETATM   11  H           1     -24.483  -3.067 -11.666  0.00  0.00     0.174 HD
HETATM   12  H           1     -22.901  -3.291 -10.814  0.00  0.00     0.174 HD
HETATM   13  H           1     -24.440  -3.963  -7.731  0.00  0.00     0.177 HD
ENDBRANCH   4   5
ENDBRANCH   3   4
ENDBRANCH   2   3
ENDBRANCH   1   2
BRANCH   1  14
HETATM   14  C           1     -20.241  -6.951  -5.730  0.00  0.00     0.251 C 
HETATM   15  N           1     -20.306  -7.874  -4.721  0.00  0.00    -0.336 N 
HETATM   16  C           1     -19.598  -9.149  -4.634  0.00  0.00     0.188 C 
HETATM   17  C           1     -21.098  -7.799  -3.497  0.00  0.00     0.127 C 
HETATM   18  C           1     -19.177  -9.231  -3.177  0.00  0.00     0.038 C 
HETATM   19  C           1     -20.167  -8.347  -2.428  0.00  0.00     0.022 C 
HETATM   20  O           1     -19.534  -7.154  -6.690  0.00  0.00    -0.271 OA
BRANCH  16  21
HETATM   21  C           1     -20.510 -10.295  -4.996  0.00  0.00     0.196 C 
HETATM   22  O           1     -20.739 -11.198  -4.163  0.00  0.00    -0.646 OA
HETATM   23  O           1     -21.037 -10.341  -6.129  0.00  0.00    -0.646 OA
ENDBRANCH  16  21
ENDBRANCH   1  14
BRANCH   1  24
HETATM   24  N           1     -20.133  -4.518  -5.418  0.00  0.00    -0.067 N 
HETATM   25  H           1     -19.140  -4.832  -5.513  0.00  0.00     0.275 HD
HETATM   26  H           1     -20.331  -3.775  -6.124  0.00  0.00     0.275 HD
HETATM   27  H           1     -20.286  -4.136  -4.456  0.00  0.00     0.275 HD
ENDBRANCH   1  24
TORSDOF 7
ENDMDL
MODEL 8
REMARK VINA RESULT:      -6.7      1.628      2.199
REMARK  7 active torsions:
REMARK  status: ('A' for Active; 'I' for Inactive)
REMARK    1  A    between atoms: C_1  and  C_2 
REMARK    2  A    between atoms: C_1  and  C_6 
REMARK    3  A    between atoms: C_2  and  C_3 
REMARK    4  A    between atoms: C_2  and  N_12 
REMARK       I    between atoms: C_3  and  N_4 
REMARK    5  A    between atoms: C_5  and  C_24 
REMARK    6  A    between atoms: C_6  and  C_7 
REMARK    7  A    between atoms: C_7  and  N_8 
REMARK       I    between atoms: N_8  and  C_9 
REMARK       I    between atoms: C_9  and  N_10 
ROOT
HETATM    1  C           1     -34.226  -2.211 -11.747  0.00  0.00     0.275 C 
ENDROOT
BRANCH   1   2
HETATM    2  C           1     -35.184  -3.369 -11.497  0.00  0.00     0.044 C 
BRANCH   2   3
HETATM    3  C           1     -34.493  -4.682 -11.839  0.00  0.00     0.023 C 
BRANCH   3   4
HETATM    4  C           1     -33.960  -5.323 -10.564  0.00  0.00     0.138 C 
BRANCH   4   5
HETATM    5  N           1     -33.573  -6.714 -10.839  0.00  0.00    -0.227 N 
HETATM    6  C           1     -34.149  -7.663 -10.231  0.00  0.00     0.665 C 
HETATM    7  N           1     -33.816  -8.861 -10.468  0.00  0.00    -0.235 N 
HETATM    8  N           1     -35.084  -7.407  -9.365  0.00  0.00    -0.235 N 
HETATM    9  H           1     -34.294  -9.649  -9.964  0.00  0.00     0.174 HD
HETATM   10  H           1     -33.061  -9.068 -11.167  0.00  0.00     0.174 HD
HETATM   11  H           1     -35.560  -8.192  -8.864  0.00  0.00     0.174 HD
HETATM   12  H           1     -35.360  -6.419  -9.170  0.00  0.00     0.174 HD
HETATM   13  H           1     -32.818  -6.920 -11.539  0.00  0.00     0.177 HD
ENDBRANCH   4   5
ENDBRANCH   3   4
ENDBRANCH   2   3
ENDBRANCH   1   2
BRANCH   1  14
HETATM   14  C           1     -35.014  -0.973 -12.100  0.00  0.00     0.251 C 
HETATM   15  N           1     -35.314  -0.702 -13.408  0.00  0.00    -0.336 N 
HETATM   16  C           1     -36.060   0.439 -13.931  0.00  0.00     0.188 C 
HETATM   17  C           1     -34.956  -1.490 -14.583  0.00  0.00     0.127 C 
HETATM   18  C           1     -35.297   0.826 -15.187  0.00  0.00     0.038 C 
HETATM   19  C           1     -34.574  -0.445 -15.618  0.00  0.00     0.022 C 
HETATM   20  O           1     -35.382  -0.222 -11.227  0.00  0.00    -0.271 OA
BRANCH  16  21
HETATM   21  C           1     -37.478   0.045 -14.264  0.00  0.00     0.196 C 
HETATM   22  O           1     -38.056   0.560 -15.246  0.00  0.00    -0.646 OA
HETATM   23  O           1     -38.075  -0.796 -13.557  0.00  0.00    -0.646 OA
ENDBRANCH  16  21
ENDBRANCH   1  14
BRANCH   1  24
HETATM   24  N           1     -33.420  -1.953 -10.509  0.00  0.00    -0.067 N 
HETATM   25  H           1     -32.432  -1.735 -10.775  0.00  0.00     0.275 HD
HETATM   26  H           1     -33.827  -1.143  -9.991  0.00  0.00     0.275 HD
HETATM   27  H           1     -33.437  -2.802  -9.900  0.00  0.00     0.275 HD
ENDBRANCH   1  24
TORSDOF 7
ENDMDL
MODEL 9
REMARK VINA RESULT:      -6.5     13.674     16.503
REMARK  7 active torsions:
REMARK  status: ('A' for Active; 'I' for Inactive)
REMARK    1  A    between atoms: C_1  and  C_2 
REMARK    2  A    between atoms: C_1  and  C_6 
REMARK    3  A    between atoms: C_2  and  C_3 
REMARK    4  A    between atoms: C_2  and  N_12 
REMARK       I    between atoms: C_3  and  N_4 
REMARK    5  A    between atoms: C_5  and  C_24 
REMARK    6  A    between atoms: C_6  and  C_7 
REMARK    7  A    between atoms: C_7  and  N_8 
REMARK       I    between atoms: N_8  and  C_9 
REMARK       I    between atoms: C_9  and  N_10 
ROOT
HETATM    1  C           1     -20.502  -5.393  -6.395  0.00  0.00     0.275 C 
ENDROOT
BRANCH   1   2
HETATM    2  C           1     -21.186  -4.100  -6.820  0.00  0.00     0.044 C 
BRANCH   2   3
HETATM    3  C           1     -21.464  -4.140  -8.317  0.00  0.00     0.023 C 
BRANCH   3   4
HETATM    4  C           1     -22.959  -3.982  -8.561  0.00  0.00     0.138 C 
BRANCH   4   5
HETATM    5  N           1     -23.194  -3.662  -9.976  0.00  0.00    -0.227 N 
HETATM    6  C           1     -24.376  -3.517 -10.404  0.00  0.00     0.665 C 
HETATM    7  N           1     -24.578  -3.241 -11.623  0.00  0.00    -0.235 N 
HETATM    8  N           1     -25.382  -3.651  -9.593  0.00  0.00    -0.235 N 
HETATM    9  H           1     -25.559  -3.121 -11.979  0.00  0.00     0.174 HD
HETATM   10  H           1     -23.765  -3.133 -12.279  0.00  0.00     0.174 HD
HETATM   11  H           1     -26.358  -3.531  -9.947  0.00  0.00     0.174 HD
HETATM   12  H           1     -25.216  -3.879  -8.587  0.00  0.00     0.174 HD
HETATM   13  H           1     -22.380  -3.553 -10.632  0.00  0.00     0.177 HD
ENDBRANCH   4   5
ENDBRANCH   3   4
ENDBRANCH   2   3
ENDBRANCH   1   2
BRANCH   1  14
HETATM   14  C           1     -21.438  -6.196  -5.527  0.00  0.00     0.251 C 
HETATM   15  N           1     -20.996  -7.341  -4.920  0.00  0.00    -0.336 N 
HETATM   16  C           1     -21.755  -8.238  -4.052  0.00  0.00     0.188 C 
HETATM   17  C           1     -19.664  -7.932  -5.000  0.00  0.00     0.127 C 
HETATM   18  C           1     -21.312  -9.624  -4.488  0.00  0.00     0.038 C 
HETATM   19  C           1     -19.934  -9.423  -5.107  0.00  0.00     0.022 C 
HETATM   20  O           1     -22.578  -5.829  -5.366  0.00  0.00    -0.271 OA
BRANCH  16  21
HETATM   21  C           1     -21.416  -7.996  -2.602  0.00  0.00     0.196 C 
HETATM   22  O           1     -21.423  -6.833  -2.144  0.00  0.00    -0.646 OA
HETATM   23  O           1     -21.127  -8.959  -1.859  0.00  0.00    -0.646 OA
ENDBRANCH  16  21
ENDBRANCH   1  14
BRANCH   1  24
HETATM   24  N           1     -20.142  -6.192  -7.613  0.00  0.00    -0.067 N 
HETATM   25  H           1     -20.987  -6.700  -7.959  0.00  0.00     0.275 HD
HETATM   26  H           1     -19.793  -5.551  -8.359  0.00  0.00     0.275 HD
HETATM   27  H           1     -19.397  -6.882  -7.368  0.00  0.00     0.275 HD
ENDBRANCH   1  24
TORSDOF 7
ENDMDL
