MODEL 1
REMARK VINA RESULT:      -7.0      0.000      0.000
REMARK  8 active torsions:
REMARK  status: ('A' for Active; 'I' for Inactive)
REMARK    1  A    between atoms: C_4  and  C_6 
REMARK    2  A    between atoms: C_6  and  C_7 
REMARK    3  A    between atoms: C_6  and  N_26 
REMARK    4  A    between atoms: C_7  and  C_8 
REMARK    5  A    between atoms: Se_11  and  C_23 
REMARK    6  A    between atoms: N_12  and  C_24 
REMARK    7  A    between atoms: C_23  and  C_24 
REMARK    8  A    between atoms: C_24  and  C_25 
REMARK       I    between atoms: C_25  and  N_26 
ROOT
HETATM    1  C           1     -21.102  -5.961  -7.278  0.00  0.00     0.190 C 
ENDROOT
BRANCH   1   2
HETATM    2  C           1     -19.612  -5.937  -7.038  0.00  0.00     0.197 C 
HETATM    3  O           1     -18.984  -4.859  -7.113  0.00  0.00    -0.646 OA
HETATM    4  O           1     -19.006  -6.996  -6.765  0.00  0.00    -0.646 OA
ENDBRANCH   1   2
BRANCH   1   5
HETATM    5  C           1     -21.675  -4.566  -7.060  0.00  0.00     0.077 C 
BRANCH   5   6
HETATM    6  C           1     -22.598  -4.224  -8.187  0.00  0.00    -0.028 A 
HETATM    7  C           1     -22.215  -3.943  -9.528  0.00  0.00    -0.002 A 
HETATM    8  C           1     -23.384  -3.676 -10.242  0.00  0.00     0.042 A 
HETATM    9  C           1     -20.981  -3.890 -10.204  0.00  0.00     0.014 A 
HETATM   10  N           1     -24.433  -3.793  -9.358  0.00  0.00    -0.365 N 
HETATM   11  C           1     -23.381  -3.358 -11.604  0.00  0.00     0.030 A 
HETATM   12  C           1     -23.969  -4.124  -8.112  0.00  0.00     0.096 A 
HETATM   13  H           1     -25.444  -3.650  -9.603  0.00  0.00     0.165 HD
HETATM   14  C           1     -22.145  -3.312 -12.255  0.00  0.00     0.002 A 
HETATM   15  C           1     -20.960  -3.574 -11.568  0.00  0.00     0.001 A 
ENDBRANCH   5   6
ENDBRANCH   1   5
BRANCH   1  16
HETATM   16  N           1     -21.725  -6.889  -6.355  0.00  0.00    -0.344 N 
HETATM   17  H           1     -21.798  -7.870  -6.595  0.00  0.00     0.163 HD
HETATM   18  C           1     -22.215  -6.439  -5.159  0.00  0.00     0.249 C 
HETATM   19  O           1     -23.361  -6.062  -5.078  0.00  0.00    -0.271 OA
BRANCH  18  20
HETATM   20  C           1     -21.325  -6.413  -3.941  0.00  0.00     0.274 C 
BRANCH  20  21
HETATM   21  N           1     -22.132  -6.014  -2.741  0.00  0.00    -0.067 N 
HETATM   22  H           1     -23.108  -5.785  -3.037  0.00  0.00     0.275 HD
HETATM   23  H           1     -22.153  -6.805  -2.057  0.00  0.00     0.275 HD
HETATM   24  H           1     -21.698  -5.176  -2.292  0.00  0.00     0.275 HD
ENDBRANCH  20  21
BRANCH  20  25
HETATM   25  C           1     -20.731  -7.797  -3.716  0.00  0.00     0.045 C 
BRANCH  25  26
HETATM   26 Se           1     -20.600  -8.144  -1.802  0.00  0.00     0.000 Se
HETATM   27  H           1     -19.733  -9.324  -1.958  0.00  0.00     0.000 HD
ENDBRANCH  25  26
ENDBRANCH  20  25
ENDBRANCH  18  20
ENDBRANCH   1  16
TORSDOF 8
ENDMDL
MODEL 2
REMARK VINA RESULT:      -6.5      4.443      7.517
REMARK  8 active torsions:
REMARK  status: ('A' for Active; 'I' for Inactive)
REMARK    1  A    between atoms: C_4  and  C_6 
REMARK    2  A    between atoms: C_6  and  C_7 
REMARK    3  A    between atoms: C_6  and  N_26 
REMARK    4  A    between atoms: C_7  and  C_8 
REMARK    5  A    between atoms: Se_11  and  C_23 
REMARK    6  A    between atoms: N_12  and  C_24 
REMARK    7  A    between atoms: C_23  and  C_24 
REMARK    8  A    between atoms: C_24  and  C_25 
REMARK       I    between atoms: C_25  and  N_26 
ROOT
HETATM    1  C           1     -22.879  -4.077  -9.972  0.00  0.00     0.190 C 
ENDROOT
BRANCH   1   2
HETATM    2  C           1     -24.035  -5.019 -10.206  0.00  0.00     0.197 C 
HETATM    3  O           1     -23.914  -5.969 -11.010  0.00  0.00    -0.646 OA
HETATM    4  O           1     -25.113  -4.850  -9.596  0.00  0.00    -0.646 OA
ENDBRANCH   1   2
BRANCH   1   5
HETATM    5  C           1     -22.695  -3.861  -8.476  0.00  0.00     0.077 C 
BRANCH   5   6
HETATM    6  C           1     -21.593  -4.743  -7.976  0.00  0.00    -0.028 A 
HETATM    7  C           1     -21.628  -5.543  -6.801  0.00  0.00    -0.002 A 
HETATM    8  C           1     -20.400  -6.199  -6.715  0.00  0.00     0.042 A 
HETATM    9  C           1     -22.591  -5.772  -5.799  0.00  0.00     0.014 A 
HETATM   10  N           1     -19.653  -5.805  -7.802  0.00  0.00    -0.365 N 
HETATM   11  C           1     -20.085  -7.077  -5.672  0.00  0.00     0.030 A 
HETATM   12  C           1     -20.365  -4.924  -8.572  0.00  0.00     0.096 A 
HETATM   13  H           1     -18.678  -6.133  -8.011  0.00  0.00     0.165 HD
HETATM   14  C           1     -21.056  -7.290  -4.689  0.00  0.00     0.002 A 
HETATM   15  C           1     -22.292  -6.648  -4.749  0.00  0.00     0.001 A 
ENDBRANCH   5   6
ENDBRANCH   1   5
BRANCH   1  16
HETATM   16  N           1     -23.156  -2.806 -10.613  0.00  0.00    -0.344 N 
HETATM   17  H           1     -23.040  -1.944 -10.097  0.00  0.00     0.163 HD
HETATM   18  C           1     -23.572  -2.773 -11.917  0.00  0.00     0.249 C 
HETATM   19  O           1     -24.752  -2.815 -12.175  0.00  0.00    -0.271 OA
BRANCH  18  20
HETATM   20  C           1     -22.558  -2.685 -13.031  0.00  0.00     0.274 C 
BRANCH  20  21
HETATM   21  N           1     -21.551  -3.786 -12.878  0.00  0.00    -0.067 N 
HETATM   22  H           1     -21.730  -4.302 -11.987  0.00  0.00     0.275 HD
HETATM   23  H           1     -21.633  -4.446 -13.685  0.00  0.00     0.275 HD
HETATM   24  H           1     -20.590  -3.377 -12.857  0.00  0.00     0.275 HD
ENDBRANCH  20  21
BRANCH  20  25
HETATM   25  C           1     -23.265  -2.825 -14.373  0.00  0.00     0.045 C 
BRANCH  25  26
HETATM   26 Se           1     -23.581  -1.057 -15.129  0.00  0.00     0.000 Se
HETATM   27  H           1     -22.159  -0.679 -15.138  0.00  0.00     0.000 HD
ENDBRANCH  25  26
ENDBRANCH  20  25
ENDBRANCH  18  20
ENDBRANCH   1  16
TORSDOF 8
ENDMDL
MODEL 3
REMARK VINA RESULT:      -6.4      3.522      7.915
REMARK  8 active torsions:
REMARK  status: ('A' for Active; 'I' for Inactive)
REMARK    1  A    between atoms: C_4  and  C_6 
REMARK    2  A    between atoms: C_6  and  C_7 
REMARK    3  A    between atoms: C_6  and  N_26 
REMARK    4  A    between atoms: C_7  and  C_8 
REMARK    5  A    between atoms: Se_11  and  C_23 
REMARK    6  A    between atoms: N_12  and  C_24 
REMARK    7  A    between atoms: C_23  and  C_24 
REMARK    8  A    between atoms: C_24  and  C_25 
REMARK       I    between atoms: C_25  and  N_26 
ROOT
HETATM    1  C           1     -21.125  -7.567  -5.108  0.00  0.00     0.190 C 
ENDROOT
BRANCH   1   2
HETATM    2  C           1     -21.987  -6.514  -4.456  0.00  0.00     0.197 C 
HETATM    3  O           1     -21.640  -6.009  -3.366  0.00  0.00    -0.646 OA
HETATM    4  O           1     -23.049  -6.147  -5.005  0.00  0.00    -0.646 OA
ENDBRANCH   1   2
BRANCH   1   5
HETATM    5  C           1     -20.452  -8.411  -4.033  0.00  0.00     0.077 C 
BRANCH   5   6
HETATM    6  C           1     -21.361  -9.533  -3.638  0.00  0.00    -0.028 A 
HETATM    7  C           1     -22.030  -9.670  -2.390  0.00  0.00    -0.002 A 
HETATM    8  C           1     -22.768 -10.852  -2.447  0.00  0.00     0.042 A 
HETATM    9  C           1     -22.075  -8.898  -1.213  0.00  0.00     0.014 A 
HETATM   10  N           1     -22.550 -11.406  -3.689  0.00  0.00    -0.365 N 
HETATM   11  C           1     -23.555 -11.304  -1.382  0.00  0.00     0.030 A 
HETATM   12  C           1     -21.701 -10.616  -4.417  0.00  0.00     0.096 A 
HETATM   13  H           1     -22.974 -12.304  -4.029  0.00  0.00     0.165 HD
HETATM   14  C           1     -23.585 -10.521  -0.223  0.00  0.00     0.002 A 
HETATM   15  C           1     -22.858  -9.336  -0.137  0.00  0.00     0.001 A 
ENDBRANCH   5   6
ENDBRANCH   1   5
BRANCH   1  16
HETATM   16  N           1     -20.111  -6.925  -5.922  0.00  0.00    -0.344 N 
HETATM   17  H           1     -19.253  -7.415  -6.141  0.00  0.00     0.163 HD
HETATM   18  C           1     -20.315  -5.657  -6.395  0.00  0.00     0.249 C 
HETATM   19  O           1     -19.960  -4.704  -5.741  0.00  0.00    -0.271 OA
BRANCH  18  20
HETATM   20  C           1     -20.982  -5.447  -7.732  0.00  0.00     0.274 C 
BRANCH  20  21
HETATM   21  N           1     -22.212  -4.609  -7.550  0.00  0.00    -0.067 N 
HETATM   22  H           1     -22.045  -3.903  -6.797  0.00  0.00     0.275 HD
HETATM   23  H           1     -22.432  -4.115  -8.446  0.00  0.00     0.275 HD
HETATM   24  H           1     -23.015  -5.221  -7.283  0.00  0.00     0.275 HD
ENDBRANCH  20  21
BRANCH  20  25
HETATM   25  C           1     -20.019  -4.739  -8.675  0.00  0.00     0.045 C 
BRANCH  25  26
HETATM   26 Se           1     -20.982  -4.150 -10.264  0.00  0.00     0.000 Se
HETATM   27  H           1     -21.032  -2.737  -9.852  0.00  0.00     0.000 HD
ENDBRANCH  25  26
ENDBRANCH  20  25
ENDBRANCH  18  20
ENDBRANCH   1  16
TORSDOF 8
ENDMDL
MODEL 4
REMARK VINA RESULT:      -6.4     13.584     16.132
REMARK  8 active torsions:
REMARK  status: ('A' for Active; 'I' for Inactive)
REMARK    1  A    between atoms: C_4  and  C_6 
REMARK    2  A    between atoms: C_6  and  C_7 
REMARK    3  A    between atoms: C_6  and  N_26 
REMARK    4  A    between atoms: C_7  and  C_8 
REMARK    5  A    between atoms: Se_11  and  C_23 
REMARK    6  A    between atoms: N_12  and  C_24 
REMARK    7  A    between atoms: C_23  and  C_24 
REMARK    8  A    between atoms: C_24  and  C_25 
REMARK       I    between atoms: C_25  and  N_26 
ROOT
HETATM    1  C           1     -36.864  -0.422 -10.918  0.00  0.00     0.190 C 
ENDROOT
BRANCH   1   2
HETATM    2  C           1     -37.018   0.474  -9.713  0.00  0.00     0.197 C 
HETATM    3  O           1     -37.924   1.336  -9.687  0.00  0.00    -0.646 OA
HETATM    4  O           1     -36.240   0.356  -8.742  0.00  0.00    -0.646 OA
ENDBRANCH   1   2
BRANCH   1   5
HETATM    5  C           1     -35.443  -0.970 -10.965  0.00  0.00     0.077 C 
BRANCH   5   6
HETATM    6  C           1     -35.478  -2.460 -10.835  0.00  0.00    -0.028 A 
HETATM    7  C           1     -34.411  -3.353 -11.132  0.00  0.00    -0.002 A 
HETATM    8  C           1     -34.871  -4.644 -10.871  0.00  0.00     0.042 A 
HETATM    9  C           1     -33.094  -3.184 -11.600  0.00  0.00     0.014 A 
HETATM   10  N           1     -36.171  -4.529 -10.432  0.00  0.00    -0.365 N 
HETATM   11  C           1     -34.075  -5.780 -11.055  0.00  0.00     0.030 A 
HETATM   12  C           1     -36.548  -3.213 -10.406  0.00  0.00     0.096 A 
HETATM   13  H           1     -36.784  -5.335 -10.156  0.00  0.00     0.165 HD
HETATM   14  C           1     -32.771  -5.588 -11.521  0.00  0.00     0.002 A 
HETATM   15  C           1     -32.285  -4.310 -11.790  0.00  0.00     0.001 A 
ENDBRANCH   5   6
ENDBRANCH   1   5
BRANCH   1  16
HETATM   16  N           1     -37.129   0.339 -12.123  0.00  0.00    -0.344 N 
HETATM   17  H           1     -37.435   1.301 -12.057  0.00  0.00     0.163 HD
HETATM   18  C           1     -36.966  -0.245 -13.351  0.00  0.00     0.249 C 
HETATM   19  O           1     -37.890  -0.820 -13.874  0.00  0.00    -0.271 OA
BRANCH  18  20
HETATM   20  C           1     -35.631  -0.169 -14.050  0.00  0.00     0.274 C 
BRANCH  20  21
HETATM   21  N           1     -35.048  -1.546 -14.163  0.00  0.00    -0.067 N 
HETATM   22  H           1     -34.891  -1.939 -13.206  0.00  0.00     0.275 HD
HETATM   23  H           1     -35.709  -2.162 -14.688  0.00  0.00     0.275 HD
HETATM   24  H           1     -34.137  -1.498 -14.672  0.00  0.00     0.275 HD
ENDBRANCH  20  21
BRANCH  20  25
HETATM   25  C           1     -35.818   0.418 -15.442  0.00  0.00     0.045 C 
BRANCH  25  26
HETATM   26 Se           1     -35.809  -1.018 -16.760  0.00  0.00     0.000 Se
HETATM   27  H           1     -34.402  -0.816 -17.141  0.00  0.00     0.000 HD
ENDBRANCH  25  26
ENDBRANCH  20  25
ENDBRANCH  18  20
ENDBRANCH   1  16
TORSDOF 8
ENDMDL
MODEL 5
REMARK VINA RESULT:      -6.4      3.437      7.891
REMARK  8 active torsions:
REMARK  status: ('A' for Active; 'I' for Inactive)
REMARK    1  A    between atoms: C_4  and  C_6 
REMARK    2  A    between atoms: C_6  and  C_7 
REMARK    3  A    between atoms: C_6  and  N_26 
REMARK    4  A    between atoms: C_7  and  C_8 
REMARK    5  A    between atoms: Se_11  and  C_23 
REMARK    6  A    between atoms: N_12  and  C_24 
REMARK    7  A    between atoms: C_23  and  C_24 
REMARK    8  A    between atoms: C_24  and  C_25 
REMARK       I    between atoms: C_25  and  N_26 
ROOT
HETATM    1  C           1     -20.419  -8.008  -4.739  0.00  0.00     0.190 C 
ENDROOT
BRANCH   1   2
HETATM    2  C           1     -19.303  -8.995  -4.980  0.00  0.00     0.197 C 
HETATM    3  O           1     -18.391  -9.127  -4.136  0.00  0.00    -0.646 OA
HETATM    4  O           1     -19.290  -9.681  -6.026  0.00  0.00    -0.646 OA
ENDBRANCH   1   2
BRANCH   1   5
HETATM    5  C           1     -21.550  -8.694  -3.983  0.00  0.00     0.077 C 
BRANCH   5   6
HETATM    6  C           1     -21.729  -8.037  -2.650  0.00  0.00    -0.028 A 
HETATM    7  C           1     -21.469  -8.628  -1.382  0.00  0.00    -0.002 A 
HETATM    8  C           1     -21.770  -7.671  -0.413  0.00  0.00     0.042 A 
HETATM    9  C           1     -21.006  -9.892  -0.967  0.00  0.00     0.014 A 
HETATM   10  N           1     -22.196  -6.543  -1.078  0.00  0.00    -0.365 N 
HETATM   11  C           1     -21.629  -7.914   0.958  0.00  0.00     0.030 A 
HETATM   12  C           1     -22.175  -6.754  -2.431  0.00  0.00     0.096 A 
HETATM   13  H           1     -22.494  -5.650  -0.614  0.00  0.00     0.165 HD
HETATM   14  C           1     -21.167  -9.175   1.347  0.00  0.00     0.002 A 
HETATM   15  C           1     -20.859 -10.151   0.401  0.00  0.00     0.001 A 
ENDBRANCH   5   6
ENDBRANCH   1   5
BRANCH   1  16
HETATM   16  N           1     -20.916  -7.520  -6.011  0.00  0.00    -0.344 N 
HETATM   17  H           1     -21.663  -8.011  -6.484  0.00  0.00     0.163 HD
HETATM   18  C           1     -20.373  -6.394  -6.570  0.00  0.00     0.249 C 
HETATM   19  O           1     -19.429  -6.487  -7.319  0.00  0.00    -0.271 OA
BRANCH  18  20
HETATM   20  C           1     -20.954  -5.039  -6.252  0.00  0.00     0.274 C 
BRANCH  20  21
HETATM   21  N           1     -20.184  -4.417  -5.126  0.00  0.00    -0.067 N 
HETATM   22  H           1     -19.215  -4.192  -5.447  0.00  0.00     0.275 HD
HETATM   23  H           1     -20.661  -3.539  -4.821  0.00  0.00     0.275 HD
HETATM   24  H           1     -20.139  -5.086  -4.324  0.00  0.00     0.275 HD
ENDBRANCH  20  21
BRANCH  20  25
HETATM   25  C           1     -20.863  -4.145  -7.483  0.00  0.00     0.045 C 
BRANCH  25  26
HETATM   26 Se           1     -22.576  -4.144  -8.412  0.00  0.00     0.000 Se
HETATM   27  H           1     -22.734  -5.607  -8.366  0.00  0.00     0.000 HD
ENDBRANCH  25  26
ENDBRANCH  20  25
ENDBRANCH  18  20
ENDBRANCH   1  16
TORSDOF 8
ENDMDL
MODEL 6
REMARK VINA RESULT:      -6.4      1.407      2.088
REMARK  8 active torsions:
REMARK  status: ('A' for Active; 'I' for Inactive)
REMARK    1  A    between atoms: C_4  and  C_6 
REMARK    2  A    between atoms: C_6  and  C_7 
REMARK    3  A    between atoms: C_6  and  N_26 
REMARK    4  A    between atoms: C_7  and  C_8 
REMARK    5  A    between atoms: Se_11  and  C_23 
REMARK    6  A    between atoms: N_12  and  C_24 
REMARK    7  A    between atoms: C_23  and  C_24 
REMARK    8  A    between atoms: C_24  and  C_25 
REMARK       I    between atoms: C_25  and  N_26 
ROOT
HETATM    1  C           1     -20.902  -5.601  -7.601  0.00  0.00     0.190 C 
ENDROOT
BRANCH   1   2
HETATM    2  C           1     -20.165  -4.661  -6.678  0.00  0.00     0.197 C 
HETATM    3  O           1     -20.793  -3.777  -6.055  0.00  0.00    -0.646 OA
HETATM    4  O           1     -18.927  -4.765  -6.538  0.00  0.00    -0.646 OA
ENDBRANCH   1   2
BRANCH   1   5
HETATM    5  C           1     -22.078  -4.870  -8.238  0.00  0.00     0.077 C 
BRANCH   5   6
HETATM    6  C           1     -21.695  -4.407  -9.609  0.00  0.00    -0.028 A 
HETATM    7  C           1     -22.582  -3.909 -10.603  0.00  0.00    -0.002 A 
HETATM    8  C           1     -21.810  -3.596 -11.722  0.00  0.00     0.042 A 
HETATM    9  C           1     -23.973  -3.695 -10.657  0.00  0.00     0.014 A 
HETATM   10  N           1     -20.503  -3.896 -11.409  0.00  0.00    -0.365 N 
HETATM   11  C           1     -22.362  -3.076 -12.898  0.00  0.00     0.030 A 
HETATM   12  C           1     -20.423  -4.387 -10.133  0.00  0.00     0.096 A 
HETATM   13  H           1     -19.686  -3.766 -12.055  0.00  0.00     0.165 HD
HETATM   14  C           1     -23.745  -2.871 -12.929  0.00  0.00     0.002 A 
HETATM   15  C           1     -24.541  -3.175 -11.826  0.00  0.00     0.001 A 
ENDBRANCH   5   6
ENDBRANCH   1   5
BRANCH   1  16
HETATM   16  N           1     -21.391  -6.736  -6.844  0.00  0.00    -0.344 N 
HETATM   17  H           1     -21.405  -7.656  -7.266  0.00  0.00     0.163 HD
HETATM   18  C           1     -21.833  -6.564  -5.561  0.00  0.00     0.249 C 
HETATM   19  O           1     -22.995  -6.309  -5.351  0.00  0.00    -0.271 OA
BRANCH  18  20
HETATM   20  C           1     -20.868  -6.691  -4.407  0.00  0.00     0.274 C 
BRANCH  20  21
HETATM   21  N           1     -21.228  -5.698  -3.343  0.00  0.00    -0.067 N 
HETATM   22  H           1     -22.264  -5.698  -3.200  0.00  0.00     0.275 HD
HETATM   23  H           1     -20.754  -5.958  -2.449  0.00  0.00     0.275 HD
HETATM   24  H           1     -20.918  -4.744  -3.638  0.00  0.00     0.275 HD
ENDBRANCH  20  21
BRANCH  20  25
HETATM   25  C           1     -20.945  -8.100  -3.833  0.00  0.00     0.045 C 
BRANCH  25  26
HETATM   26 Se           1     -21.362  -8.005  -1.932  0.00  0.00     0.000 Se
HETATM   27  H           1     -22.646  -7.312  -2.129  0.00  0.00     0.000 HD
ENDBRANCH  25  26
ENDBRANCH  20  25
ENDBRANCH  18  20
ENDBRANCH   1  16
TORSDOF 8
ENDMDL
MODEL 7
REMARK VINA RESULT:      -6.3      3.089      4.516
REMARK  8 active torsions:
REMARK  status: ('A' for Active; 'I' for Inactive)
REMARK    1  A    between atoms: C_4  and  C_6 
REMARK    2  A    between atoms: C_6  and  C_7 
REMARK    3  A    between atoms: C_6  and  N_26 
REMARK    4  A    between atoms: C_7  and  C_8 
REMARK    5  A    between atoms: Se_11  and  C_23 
REMARK    6  A    between atoms: N_12  and  C_24 
REMARK    7  A    between atoms: C_23  and  C_24 
REMARK    8  A    between atoms: C_24  and  C_25 
REMARK       I    between atoms: C_25  and  N_26 
ROOT
HETATM    1  C           1     -21.462  -7.378  -3.889  0.00  0.00     0.190 C 
ENDROOT
BRANCH   1   2
HETATM    2  C           1     -21.578  -6.840  -2.484  0.00  0.00     0.197 C 
HETATM    3  O           1     -20.889  -7.335  -1.565  0.00  0.00    -0.646 OA
HETATM    4  O           1     -22.365  -5.900  -2.238  0.00  0.00    -0.646 OA
ENDBRANCH   1   2
BRANCH   1   5
HETATM    5  C           1     -22.204  -6.457  -4.849  0.00  0.00     0.077 C 
BRANCH   5   6
HETATM    6  C           1     -21.324  -6.140  -6.017  0.00  0.00    -0.028 A 
HETATM    7  C           1     -21.661  -5.306  -7.119  0.00  0.00    -0.002 A 
HETATM    8  C           1     -20.558  -5.286  -7.972  0.00  0.00     0.042 A 
HETATM    9  C           1     -22.805  -4.565  -7.473  0.00  0.00     0.014 A 
HETATM   10  N           1     -19.590  -6.082  -7.401  0.00  0.00    -0.365 N 
HETATM   11  C           1     -20.540  -4.558  -9.167  0.00  0.00     0.030 A 
HETATM   12  C           1     -20.043  -6.604  -6.218  0.00  0.00     0.096 A 
HETATM   13  H           1     -18.642  -6.263  -7.812  0.00  0.00     0.165 HD
HETATM   14  C           1     -21.686  -3.829  -9.498  0.00  0.00     0.002 A 
HETATM   15  C           1     -22.804  -3.830  -8.664  0.00  0.00     0.001 A 
ENDBRANCH   5   6
ENDBRANCH   1   5
BRANCH   1  16
HETATM   16  N           1     -22.043  -8.706  -3.947  0.00  0.00    -0.344 N 
HETATM   17  H           1     -23.047  -8.820  -3.908  0.00  0.00     0.163 HD
HETATM   18  C           1     -21.232  -9.803  -4.055  0.00  0.00     0.249 C 
HETATM   19  O           1     -20.826 -10.355  -3.060  0.00  0.00    -0.271 OA
BRANCH  18  20
HETATM   20  C           1     -20.845 -10.324  -5.417  0.00  0.00     0.274 C 
BRANCH  20  21
HETATM   21  N           1     -19.397 -10.030  -5.672  0.00  0.00    -0.067 N 
HETATM   22  H           1     -19.315  -9.219  -6.327  0.00  0.00     0.275 HD
HETATM   23  H           1     -18.925  -9.796  -4.769  0.00  0.00     0.275 HD
HETATM   24  H           1     -18.941 -10.869  -6.096  0.00  0.00     0.275 HD
ENDBRANCH  20  21
BRANCH  20  25
HETATM   25  C           1     -21.074 -11.829  -5.470  0.00  0.00     0.045 C 
BRANCH  25  26
HETATM   26 Se           1     -20.374 -12.534  -7.147  0.00  0.00     0.000 Se
HETATM   27  H           1     -21.698 -12.678  -7.774  0.00  0.00     0.000 HD
ENDBRANCH  25  26
ENDBRANCH  20  25
ENDBRANCH  18  20
ENDBRANCH   1  16
TORSDOF 8
ENDMDL
MODEL 8
REMARK VINA RESULT:      -6.2      4.222      7.717
REMARK  8 active torsions:
REMARK  status: ('A' for Active; 'I' for Inactive)
REMARK    1  A    between atoms: C_4  and  C_6 
REMARK    2  A    between atoms: C_6  and  C_7 
REMARK    3  A    between atoms: C_6  and  N_26 
REMARK    4  A    between atoms: C_7  and  C_8 
REMARK    5  A    between atoms: Se_11  and  C_23 
REMARK    6  A    between atoms: N_12  and  C_24 
REMARK    7  A    between atoms: C_23  and  C_24 
REMARK    8  A    between atoms: C_24  and  C_25 
REMARK       I    between atoms: C_25  and  N_26 
ROOT
HETATM    1  C           1     -21.393  -7.817  -2.516  0.00  0.00     0.190 C 
ENDROOT
BRANCH   1   2
HETATM    2  C           1     -22.186  -7.864  -1.233  0.00  0.00     0.197 C 
HETATM    3  O           1     -22.703  -6.820  -0.779  0.00  0.00    -0.646 OA
HETATM    4  O           1     -22.324  -8.947  -0.623  0.00  0.00    -0.646 OA
ENDBRANCH   1   2
BRANCH   1   5
HETATM    5  C           1     -19.951  -8.225  -2.238  0.00  0.00     0.077 C 
BRANCH   5   6
HETATM    6  C           1     -19.482  -9.161  -3.308  0.00  0.00    -0.028 A 
HETATM    7  C           1     -18.149  -9.620  -3.495  0.00  0.00    -0.002 A 
HETATM    8  C           1     -18.158 -10.471  -4.600  0.00  0.00     0.042 A 
HETATM    9  C           1     -16.931  -9.390  -2.826  0.00  0.00     0.014 A 
HETATM   10  N           1     -19.454 -10.521  -5.061  0.00  0.00    -0.365 N 
HETATM   11  C           1     -17.005 -11.107  -5.073  0.00  0.00     0.030 A 
HETATM   12  C           1     -20.264  -9.733  -4.286  0.00  0.00     0.096 A 
HETATM   13  H           1     -19.777 -11.083  -5.886  0.00  0.00     0.165 HD
HETATM   14  C           1     -15.807 -10.865  -4.393  0.00  0.00     0.002 A 
HETATM   15  C           1     -15.768 -10.019  -3.286  0.00  0.00     0.001 A 
ENDBRANCH   5   6
ENDBRANCH   1   5
BRANCH   1  16
HETATM   16  N           1     -21.419  -6.470  -3.051  0.00  0.00    -0.344 N 
HETATM   17  H           1     -21.258  -5.680  -2.440  0.00  0.00     0.163 HD
HETATM   18  C           1     -21.660  -6.267  -4.383  0.00  0.00     0.249 C 
HETATM   19  O           1     -22.793  -6.120  -4.776  0.00  0.00    -0.271 OA
BRANCH  18  20
HETATM   20  C           1     -20.511  -6.228  -5.361  0.00  0.00     0.274 C 
BRANCH  20  21
HETATM   21  N           1     -20.900  -6.949  -6.617  0.00  0.00    -0.067 N 
HETATM   22  H           1     -21.938  -7.065  -6.646  0.00  0.00     0.275 HD
HETATM   23  H           1     -20.589  -6.394  -7.447  0.00  0.00     0.275 HD
HETATM   24  H           1     -20.443  -7.888  -6.635  0.00  0.00     0.275 HD
ENDBRANCH  20  21
BRANCH  20  25
HETATM   25  C           1     -20.173  -4.780  -5.690  0.00  0.00     0.045 C 
BRANCH  25  26
HETATM   26 Se           1     -20.060  -4.563  -7.624  0.00  0.00     0.000 Se
HETATM   27  H           1     -20.889  -3.347  -7.652  0.00  0.00     0.000 HD
ENDBRANCH  25  26
ENDBRANCH  20  25
ENDBRANCH  18  20
ENDBRANCH   1  16
TORSDOF 8
ENDMDL
MODEL 9
REMARK VINA RESULT:      -6.2      5.524      8.450
REMARK  8 active torsions:
REMARK  status: ('A' for Active; 'I' for Inactive)
REMARK    1  A    between atoms: C_4  and  C_6 
REMARK    2  A    between atoms: C_6  and  C_7 
REMARK    3  A    between atoms: C_6  and  N_26 
REMARK    4  A    between atoms: C_7  and  C_8 
REMARK    5  A    between atoms: Se_11  and  C_23 
REMARK    6  A    between atoms: N_12  and  C_24 
REMARK    7  A    between atoms: C_23  and  C_24 
REMARK    8  A    between atoms: C_24  and  C_25 
REMARK       I    between atoms: C_25  and  N_26 
ROOT
HETATM    1  C           1     -21.167  -7.710  -3.019  0.00  0.00     0.190 C 
ENDROOT
BRANCH   1   2
HETATM    2  C           1     -21.886  -6.398  -3.215  0.00  0.00     0.197 C 
HETATM    3  O           1     -22.341  -6.096  -4.340  0.00  0.00    -0.646 OA
HETATM    4  O           1     -22.025  -5.612  -2.253  0.00  0.00    -0.646 OA
ENDBRANCH   1   2
BRANCH   1   5
HETATM    5  C           1     -20.801  -7.875  -1.549  0.00  0.00     0.077 C 
BRANCH   5   6
HETATM    6  C           1     -21.948  -8.497  -0.816  0.00  0.00    -0.028 A 
HETATM    7  C           1     -22.457  -9.810  -1.016  0.00  0.00    -0.002 A 
HETATM    8  C           1     -23.520  -9.978  -0.129  0.00  0.00     0.042 A 
HETATM    9  C           1     -22.112 -10.875  -1.870  0.00  0.00     0.014 A 
HETATM   10  N           1     -23.646  -8.804   0.579  0.00  0.00    -0.365 N 
HETATM   11  C           1     -24.260 -11.163  -0.053  0.00  0.00     0.030 A 
HETATM   12  C           1     -22.700  -7.901   0.171  0.00  0.00     0.096 A 
HETATM   13  H           1     -24.363  -8.626   1.324  0.00  0.00     0.165 HD
HETATM   14  C           1     -23.900 -12.207  -0.910  0.00  0.00     0.002 A 
HETATM   15  C           1     -22.841 -12.068  -1.806  0.00  0.00     0.001 A 
ENDBRANCH   5   6
ENDBRANCH   1   5
BRANCH   1  16
HETATM   16  N           1     -19.959  -7.724  -3.822  0.00  0.00    -0.344 N 
HETATM   17  H           1     -19.175  -7.137  -3.566  0.00  0.00     0.163 HD
HETATM   18  C           1     -19.880  -8.531  -4.925  0.00  0.00     0.249 C 
HETATM   19  O           1     -20.229  -8.116  -6.004  0.00  0.00    -0.271 OA
BRANCH  18  20
HETATM   20  C           1     -19.356  -9.940  -4.792  0.00  0.00     0.274 C 
BRANCH  20  21
HETATM   21  N           1     -19.073 -10.498  -6.155  0.00  0.00    -0.067 N 
HETATM   22  H           1     -18.620 -11.436  -6.061  0.00  0.00     0.275 HD
HETATM   23  H           1     -19.970 -10.597  -6.683  0.00  0.00     0.275 HD
HETATM   24  H           1     -18.434  -9.852  -6.670  0.00  0.00     0.275 HD
ENDBRANCH  20  21
BRANCH  20  25
HETATM   25  C           1     -18.072  -9.930  -3.972  0.00  0.00     0.045 C 
BRANCH  25  26
HETATM   26 Se           1     -16.544 -10.189  -5.153  0.00  0.00     0.000 Se
HETATM   27  H           1     -16.575  -8.817  -5.685  0.00  0.00     0.000 HD
ENDBRANCH  25  26
ENDBRANCH  20  25
ENDBRANCH  18  20
ENDBRANCH   1  16
TORSDOF 8
ENDMDL
