MODEL 1
REMARK VINA RESULT:      -5.4      0.000      0.000
REMARK  8 active torsions:
REMARK  status: ('A' for Active; 'I' for Inactive)
REMARK       I    between atoms: C_1  and  N_6 
REMARK    1  A    between atoms: C_1  and  C_15 
REMARK    2  A    between atoms: C_5  and  C_20 
REMARK    3  A    between atoms: N_6  and  C_20 
REMARK    4  A    between atoms: C_12  and  C_17 
REMARK    5  A    between atoms: S_13  and  C_14 
REMARK    6  A    between atoms: C_14  and  C_15 
REMARK    7  A    between atoms: C_15  and  N_16 
REMARK    8  A    between atoms: C_17  and  C_20 
ROOT
HETATM    1  C           1     -21.671  -4.590  -7.637  0.00  0.00     0.249 C 
HETATM    2  O           1     -21.539  -3.446  -7.270  0.00  0.00    -0.271 OA
HETATM    3  H           1     -22.395  -5.818  -9.136  0.00  0.00     0.163 HD
HETATM    4  N           1     -22.285  -4.860  -8.830  0.00  0.00    -0.344 N 
ENDROOT
BRANCH   1   5
HETATM    5  C           1     -21.156  -5.719  -6.780  0.00  0.00     0.283 C 
BRANCH   5   6
HETATM    6  C           1     -20.800  -5.189  -5.397  0.00  0.00     0.113 C 
BRANCH   6   7
HETATM    7  S           1     -21.402  -6.344  -4.133  0.00  0.00    -0.180 SA
HETATM    8  H           1     -22.697  -5.995  -4.229  0.00  0.00     0.101 HD
ENDBRANCH   6   7
ENDBRANCH   5   6
BRANCH   5   9
HETATM    9  N           1     -19.933  -6.313  -7.416  0.00  0.00    -0.066 N 
HETATM   10  H           1     -20.166  -6.639  -8.381  0.00  0.00     0.275 HD
HETATM   11  H           1     -19.181  -5.590  -7.465  0.00  0.00     0.275 HD
HETATM   12  H           1     -19.603  -7.124  -6.845  0.00  0.00     0.275 HD
ENDBRANCH   5   9
ENDBRANCH   1   5
BRANCH   4  13
HETATM   13  C           1     -22.779  -3.774  -9.654  0.00  0.00     0.195 C 
BRANCH  13  14
HETATM   14  C           1     -24.287  -3.822  -9.697  0.00  0.00     0.197 C 
HETATM   15  O           1     -24.872  -4.908  -9.902  0.00  0.00    -0.646 OA
HETATM   16  O           1     -24.952  -2.777  -9.528  0.00  0.00    -0.646 OA
ENDBRANCH  13  14
BRANCH  13  17
HETATM   17  C           1     -22.225  -3.916 -11.065  0.00  0.00     0.149 C 
BRANCH  17  18
HETATM   18  C           1     -20.725  -3.746 -11.037  0.00  0.00     0.175 C 
HETATM   19  O           1     -19.991  -4.719 -10.759  0.00  0.00    -0.648 OA
HETATM   20  O           1     -20.218  -2.633 -11.292  0.00  0.00    -0.648 OA
ENDBRANCH  17  18
ENDBRANCH  13  17
ENDBRANCH   4  13
TORSDOF 8
ENDMDL
MODEL 2
REMARK VINA RESULT:      -5.3      1.562      3.168
REMARK  8 active torsions:
REMARK  status: ('A' for Active; 'I' for Inactive)
REMARK       I    between atoms: C_1  and  N_6 
REMARK    1  A    between atoms: C_1  and  C_15 
REMARK    2  A    between atoms: C_5  and  C_20 
REMARK    3  A    between atoms: N_6  and  C_20 
REMARK    4  A    between atoms: C_12  and  C_17 
REMARK    5  A    between atoms: S_13  and  C_14 
REMARK    6  A    between atoms: C_14  and  C_15 
REMARK    7  A    between atoms: C_15  and  N_16 
REMARK    8  A    between atoms: C_17  and  C_20 
ROOT
HETATM    1  C           1     -21.268  -4.347  -8.539  0.00  0.00     0.249 C 
HETATM    2  O           1     -20.305  -4.998  -8.866  0.00  0.00    -0.271 OA
HETATM    3  H           1     -22.996  -3.421  -9.204  0.00  0.00     0.163 HD
HETATM    4  N           1     -22.189  -3.967  -9.478  0.00  0.00    -0.344 N 
ENDROOT
BRANCH   1   5
HETATM    5  C           1     -21.458  -3.956  -7.095  0.00  0.00     0.283 C 
BRANCH   5   6
HETATM    6  C           1     -20.372  -4.604  -6.244  0.00  0.00     0.113 C 
BRANCH   6   7
HETATM    7  S           1     -21.091  -5.959  -5.275  0.00  0.00    -0.180 SA
HETATM    8  H           1     -21.298  -6.783  -6.318  0.00  0.00     0.101 HD
ENDBRANCH   6   7
ENDBRANCH   5   6
BRANCH   5   9
HETATM    9  N           1     -22.805  -4.420  -6.623  0.00  0.00    -0.066 N 
HETATM   10  H           1     -23.149  -5.182  -7.249  0.00  0.00     0.275 HD
HETATM   11  H           1     -22.725  -4.780  -5.646  0.00  0.00     0.275 HD
HETATM   12  H           1     -23.476  -3.619  -6.648  0.00  0.00     0.275 HD
ENDBRANCH   5   9
ENDBRANCH   1   5
BRANCH   4  13
HETATM   13  C           1     -22.007  -4.344 -10.866  0.00  0.00     0.195 C 
BRANCH  13  14
HETATM   14  C           1     -21.479  -3.162 -11.642  0.00  0.00     0.197 C 
HETATM   15  O           1     -22.156  -2.671 -12.571  0.00  0.00    -0.646 OA
HETATM   16  O           1     -20.363  -2.674 -11.358  0.00  0.00    -0.646 OA
ENDBRANCH  13  14
BRANCH  13  17
HETATM   17  C           1     -23.343  -4.781 -11.452  0.00  0.00     0.149 C 
BRANCH  17  18
HETATM   18  C           1     -24.467  -4.224 -10.613  0.00  0.00     0.175 C 
HETATM   19  O           1     -24.915  -4.884  -9.651  0.00  0.00    -0.648 OA
HETATM   20  O           1     -24.950  -3.103 -10.881  0.00  0.00    -0.648 OA
ENDBRANCH  17  18
ENDBRANCH  13  17
ENDBRANCH   4  13
TORSDOF 8
ENDMDL
MODEL 3
REMARK VINA RESULT:      -4.9      3.094      5.527
REMARK  8 active torsions:
REMARK  status: ('A' for Active; 'I' for Inactive)
REMARK       I    between atoms: C_1  and  N_6 
REMARK    1  A    between atoms: C_1  and  C_15 
REMARK    2  A    between atoms: C_5  and  C_20 
REMARK    3  A    between atoms: N_6  and  C_20 
REMARK    4  A    between atoms: C_12  and  C_17 
REMARK    5  A    between atoms: S_13  and  C_14 
REMARK    6  A    between atoms: C_14  and  C_15 
REMARK    7  A    between atoms: C_15  and  N_16 
REMARK    8  A    between atoms: C_17  and  C_20 
ROOT
HETATM    1  C           1     -23.024  -4.321  -8.961  0.00  0.00     0.249 C 
HETATM    2  O           1     -22.912  -3.176  -8.591  0.00  0.00    -0.271 OA
HETATM    3  H           1     -22.264  -6.238  -8.799  0.00  0.00     0.163 HD
HETATM    4  N           1     -22.169  -5.280  -8.489  0.00  0.00    -0.344 N 
ENDROOT
BRANCH   1   5
HETATM    5  C           1     -24.109  -4.692  -9.941  0.00  0.00     0.283 C 
BRANCH   5   6
HETATM    6  C           1     -23.555  -4.639 -11.359  0.00  0.00     0.113 C 
BRANCH   6   7
HETATM    7  S           1     -24.157  -3.141 -12.188  0.00  0.00    -0.180 SA
HETATM    8  H           1     -22.949  -2.712 -12.597  0.00  0.00     0.101 HD
ENDBRANCH   6   7
ENDBRANCH   5   6
BRANCH   5   9
HETATM    9  N           1     -25.250  -3.727  -9.814  0.00  0.00    -0.066 N 
HETATM   10  H           1     -25.561  -3.428 -10.765  0.00  0.00     0.275 HD
HETATM   11  H           1     -26.044  -4.190  -9.317  0.00  0.00     0.275 HD
HETATM   12  H           1     -24.938  -2.890  -9.271  0.00  0.00     0.275 HD
ENDBRANCH   5   9
ENDBRANCH   1   5
BRANCH   4  13
HETATM   13  C           1     -21.128  -4.922  -7.546  0.00  0.00     0.195 C 
BRANCH  13  14
HETATM   14  C           1     -19.840  -4.669  -8.292  0.00  0.00     0.197 C 
HETATM   15  O           1     -19.808  -4.775  -9.538  0.00  0.00    -0.646 OA
HETATM   16  O           1     -18.805  -4.354  -7.666  0.00  0.00    -0.646 OA
ENDBRANCH  13  14
BRANCH  13  17
HETATM   17  C           1     -20.926  -6.062  -6.557  0.00  0.00     0.149 C 
BRANCH  17  18
HETATM   18  C           1     -21.861  -5.884  -5.386  0.00  0.00     0.175 C 
HETATM   19  O           1     -23.097  -5.853  -5.571  0.00  0.00    -0.648 OA
HETATM   20  O           1     -21.400  -5.768  -4.230  0.00  0.00    -0.648 OA
ENDBRANCH  17  18
ENDBRANCH  13  17
ENDBRANCH   4  13
TORSDOF 8
ENDMDL
MODEL 4
REMARK VINA RESULT:      -4.7      4.239      6.536
REMARK  8 active torsions:
REMARK  status: ('A' for Active; 'I' for Inactive)
REMARK       I    between atoms: C_1  and  N_6 
REMARK    1  A    between atoms: C_1  and  C_15 
REMARK    2  A    between atoms: C_5  and  C_20 
REMARK    3  A    between atoms: N_6  and  C_20 
REMARK    4  A    between atoms: C_12  and  C_17 
REMARK    5  A    between atoms: S_13  and  C_14 
REMARK    6  A    between atoms: C_14  and  C_15 
REMARK    7  A    between atoms: C_15  and  N_16 
REMARK    8  A    between atoms: C_17  and  C_20 
ROOT
HETATM    1  C           1     -21.385  -5.836  -5.599  0.00  0.00     0.249 C 
HETATM    2  O           1     -22.581  -5.665  -5.619  0.00  0.00    -0.271 OA
HETATM    3  H           1     -19.836  -6.890  -4.721  0.00  0.00     0.163 HD
HETATM    4  N           1     -20.838  -6.748  -4.737  0.00  0.00    -0.344 N 
ENDROOT
BRANCH   1   5
HETATM    5  C           1     -20.496  -5.046  -6.527  0.00  0.00     0.283 C 
BRANCH   5   6
HETATM    6  C           1     -21.305  -3.933  -7.183  0.00  0.00     0.113 C 
BRANCH   6   7
HETATM    7  S           1     -21.664  -4.381  -8.904  0.00  0.00    -0.180 SA
HETATM    8  H           1     -22.929  -3.924  -8.907  0.00  0.00     0.101 HD
ENDBRANCH   6   7
ENDBRANCH   5   6
BRANCH   5   9
HETATM    9  N           1     -19.945  -5.954  -7.586  0.00  0.00    -0.066 N 
HETATM   10  H           1     -18.952  -5.698  -7.782  0.00  0.00     0.275 HD
HETATM   11  H           1     -19.991  -6.943  -7.254  0.00  0.00     0.275 HD
HETATM   12  H           1     -20.510  -5.851  -8.460  0.00  0.00     0.275 HD
ENDBRANCH   5   9
ENDBRANCH   1   5
BRANCH   4  13
HETATM   13  C           1     -21.693  -7.508  -3.847  0.00  0.00     0.195 C 
BRANCH  13  14
HETATM   14  C           1     -21.633  -6.911  -2.462  0.00  0.00     0.197 C 
HETATM   15  O           1     -20.910  -7.433  -1.586  0.00  0.00    -0.646 OA
HETATM   16  O           1     -22.307  -5.893  -2.189  0.00  0.00    -0.646 OA
ENDBRANCH  13  14
BRANCH  13  17
HETATM   17  C           1     -21.216  -8.953  -3.798  0.00  0.00     0.149 C 
BRANCH  17  18
HETATM   18  C           1     -19.921  -9.083  -4.562  0.00  0.00     0.175 C 
HETATM   19  O           1     -19.940  -9.348  -5.783  0.00  0.00    -0.648 OA
HETATM   20  O           1     -18.830  -8.924  -3.974  0.00  0.00    -0.648 OA
ENDBRANCH  17  18
ENDBRANCH  13  17
ENDBRANCH   4  13
TORSDOF 8
ENDMDL
MODEL 5
REMARK VINA RESULT:      -4.5      4.097      6.707
REMARK  8 active torsions:
REMARK  status: ('A' for Active; 'I' for Inactive)
REMARK       I    between atoms: C_1  and  N_6 
REMARK    1  A    between atoms: C_1  and  C_15 
REMARK    2  A    between atoms: C_5  and  C_20 
REMARK    3  A    between atoms: N_6  and  C_20 
REMARK    4  A    between atoms: C_12  and  C_17 
REMARK    5  A    between atoms: S_13  and  C_14 
REMARK    6  A    between atoms: C_14  and  C_15 
REMARK    7  A    between atoms: C_15  and  N_16 
REMARK    8  A    between atoms: C_17  and  C_20 
ROOT
HETATM    1  C           1     -20.878  -5.499  -6.538  0.00  0.00     0.249 C 
HETATM    2  O           1     -20.522  -4.725  -5.681  0.00  0.00    -0.271 OA
HETATM    3  H           1     -21.172  -7.492  -7.009  0.00  0.00     0.163 HD
HETATM    4  N           1     -20.873  -6.845  -6.291  0.00  0.00    -0.344 N 
ENDROOT
BRANCH   1   5
HETATM    5  C           1     -21.330  -4.979  -7.880  0.00  0.00     0.283 C 
BRANCH   5   6
HETATM    6  C           1     -20.116  -4.564  -8.701  0.00  0.00     0.113 C 
BRANCH   6   7
HETATM    7  S           1     -20.626  -4.239 -10.412  0.00  0.00    -0.180 SA
HETATM    8  H           1     -19.610  -4.906 -10.990  0.00  0.00     0.101 HD
ENDBRANCH   6   7
ENDBRANCH   5   6
BRANCH   5   9
HETATM    9  N           1     -22.227  -3.793  -7.681  0.00  0.00    -0.066 N 
HETATM   10  H           1     -21.914  -3.011  -8.298  0.00  0.00     0.275 HD
HETATM   11  H           1     -23.209  -4.056  -7.923  0.00  0.00     0.275 HD
HETATM   12  H           1     -22.182  -3.487  -6.682  0.00  0.00     0.275 HD
ENDBRANCH   5   9
ENDBRANCH   1   5
BRANCH   4  13
HETATM   13  C           1     -20.440  -7.344  -5.000  0.00  0.00     0.195 C 
BRANCH  13  14
HETATM   14  C           1     -19.581  -8.569  -5.198  0.00  0.00     0.197 C 
HETATM   15  O           1     -18.808  -8.639  -6.179  0.00  0.00    -0.646 OA
HETATM   16  O           1     -19.641  -9.514  -4.382  0.00  0.00    -0.646 OA
ENDBRANCH  13  14
BRANCH  13  17
HETATM   17  C           1     -21.658  -7.707  -4.161  0.00  0.00     0.149 C 
BRANCH  17  18
HETATM   18  C           1     -21.610  -6.956  -2.853  0.00  0.00     0.175 C 
HETATM   19  O           1     -20.844  -7.337  -1.941  0.00  0.00    -0.648 OA
HETATM   20  O           1     -22.336  -5.954  -2.681  0.00  0.00    -0.648 OA
ENDBRANCH  17  18
ENDBRANCH  13  17
ENDBRANCH   4  13
TORSDOF 8
ENDMDL
MODEL 6
REMARK VINA RESULT:      -4.5      3.170      5.847
REMARK  8 active torsions:
REMARK  status: ('A' for Active; 'I' for Inactive)
REMARK       I    between atoms: C_1  and  N_6 
REMARK    1  A    between atoms: C_1  and  C_15 
REMARK    2  A    between atoms: C_5  and  C_20 
REMARK    3  A    between atoms: N_6  and  C_20 
REMARK    4  A    between atoms: C_12  and  C_17 
REMARK    5  A    between atoms: S_13  and  C_14 
REMARK    6  A    between atoms: C_14  and  C_15 
REMARK    7  A    between atoms: C_15  and  N_16 
REMARK    8  A    between atoms: C_17  and  C_20 
ROOT
HETATM    1  C           1     -22.395  -4.272  -7.868  0.00  0.00     0.249 C 
HETATM    2  O           1     -21.861  -3.294  -7.401  0.00  0.00    -0.271 OA
HETATM    3  H           1     -22.769  -6.290  -7.604  0.00  0.00     0.163 HD
HETATM    4  N           1     -22.322  -5.471  -7.213  0.00  0.00    -0.344 N 
ENDROOT
BRANCH   1   5
HETATM    5  C           1     -23.145  -4.170  -9.173  0.00  0.00     0.283 C 
BRANCH   5   6
HETATM    6  C           1     -22.311  -3.387 -10.180  0.00  0.00     0.113 C 
BRANCH   6   7
HETATM    7  S           1     -20.871  -4.376 -10.671  0.00  0.00    -0.180 SA
HETATM    8  H           1     -21.187  -4.444 -11.977  0.00  0.00     0.101 HD
ENDBRANCH   6   7
ENDBRANCH   5   6
BRANCH   5   9
HETATM    9  N           1     -24.449  -3.462  -8.947  0.00  0.00    -0.066 N 
HETATM   10  H           1     -24.501  -2.622  -9.564  0.00  0.00     0.275 HD
HETATM   11  H           1     -25.238  -4.109  -9.171  0.00  0.00     0.275 HD
HETATM   12  H           1     -24.513  -3.164  -7.947  0.00  0.00     0.275 HD
ENDBRANCH   5   9
ENDBRANCH   1   5
BRANCH   4  13
HETATM   13  C           1     -21.602  -5.569  -5.958  0.00  0.00     0.195 C 
BRANCH  13  14
HETATM   14  C           1     -20.126  -5.721  -6.236  0.00  0.00     0.197 C 
HETATM   15  O           1     -19.690  -6.778  -6.742  0.00  0.00    -0.646 OA
HETATM   16  O           1     -19.338  -4.790  -5.960  0.00  0.00    -0.646 OA
ENDBRANCH  13  14
BRANCH  13  17
HETATM   17  C           1     -22.099  -6.781  -5.181  0.00  0.00     0.149 C 
BRANCH  17  18
HETATM   18  C           1     -21.584  -6.716  -3.764  0.00  0.00     0.175 C 
HETATM   19  O           1     -20.714  -7.526  -3.377  0.00  0.00    -0.648 OA
HETATM   20  O           1     -22.028  -5.852  -2.977  0.00  0.00    -0.648 OA
ENDBRANCH  17  18
ENDBRANCH  13  17
ENDBRANCH   4  13
TORSDOF 8
ENDMDL
MODEL 7
REMARK VINA RESULT:      -4.5      1.947      3.387
REMARK  8 active torsions:
REMARK  status: ('A' for Active; 'I' for Inactive)
REMARK       I    between atoms: C_1  and  N_6 
REMARK    1  A    between atoms: C_1  and  C_15 
REMARK    2  A    between atoms: C_5  and  C_20 
REMARK    3  A    between atoms: N_6  and  C_20 
REMARK    4  A    between atoms: C_12  and  C_17 
REMARK    5  A    between atoms: S_13  and  C_14 
REMARK    6  A    between atoms: C_14  and  C_15 
REMARK    7  A    between atoms: C_15  and  N_16 
REMARK    8  A    between atoms: C_17  and  C_20 
ROOT
HETATM    1  C           1     -21.249  -5.913  -6.517  0.00  0.00     0.249 C 
HETATM    2  O           1     -20.729  -6.792  -7.163  0.00  0.00    -0.271 OA
HETATM    3  H           1     -22.247  -4.103  -6.611  0.00  0.00     0.163 HD
HETATM    4  N           1     -21.812  -4.839  -7.152  0.00  0.00    -0.344 N 
ENDROOT
BRANCH   1   5
HETATM    5  C           1     -21.279  -6.001  -5.012  0.00  0.00     0.283 C 
BRANCH   5   6
HETATM    6  C           1     -20.425  -7.177  -4.553  0.00  0.00     0.113 C 
BRANCH   6   7
HETATM    7  S           1     -21.501  -8.578  -4.134  0.00  0.00    -0.180 SA
HETATM    8  H           1     -21.129  -8.658  -2.844  0.00  0.00     0.101 HD
ENDBRANCH   6   7
ENDBRANCH   5   6
BRANCH   5   9
HETATM    9  N           1     -22.693  -6.200  -4.550  0.00  0.00    -0.066 N 
HETATM   10  H           1     -23.206  -5.292  -4.599  0.00  0.00     0.275 HD
HETATM   11  H           1     -23.164  -6.900  -5.166  0.00  0.00     0.275 HD
HETATM   12  H           1     -22.691  -6.547  -3.564  0.00  0.00     0.275 HD
ENDBRANCH   5   9
ENDBRANCH   1   5
BRANCH   4  13
HETATM   13  C           1     -21.784  -4.755  -8.599  0.00  0.00     0.195 C 
BRANCH  13  14
HETATM   14  C           1     -20.407  -4.333  -9.051  0.00  0.00     0.197 C 
HETATM   15  O           1     -19.966  -4.718 -10.156  0.00  0.00    -0.646 OA
HETATM   16  O           1     -19.706  -3.600  -8.321  0.00  0.00    -0.646 OA
ENDBRANCH  13  14
BRANCH  13  17
HETATM   17  C           1     -22.808  -3.730  -9.067  0.00  0.00     0.149 C 
BRANCH  17  18
HETATM   18  C           1     -23.710  -4.357 -10.103  0.00  0.00     0.175 C 
HETATM   19  O           1     -23.224  -4.828 -11.154  0.00  0.00    -0.648 OA
HETATM   20  O           1     -24.944  -4.406  -9.909  0.00  0.00    -0.648 OA
ENDBRANCH  17  18
ENDBRANCH  13  17
ENDBRANCH   4  13
TORSDOF 8
ENDMDL
MODEL 8
REMARK VINA RESULT:      -4.4      6.261      8.926
REMARK  8 active torsions:
REMARK  status: ('A' for Active; 'I' for Inactive)
REMARK       I    between atoms: C_1  and  N_6 
REMARK    1  A    between atoms: C_1  and  C_15 
REMARK    2  A    between atoms: C_5  and  C_20 
REMARK    3  A    between atoms: N_6  and  C_20 
REMARK    4  A    between atoms: C_12  and  C_17 
REMARK    5  A    between atoms: S_13  and  C_14 
REMARK    6  A    between atoms: C_14  and  C_15 
REMARK    7  A    between atoms: C_15  and  N_16 
REMARK    8  A    between atoms: C_17  and  C_20 
ROOT
HETATM    1  C           1     -20.905  -8.155  -3.649  0.00  0.00     0.249 C 
HETATM    2  O           1     -19.719  -8.386  -3.624  0.00  0.00    -0.271 OA
HETATM    3  H           1     -22.693  -8.352  -2.626  0.00  0.00     0.163 HD
HETATM    4  N           1     -21.700  -8.545  -2.605  0.00  0.00    -0.344 N 
ENDROOT
BRANCH   1   5
HETATM    5  C           1     -21.508  -7.435  -4.829  0.00  0.00     0.283 C 
BRANCH   5   6
HETATM    6  C           1     -20.395  -6.903  -5.724  0.00  0.00     0.113 C 
BRANCH   6   7
HETATM    7  S           1     -20.429  -5.089  -5.717  0.00  0.00    -0.180 SA
HETATM    8  H           1     -19.179  -4.923  -6.185  0.00  0.00     0.101 HD
ENDBRANCH   6   7
ENDBRANCH   5   6
BRANCH   5   9
HETATM    9  N           1     -22.347  -6.291  -4.342  0.00  0.00    -0.066 N 
HETATM   10  H           1     -22.693  -6.498  -3.379  0.00  0.00     0.275 HD
HETATM   11  H           1     -21.771  -5.420  -4.326  0.00  0.00     0.275 HD
HETATM   12  H           1     -23.162  -6.160  -4.984  0.00  0.00     0.275 HD
ENDBRANCH   5   9
ENDBRANCH   1   5
BRANCH   4  13
HETATM   13  C           1     -21.121  -9.236  -1.470  0.00  0.00     0.195 C 
BRANCH  13  14
HETATM   14  C           1     -21.906 -10.495  -1.194  0.00  0.00     0.197 C 
HETATM   15  O           1     -22.929 -10.754  -1.865  0.00  0.00    -0.646 OA
HETATM   16  O           1     -21.534 -11.281  -0.296  0.00  0.00    -0.646 OA
ENDBRANCH  13  14
BRANCH  13  17
HETATM   17  C           1     -21.167  -8.330  -0.247  0.00  0.00     0.149 C 
BRANCH  17  18
HETATM   18  C           1     -22.421  -7.491  -0.289  0.00  0.00     0.175 C 
HETATM   19  O           1     -22.442  -6.431  -0.951  0.00  0.00    -0.648 OA
HETATM   20  O           1     -23.438  -7.857   0.338  0.00  0.00    -0.648 OA
ENDBRANCH  17  18
ENDBRANCH  13  17
ENDBRANCH   4  13
TORSDOF 8
ENDMDL
MODEL 9
REMARK VINA RESULT:      -4.3     10.528     12.202
REMARK  8 active torsions:
REMARK  status: ('A' for Active; 'I' for Inactive)
REMARK       I    between atoms: C_1  and  N_6 
REMARK    1  A    between atoms: C_1  and  C_15 
REMARK    2  A    between atoms: C_5  and  C_20 
REMARK    3  A    between atoms: N_6  and  C_20 
REMARK    4  A    between atoms: C_12  and  C_17 
REMARK    5  A    between atoms: S_13  and  C_14 
REMARK    6  A    between atoms: C_14  and  C_15 
REMARK    7  A    between atoms: C_15  and  N_16 
REMARK    8  A    between atoms: C_17  and  C_20 
ROOT
HETATM    1  C           1     -26.843  -7.136 -19.790  0.00  0.00     0.249 C 
HETATM    2  O           1     -27.731  -7.816 -20.248  0.00  0.00    -0.271 OA
HETATM    3  H           1     -26.226  -6.027 -18.155  0.00  0.00     0.163 HD
HETATM    4  N           1     -26.970  -6.597 -18.538  0.00  0.00    -0.344 N 
ENDROOT
BRANCH   1   5
HETATM    5  C           1     -25.595  -6.882 -20.599  0.00  0.00     0.283 C 
BRANCH   5   6
HETATM    6  C           1     -25.349  -8.057 -21.538  0.00  0.00     0.113 C 
BRANCH   6   7
HETATM    7  S           1     -23.860  -7.740 -22.525  0.00  0.00    -0.180 SA
HETATM    8  H           1     -24.373  -6.715 -23.228  0.00  0.00     0.101 HD
ENDBRANCH   6   7
ENDBRANCH   5   6
BRANCH   5   9
HETATM    9  N           1     -24.423  -6.727 -19.674  0.00  0.00    -0.066 N 
HETATM   10  H           1     -24.603  -5.939 -19.013  0.00  0.00     0.275 HD
HETATM   11  H           1     -24.288  -7.611 -19.134  0.00  0.00     0.275 HD
HETATM   12  H           1     -23.564  -6.524 -20.234  0.00  0.00     0.275 HD
ENDBRANCH   5   9
ENDBRANCH   1   5
BRANCH   4  13
HETATM   13  C           1     -28.169  -6.842 -17.761  0.00  0.00     0.195 C 
BRANCH  13  14
HETATM   14  C           1     -29.327  -6.093 -18.375  0.00  0.00     0.197 C 
HETATM   15  O           1     -30.472  -6.597 -18.368  0.00  0.00    -0.646 OA
HETATM   16  O           1     -29.143  -4.970 -18.893  0.00  0.00    -0.646 OA
ENDBRANCH  13  14
BRANCH  13  17
HETATM   17  C           1     -27.954  -6.361 -16.332  0.00  0.00     0.149 C 
BRANCH  17  18
HETATM   18  C           1     -26.511  -6.569 -15.943  0.00  0.00     0.175 C 
HETATM   19  O           1     -26.165  -7.621 -15.364  0.00  0.00    -0.648 OA
HETATM   20  O           1     -25.662  -5.688 -16.199  0.00  0.00    -0.648 OA
ENDBRANCH  17  18
ENDBRANCH  13  17
ENDBRANCH   4  13
TORSDOF 8
ENDMDL
