MODEL 1
REMARK VINA RESULT:      -5.9      0.000      0.000
REMARK  11 active torsions:
REMARK  status: ('A' for Active; 'I' for Inactive)
REMARK    1  A    between atoms: C_4  and  C_23 
REMARK    2  A    between atoms: C_5  and  C_6 
REMARK    3  A    between atoms: C_5  and  S_10 
REMARK    4  A    between atoms: C_6  and  C_16 
REMARK    5  A    between atoms: C_6  and  N_11 
REMARK       I    between atoms: C_16  and  N_17 
REMARK    6  A    between atoms: N_17  and  C_23 
REMARK    7  A    between atoms: C_19  and  C_20 
REMARK    8  A    between atoms: C_19  and  C_24 
REMARK    9  A    between atoms: C_20  and  C_21 
REMARK   10  A    between atoms: C_21  and  N_22 
REMARK   11  A    between atoms: C_23  and  C_24 
ROOT
HETATM    1  H           1     -33.970  -1.238 -13.535  0.00  0.00     0.163 HD
HETATM    2  O           1     -37.031  -0.915 -12.930  0.00  0.00    -0.271 OA
HETATM    3  C           1     -35.970  -0.710 -13.470  0.00  0.00     0.249 C 
HETATM    4  N           1     -34.858  -1.409 -13.083  0.00  0.00    -0.345 N 
ENDROOT
BRANCH   4   5
HETATM    5  C           1     -34.955  -2.396 -12.025  0.00  0.00     0.185 C 
BRANCH   5   6
HETATM    6  C           1     -34.552  -1.768 -10.714  0.00  0.00     0.196 C 
HETATM    7  O           1     -33.353  -1.772 -10.360  0.00  0.00    -0.646 OA
HETATM    8  O           1     -35.417  -1.243  -9.980  0.00  0.00    -0.646 OA
ENDBRANCH   5   6
BRANCH   5   9
HETATM    9  C           1     -34.028  -3.563 -12.336  0.00  0.00     0.036 C 
BRANCH   9  10
HETATM   10  C           1     -34.740  -4.874 -12.028  0.00  0.00     0.004 C 
BRANCH  10  11
HETATM   11  C           1     -34.342  -5.355 -10.638  0.00  0.00     0.027 C 
BRANCH  11  12
HETATM   12  C           1     -34.251  -6.876 -10.635  0.00  0.00     0.229 C 
BRANCH  12  13
HETATM   13  N           1     -35.087  -7.424  -9.517  0.00  0.00    -0.079 N 
HETATM   14  H           1     -35.129  -6.728  -8.739  0.00  0.00     0.274 HD
HETATM   15  H           1     -36.054  -7.614  -9.866  0.00  0.00     0.274 HD
HETATM   16  H           1     -34.661  -8.313  -9.168  0.00  0.00     0.274 HD
ENDBRANCH  12  13
ENDBRANCH  11  12
ENDBRANCH  10  11
ENDBRANCH   9  10
ENDBRANCH   5   9
ENDBRANCH   4   5
BRANCH   3  17
HETATM   17  C           1     -35.870   0.317 -14.571  0.00  0.00     0.283 C 
BRANCH  17  18
HETATM   18  C           1     -36.629  -0.175 -15.796  0.00  0.00     0.113 C 
BRANCH  18  19
HETATM   19  S           1     -35.592  -1.339 -16.724  0.00  0.00    -0.180 SA
HETATM   20  H           1     -36.605  -1.953 -17.362  0.00  0.00     0.101 HD
ENDBRANCH  18  19
ENDBRANCH  17  18
BRANCH  17  21
HETATM   21  N           1     -34.428   0.527 -14.928  0.00  0.00    -0.066 N 
HETATM   22  H           1     -34.361   1.187 -15.736  0.00  0.00     0.275 HD
HETATM   23  H           1     -33.921   0.930 -14.107  0.00  0.00     0.275 HD
HETATM   24  H           1     -33.998  -0.388 -15.190  0.00  0.00     0.275 HD
ENDBRANCH  17  21
ENDBRANCH   3  17
TORSDOF 11
ENDMDL
MODEL 2
REMARK VINA RESULT:      -5.7     12.417     14.306
REMARK  11 active torsions:
REMARK  status: ('A' for Active; 'I' for Inactive)
REMARK    1  A    between atoms: C_4  and  C_23 
REMARK    2  A    between atoms: C_5  and  C_6 
REMARK    3  A    between atoms: C_5  and  S_10 
REMARK    4  A    between atoms: C_6  and  C_16 
REMARK    5  A    between atoms: C_6  and  N_11 
REMARK       I    between atoms: C_16  and  N_17 
REMARK    6  A    between atoms: N_17  and  C_23 
REMARK    7  A    between atoms: C_19  and  C_20 
REMARK    8  A    between atoms: C_19  and  C_24 
REMARK    9  A    between atoms: C_20  and  C_21 
REMARK   10  A    between atoms: C_21  and  N_22 
REMARK   11  A    between atoms: C_23  and  C_24 
ROOT
HETATM    1  H           1     -22.029  -5.693  -9.694  0.00  0.00     0.163 HD
HETATM    2  O           1     -21.789  -3.447  -7.517  0.00  0.00    -0.271 OA
HETATM    3  C           1     -21.662  -4.540  -8.014  0.00  0.00     0.249 C 
HETATM    4  N           1     -22.137  -4.777  -9.277  0.00  0.00    -0.345 N 
ENDROOT
BRANCH   4   5
HETATM    5  C           1     -22.793  -3.716 -10.016  0.00  0.00     0.185 C 
BRANCH   5   6
HETATM    6  C           1     -24.284  -3.806  -9.808  0.00  0.00     0.196 C 
HETATM    7  O           1     -24.869  -4.903  -9.941  0.00  0.00    -0.646 OA
HETATM    8  O           1     -24.935  -2.785  -9.501  0.00  0.00    -0.646 OA
ENDBRANCH   5   6
BRANCH   5   9
HETATM    9  C           1     -22.476  -3.862 -11.498  0.00  0.00     0.036 C 
BRANCH   9  10
HETATM   10  C           1     -22.671  -2.521 -12.194  0.00  0.00     0.004 C 
BRANCH  10  11
HETATM   11  C           1     -23.797  -2.635 -13.214  0.00  0.00     0.027 C 
BRANCH  11  12
HETATM   12  C           1     -23.389  -1.931 -14.501  0.00  0.00     0.229 C 
BRANCH  12  13
HETATM   13  N           1     -24.242  -0.713 -14.697  0.00  0.00    -0.079 N 
HETATM   14  H           1     -24.226  -0.434 -15.704  0.00  0.00     0.274 HD
HETATM   15  H           1     -25.225  -0.927 -14.412  0.00  0.00     0.274 HD
HETATM   16  H           1     -23.871   0.069 -14.113  0.00  0.00     0.274 HD
ENDBRANCH  12  13
ENDBRANCH  11  12
ENDBRANCH  10  11
ENDBRANCH   9  10
ENDBRANCH   5   9
ENDBRANCH   4   5
BRANCH   3  17
HETATM   17  C           1     -20.979  -5.644  -7.245  0.00  0.00     0.283 C 
BRANCH  17  18
HETATM   18  C           1     -21.535  -5.695  -5.829  0.00  0.00     0.113 C 
BRANCH  18  19
HETATM   19  S           1     -21.503  -7.406  -5.226  0.00  0.00    -0.180 SA
HETATM   20  H           1     -20.162  -7.511  -5.171  0.00  0.00     0.101 HD
ENDBRANCH  18  19
ENDBRANCH  17  18
BRANCH  17  21
HETATM   21  N           1     -19.504  -5.378  -7.194  0.00  0.00    -0.066 N 
HETATM   22  H           1     -19.054  -6.040  -6.521  0.00  0.00     0.275 HD
HETATM   23  H           1     -19.092  -5.514  -8.144  0.00  0.00     0.275 HD
HETATM   24  H           1     -19.338  -4.396  -6.878  0.00  0.00     0.275 HD
ENDBRANCH  17  21
ENDBRANCH   3  17
TORSDOF 11
ENDMDL
MODEL 3
REMARK VINA RESULT:      -5.7      2.108      2.577
REMARK  11 active torsions:
REMARK  status: ('A' for Active; 'I' for Inactive)
REMARK    1  A    between atoms: C_4  and  C_23 
REMARK    2  A    between atoms: C_5  and  C_6 
REMARK    3  A    between atoms: C_5  and  S_10 
REMARK    4  A    between atoms: C_6  and  C_16 
REMARK    5  A    between atoms: C_6  and  N_11 
REMARK       I    between atoms: C_16  and  N_17 
REMARK    6  A    between atoms: N_17  and  C_23 
REMARK    7  A    between atoms: C_19  and  C_20 
REMARK    8  A    between atoms: C_19  and  C_24 
REMARK    9  A    between atoms: C_20  and  C_21 
REMARK   10  A    between atoms: C_21  and  N_22 
REMARK   11  A    between atoms: C_23  and  C_24 
ROOT
HETATM    1  H           1     -34.961   0.010 -12.280  0.00  0.00     0.163 HD
HETATM    2  O           1     -37.770  -0.688 -13.489  0.00  0.00    -0.271 OA
HETATM    3  C           1     -36.652  -0.232 -13.448  0.00  0.00     0.249 C 
HETATM    4  N           1     -35.897  -0.371 -12.314  0.00  0.00    -0.345 N 
ENDROOT
BRANCH   4   5
HETATM    5  C           1     -36.440  -1.064 -11.162  0.00  0.00     0.185 C 
BRANCH   5   6
HETATM    6  C           1     -36.802  -0.060 -10.096  0.00  0.00     0.196 C 
HETATM    7  O           1     -36.206  -0.073  -8.997  0.00  0.00    -0.646 OA
HETATM    8  O           1     -37.697   0.785 -10.311  0.00  0.00    -0.646 OA
ENDBRANCH   5   6
BRANCH   5   9
HETATM    9  C           1     -35.399  -2.032 -10.617  0.00  0.00     0.036 C 
BRANCH   9  10
HETATM   10  C           1     -34.087  -1.843 -11.368  0.00  0.00     0.004 C 
BRANCH  10  11
HETATM   11  C           1     -33.390  -3.189 -11.521  0.00  0.00     0.027 C 
BRANCH  11  12
HETATM   12  C           1     -34.247  -4.111 -12.378  0.00  0.00     0.229 C 
BRANCH  12  13
HETATM   13  N           1     -33.838  -3.980 -13.816  0.00  0.00    -0.079 N 
HETATM   14  H           1     -33.027  -3.326 -13.890  0.00  0.00     0.274 HD
HETATM   15  H           1     -33.564  -4.918 -14.186  0.00  0.00     0.274 HD
HETATM   16  H           1     -34.639  -3.606 -14.373  0.00  0.00     0.274 HD
ENDBRANCH  12  13
ENDBRANCH  11  12
ENDBRANCH  10  11
ENDBRANCH   9  10
ENDBRANCH   5   9
ENDBRANCH   4   5
BRANCH   3  17
HETATM   17  C           1     -36.087   0.490 -14.647  0.00  0.00     0.283 C 
BRANCH  17  18
HETATM   18  C           1     -36.634  -0.138 -15.922  0.00  0.00     0.113 C 
BRANCH  18  19
HETATM   19  S           1     -35.462  -1.379 -16.537  0.00  0.00    -0.180 SA
HETATM   20  H           1     -34.839  -0.565 -17.408  0.00  0.00     0.101 HD
ENDBRANCH  18  19
ENDBRANCH  17  18
BRANCH  17  21
HETATM   21  N           1     -34.591   0.379 -14.637  0.00  0.00    -0.066 N 
HETATM   22  H           1     -34.203   0.827 -15.497  0.00  0.00     0.275 HD
HETATM   23  H           1     -34.211   0.861 -13.792  0.00  0.00     0.275 HD
HETATM   24  H           1     -34.317  -0.629 -14.617  0.00  0.00     0.275 HD
ENDBRANCH  17  21
ENDBRANCH   3  17
TORSDOF 11
ENDMDL
MODEL 4
REMARK VINA RESULT:      -5.6      4.102      6.017
REMARK  11 active torsions:
REMARK  status: ('A' for Active; 'I' for Inactive)
REMARK    1  A    between atoms: C_4  and  C_23 
REMARK    2  A    between atoms: C_5  and  C_6 
REMARK    3  A    between atoms: C_5  and  S_10 
REMARK    4  A    between atoms: C_6  and  C_16 
REMARK    5  A    between atoms: C_6  and  N_11 
REMARK       I    between atoms: C_16  and  N_17 
REMARK    6  A    between atoms: N_17  and  C_23 
REMARK    7  A    between atoms: C_19  and  C_20 
REMARK    8  A    between atoms: C_19  and  C_24 
REMARK    9  A    between atoms: C_20  and  C_21 
REMARK   10  A    between atoms: C_21  and  N_22 
REMARK   11  A    between atoms: C_23  and  C_24 
ROOT
HETATM    1  H           1     -34.940   0.079 -10.406  0.00  0.00     0.163 HD
HETATM    2  O           1     -37.992   0.396 -11.061  0.00  0.00    -0.271 OA
HETATM    3  C           1     -36.979   0.435 -10.404  0.00  0.00     0.249 C 
HETATM    4  N           1     -35.788   0.046 -10.957  0.00  0.00    -0.345 N 
ENDROOT
BRANCH   4   5
HETATM    5  C           1     -35.743  -0.413 -12.331  0.00  0.00     0.185 C 
BRANCH   5   6
HETATM    6  C           1     -35.388  -1.879 -12.359  0.00  0.00     0.196 C 
HETATM    7  O           1     -35.770  -2.633 -11.438  0.00  0.00    -0.646 OA
HETATM    8  O           1     -34.711  -2.340 -13.304  0.00  0.00    -0.646 OA
ENDBRANCH   5   6
BRANCH   5   9
HETATM    9  C           1     -34.691   0.380 -13.095  0.00  0.00     0.036 C 
BRANCH   9  10
HETATM   10  C           1     -35.315   0.970 -14.353  0.00  0.00     0.004 C 
BRANCH  10  11
HETATM   11  C           1     -36.582   0.201 -14.702  0.00  0.00     0.027 C 
BRANCH  11  12
HETATM   12  C           1     -36.425  -0.442 -16.074  0.00  0.00     0.229 C 
BRANCH  12  13
HETATM   13  N           1     -35.161  -1.248 -16.107  0.00  0.00    -0.079 N 
HETATM   14  H           1     -34.348  -0.632 -15.877  0.00  0.00     0.274 HD
HETATM   15  H           1     -35.222  -2.019 -15.405  0.00  0.00     0.274 HD
HETATM   16  H           1     -35.032  -1.653 -17.061  0.00  0.00     0.274 HD
ENDBRANCH  12  13
ENDBRANCH  11  12
ENDBRANCH  10  11
ENDBRANCH   9  10
ENDBRANCH   5   9
ENDBRANCH   4   5
BRANCH   3  17
HETATM   17  C           1     -37.027   0.913  -8.973  0.00  0.00     0.283 C 
BRANCH  17  18
HETATM   18  C           1     -37.571  -0.197  -8.085  0.00  0.00     0.113 C 
BRANCH  18  19
HETATM   19  S           1     -37.701   0.402  -6.377  0.00  0.00    -0.180 SA
HETATM   20  H           1     -36.420   0.157  -6.044  0.00  0.00     0.101 HD
ENDBRANCH  18  19
ENDBRANCH  17  18
BRANCH  17  21
HETATM   21  N           1     -37.922   2.114  -8.878  0.00  0.00    -0.066 N 
HETATM   22  H           1     -38.791   1.860  -8.356  0.00  0.00     0.275 HD
HETATM   23  H           1     -37.423   2.880  -8.372  0.00  0.00     0.275 HD
HETATM   24  H           1     -38.175   2.436  -9.838  0.00  0.00     0.275 HD
ENDBRANCH  17  21
ENDBRANCH   3  17
TORSDOF 11
ENDMDL
MODEL 5
REMARK VINA RESULT:      -5.5      9.465     10.531
REMARK  11 active torsions:
REMARK  status: ('A' for Active; 'I' for Inactive)
REMARK    1  A    between atoms: C_4  and  C_23 
REMARK    2  A    between atoms: C_5  and  C_6 
REMARK    3  A    between atoms: C_5  and  S_10 
REMARK    4  A    between atoms: C_6  and  C_16 
REMARK    5  A    between atoms: C_6  and  N_11 
REMARK       I    between atoms: C_16  and  N_17 
REMARK    6  A    between atoms: N_17  and  C_23 
REMARK    7  A    between atoms: C_19  and  C_20 
REMARK    8  A    between atoms: C_19  and  C_24 
REMARK    9  A    between atoms: C_20  and  C_21 
REMARK   10  A    between atoms: C_21  and  N_22 
REMARK   11  A    between atoms: C_23  and  C_24 
ROOT
HETATM    1  H           1     -26.602  -7.354 -17.239  0.00  0.00     0.163 HD
HETATM    2  O           1     -27.862  -5.622 -19.531  0.00  0.00    -0.271 OA
HETATM    3  C           1     -27.039  -6.302 -18.968  0.00  0.00     0.249 C 
HETATM    4  N           1     -27.292  -6.783 -17.711  0.00  0.00    -0.345 N 
ENDROOT
BRANCH   4   5
HETATM    5  C           1     -28.548  -6.475 -17.056  0.00  0.00     0.185 C 
BRANCH   5   6
HETATM    6  C           1     -28.351  -6.490 -15.560  0.00  0.00     0.196 C 
HETATM    7  O           1     -27.855  -7.494 -15.004  0.00  0.00    -0.646 OA
HETATM    8  O           1     -28.684  -5.499 -14.876  0.00  0.00    -0.646 OA
ENDBRANCH   5   6
BRANCH   5   9
HETATM    9  C           1     -29.589  -7.517 -17.443  0.00  0.00     0.036 C 
BRANCH   9  10
HETATM   10  C           1     -30.974  -6.884 -17.418  0.00  0.00     0.004 C 
BRANCH  10  11
HETATM   11  C           1     -30.858  -5.392 -17.702  0.00  0.00     0.027 C 
BRANCH  11  12
HETATM   12  C           1     -31.800  -4.625 -16.784  0.00  0.00     0.229 C 
BRANCH  12  13
HETATM   13  N           1     -32.198  -3.336 -17.440  0.00  0.00    -0.079 N 
HETATM   14  H           1     -31.525  -3.113 -18.207  0.00  0.00     0.274 HD
HETATM   15  H           1     -33.160  -3.429 -17.837  0.00  0.00     0.274 HD
HETATM   16  H           1     -32.186  -2.567 -16.732  0.00  0.00     0.274 HD
ENDBRANCH  12  13
ENDBRANCH  11  12
ENDBRANCH  10  11
ENDBRANCH   9  10
ENDBRANCH   5   9
ENDBRANCH   4   5
BRANCH   3  17
HETATM   17  C           1     -25.731  -6.623 -19.649  0.00  0.00     0.283 C 
BRANCH  17  18
HETATM   18  C           1     -25.968  -7.652 -20.745  0.00  0.00     0.113 C 
BRANCH  18  19
HETATM   19  S           1     -24.448  -7.873 -21.710  0.00  0.00    -0.180 SA
HETATM   20  H           1     -24.511  -6.688 -22.346  0.00  0.00     0.101 HD
ENDBRANCH  18  19
ENDBRANCH  17  18
BRANCH  17  21
HETATM   21  N           1     -24.766  -7.178 -18.643  0.00  0.00    -0.066 N 
HETATM   22  H           1     -24.405  -6.403 -18.043  0.00  0.00     0.275 HD
HETATM   23  H           1     -25.254  -7.882 -18.045  0.00  0.00     0.275 HD
HETATM   24  H           1     -23.969  -7.633 -19.140  0.00  0.00     0.275 HD
ENDBRANCH  17  21
ENDBRANCH   3  17
TORSDOF 11
ENDMDL
MODEL 6
REMARK VINA RESULT:      -5.4     11.562     12.379
REMARK  11 active torsions:
REMARK  status: ('A' for Active; 'I' for Inactive)
REMARK    1  A    between atoms: C_4  and  C_23 
REMARK    2  A    between atoms: C_5  and  C_6 
REMARK    3  A    between atoms: C_5  and  S_10 
REMARK    4  A    between atoms: C_6  and  C_16 
REMARK    5  A    between atoms: C_6  and  N_11 
REMARK       I    between atoms: C_16  and  N_17 
REMARK    6  A    between atoms: N_17  and  C_23 
REMARK    7  A    between atoms: C_19  and  C_20 
REMARK    8  A    between atoms: C_19  and  C_24 
REMARK    9  A    between atoms: C_20  and  C_21 
REMARK   10  A    between atoms: C_21  and  N_22 
REMARK   11  A    between atoms: C_23  and  C_24 
ROOT
HETATM    1  H           1     -22.453  -2.563 -11.439  0.00  0.00     0.163 HD
HETATM    2  O           1     -24.403  -4.080 -13.373  0.00  0.00    -0.271 OA
HETATM    3  C           1     -23.599  -3.250 -13.020  0.00  0.00     0.249 C 
HETATM    4  N           1     -23.127  -3.257 -11.734  0.00  0.00    -0.345 N 
ENDROOT
BRANCH   4   5
HETATM    5  C           1     -23.592  -4.261 -10.796  0.00  0.00     0.185 C 
BRANCH   5   6
HETATM    6  C           1     -24.534  -3.623  -9.806  0.00  0.00     0.196 C 
HETATM    7  O           1     -24.200  -3.516  -8.605  0.00  0.00    -0.646 OA
HETATM    8  O           1     -25.648  -3.202 -10.184  0.00  0.00    -0.646 OA
ENDBRANCH   5   6
BRANCH   5   9
HETATM    9  C           1     -22.401  -4.854 -10.057  0.00  0.00     0.036 C 
BRANCH   9  10
HETATM   10  C           1     -21.200  -3.928 -10.203  0.00  0.00     0.004 C 
BRANCH  10  11
HETATM   11  C           1     -20.223  -4.178  -9.062  0.00  0.00     0.027 C 
BRANCH  11  12
HETATM   12  C           1     -20.997  -4.544  -7.802  0.00  0.00     0.229 C 
BRANCH  12  13
HETATM   13  N           1     -21.550  -3.298  -7.175  0.00  0.00    -0.079 N 
HETATM   14  H           1     -22.594  -3.344  -7.170  0.00  0.00     0.274 HD
HETATM   15  H           1     -21.201  -3.219  -6.193  0.00  0.00     0.274 HD
HETATM   16  H           1     -21.239  -2.465  -7.724  0.00  0.00     0.274 HD
ENDBRANCH  12  13
ENDBRANCH  11  12
ENDBRANCH  10  11
ENDBRANCH   9  10
ENDBRANCH   5   9
ENDBRANCH   4   5
BRANCH   3  17
HETATM   17  C           1     -23.114  -2.206 -13.996  0.00  0.00     0.283 C 
BRANCH  17  18
HETATM   18  C           1     -24.302  -1.412 -14.522  0.00  0.00     0.113 C 
BRANCH  18  19
HETATM   19  S           1     -23.719  -0.143 -15.679  0.00  0.00    -0.180 SA
HETATM   20  H           1     -22.776   0.367 -14.866  0.00  0.00     0.101 HD
ENDBRANCH  18  19
ENDBRANCH  17  18
BRANCH  17  21
HETATM   21  N           1     -22.417  -2.879 -15.141  0.00  0.00    -0.066 N 
HETATM   22  H           1     -21.439  -2.518 -15.215  0.00  0.00     0.275 HD
HETATM   23  H           1     -22.395  -3.911 -14.978  0.00  0.00     0.275 HD
HETATM   24  H           1     -22.930  -2.677 -16.028  0.00  0.00     0.275 HD
ENDBRANCH  17  21
ENDBRANCH   3  17
TORSDOF 11
ENDMDL
MODEL 7
REMARK VINA RESULT:      -5.1     13.979     15.935
REMARK  11 active torsions:
REMARK  status: ('A' for Active; 'I' for Inactive)
REMARK    1  A    between atoms: C_4  and  C_23 
REMARK    2  A    between atoms: C_5  and  C_6 
REMARK    3  A    between atoms: C_5  and  S_10 
REMARK    4  A    between atoms: C_6  and  C_16 
REMARK    5  A    between atoms: C_6  and  N_11 
REMARK       I    between atoms: C_16  and  N_17 
REMARK    6  A    between atoms: N_17  and  C_23 
REMARK    7  A    between atoms: C_19  and  C_20 
REMARK    8  A    between atoms: C_19  and  C_24 
REMARK    9  A    between atoms: C_20  and  C_21 
REMARK   10  A    between atoms: C_21  and  N_22 
REMARK   11  A    between atoms: C_23  and  C_24 
ROOT
HETATM    1  H           1     -21.439  -4.241  -6.136  0.00  0.00     0.163 HD
HETATM    2  O           1     -21.133  -7.305  -6.733  0.00  0.00    -0.271 OA
HETATM    3  C           1     -21.186  -6.294  -6.074  0.00  0.00     0.249 C 
HETATM    4  N           1     -21.393  -5.088  -6.688  0.00  0.00    -0.345 N 
ENDROOT
BRANCH   4   5
HETATM    5  C           1     -21.548  -5.024  -8.129  0.00  0.00     0.185 C 
BRANCH   5   6
HETATM    6  C           1     -20.274  -4.508  -8.748  0.00  0.00     0.196 C 
HETATM    7  O           1     -19.987  -4.806  -9.928  0.00  0.00    -0.646 OA
HETATM    8  O           1     -19.504  -3.782  -8.083  0.00  0.00    -0.646 OA
ENDBRANCH   5   6
BRANCH   5   9
HETATM    9  C           1     -22.698  -4.087  -8.473  0.00  0.00     0.036 C 
BRANCH   9  10
HETATM   10  C           1     -23.374  -4.561  -9.752  0.00  0.00     0.004 C 
BRANCH  10  11
HETATM   11  C           1     -23.766  -3.357 -10.597  0.00  0.00     0.027 C 
BRANCH  11  12
HETATM   12  C           1     -22.710  -3.124 -11.670  0.00  0.00     0.229 C 
BRANCH  12  13
HETATM   13  N           1     -22.096  -4.436 -12.060  0.00  0.00    -0.079 N 
HETATM   14  H           1     -21.730  -4.373 -13.037  0.00  0.00     0.274 HD
HETATM   15  H           1     -21.310  -4.660 -11.409  0.00  0.00     0.274 HD
HETATM   16  H           1     -22.819  -5.188 -12.007  0.00  0.00     0.274 HD
ENDBRANCH  12  13
ENDBRANCH  11  12
ENDBRANCH  10  11
ENDBRANCH   9  10
ENDBRANCH   5   9
ENDBRANCH   4   5
BRANCH   3  17
HETATM   17  C           1     -21.024  -6.360  -4.575  0.00  0.00     0.283 C 
BRANCH  17  18
HETATM   18  C           1     -20.510  -7.738  -4.180  0.00  0.00     0.113 C 
BRANCH  18  19
HETATM   19  S           1     -20.811  -8.013  -2.412  0.00  0.00    -0.180 SA
HETATM   20  H           1     -20.436  -6.783  -2.012  0.00  0.00     0.101 HD
ENDBRANCH  18  19
ENDBRANCH  17  18
BRANCH  17  21
HETATM   21  N           1     -22.351  -6.115  -3.919  0.00  0.00    -0.066 N 
HETATM   22  H           1     -22.853  -5.349  -4.423  0.00  0.00     0.275 HD
HETATM   23  H           1     -22.924  -6.988  -3.954  0.00  0.00     0.275 HD
HETATM   24  H           1     -22.201  -5.835  -2.924  0.00  0.00     0.275 HD
ENDBRANCH  17  21
ENDBRANCH   3  17
TORSDOF 11
ENDMDL
MODEL 8
REMARK VINA RESULT:      -5.0     14.893     16.472
REMARK  11 active torsions:
REMARK  status: ('A' for Active; 'I' for Inactive)
REMARK    1  A    between atoms: C_4  and  C_23 
REMARK    2  A    between atoms: C_5  and  C_6 
REMARK    3  A    between atoms: C_5  and  S_10 
REMARK    4  A    between atoms: C_6  and  C_16 
REMARK    5  A    between atoms: C_6  and  N_11 
REMARK       I    between atoms: C_16  and  N_17 
REMARK    6  A    between atoms: N_17  and  C_23 
REMARK    7  A    between atoms: C_19  and  C_20 
REMARK    8  A    between atoms: C_19  and  C_24 
REMARK    9  A    between atoms: C_20  and  C_21 
REMARK   10  A    between atoms: C_21  and  N_22 
REMARK   11  A    between atoms: C_23  and  C_24 
ROOT
HETATM    1  H           1     -21.549  -7.270  -6.970  0.00  0.00     0.163 HD
HETATM    2  O           1     -20.517  -4.441  -6.092  0.00  0.00    -0.271 OA
HETATM    3  C           1     -21.000  -5.281  -6.814  0.00  0.00     0.249 C 
HETATM    4  N           1     -21.144  -6.567  -6.366  0.00  0.00    -0.345 N 
ENDROOT
BRANCH   4   5
HETATM    5  C           1     -20.715  -6.921  -5.027  0.00  0.00     0.185 C 
BRANCH   5   6
HETATM    6  C           1     -20.208  -8.342  -5.022  0.00  0.00     0.196 C 
HETATM    7  O           1     -20.601  -9.150  -5.892  0.00  0.00    -0.646 OA
HETATM    8  O           1     -19.396  -8.712  -4.147  0.00  0.00    -0.646 OA
ENDBRANCH   5   6
BRANCH   5   9
HETATM    9  C           1     -21.893  -6.797  -4.070  0.00  0.00     0.036 C 
BRANCH   9  10
HETATM   10  C           1     -21.467  -6.006  -2.840  0.00  0.00     0.004 C 
BRANCH  10  11
HETATM   11  C           1     -22.178  -6.555  -1.611  0.00  0.00     0.027 C 
BRANCH  11  12
HETATM   12  C           1     -21.882  -8.043  -1.474  0.00  0.00     0.229 C 
BRANCH  12  13
HETATM   13  N           1     -20.413  -8.242  -1.248  0.00  0.00    -0.079 N 
HETATM   14  H           1     -20.159  -7.906  -0.291  0.00  0.00     0.274 HD
HETATM   15  H           1     -20.182  -9.258  -1.333  0.00  0.00     0.274 HD
HETATM   16  H           1     -19.875  -7.701  -1.961  0.00  0.00     0.274 HD
ENDBRANCH  12  13
ENDBRANCH  11  12
ENDBRANCH  10  11
ENDBRANCH   9  10
ENDBRANCH   5   9
ENDBRANCH   4   5
BRANCH   3  17
HETATM   17  C           1     -21.446  -4.912  -8.207  0.00  0.00     0.283 C 
BRANCH  17  18
HETATM   18  C           1     -20.250  -4.418  -9.009  0.00  0.00     0.113 C 
BRANCH  18  19
HETATM   19  S           1     -20.719  -4.244 -10.753  0.00  0.00    -0.180 SA
HETATM   20  H           1     -22.047  -4.204 -10.539  0.00  0.00     0.101 HD
ENDBRANCH  18  19
ENDBRANCH  17  18
BRANCH  17  21
HETATM   21  N           1     -22.479  -3.826  -8.130  0.00  0.00    -0.066 N 
HETATM   22  H           1     -23.056  -3.955  -7.269  0.00  0.00     0.275 HD
HETATM   23  H           1     -22.004  -2.896  -8.095  0.00  0.00     0.275 HD
HETATM   24  H           1     -23.096  -3.873  -8.972  0.00  0.00     0.275 HD
ENDBRANCH  17  21
ENDBRANCH   3  17
TORSDOF 11
ENDMDL
MODEL 9
REMARK VINA RESULT:      -4.9     15.029     17.384
REMARK  11 active torsions:
REMARK  status: ('A' for Active; 'I' for Inactive)
REMARK    1  A    between atoms: C_4  and  C_23 
REMARK    2  A    between atoms: C_5  and  C_6 
REMARK    3  A    between atoms: C_5  and  S_10 
REMARK    4  A    between atoms: C_6  and  C_16 
REMARK    5  A    between atoms: C_6  and  N_11 
REMARK       I    between atoms: C_16  and  N_17 
REMARK    6  A    between atoms: N_17  and  C_23 
REMARK    7  A    between atoms: C_19  and  C_20 
REMARK    8  A    between atoms: C_19  and  C_24 
REMARK    9  A    between atoms: C_20  and  C_21 
REMARK   10  A    between atoms: C_21  and  N_22 
REMARK   11  A    between atoms: C_23  and  C_24 
ROOT
HETATM    1  H           1     -21.619  -8.599  -6.365  0.00  0.00     0.163 HD
HETATM    2  O           1     -19.520  -8.671  -4.034  0.00  0.00    -0.271 OA
HETATM    3  C           1     -20.280  -9.102  -4.869  0.00  0.00     0.249 C 
HETATM    4  N           1     -20.983  -8.238  -5.665  0.00  0.00    -0.345 N 
ENDROOT
BRANCH   4   5
HETATM    5  C           1     -20.817  -6.807  -5.506  0.00  0.00     0.185 C 
BRANCH   5   6
HETATM    6  C           1     -21.937  -6.263  -4.654  0.00  0.00     0.196 C 
HETATM    7  O           1     -21.723  -5.956  -3.461  0.00  0.00    -0.646 OA
HETATM    8  O           1     -23.079  -6.119  -5.140  0.00  0.00    -0.646 OA
ENDBRANCH   5   6
BRANCH   5   9
HETATM    9  C           1     -20.847  -6.138  -6.874  0.00  0.00     0.036 C 
BRANCH   9  10
HETATM   10  C           1     -20.216  -4.756  -6.778  0.00  0.00     0.004 C 
BRANCH  10  11
HETATM   11  C           1     -21.248  -3.698  -7.148  0.00  0.00     0.027 C 
BRANCH  11  12
HETATM   12  C           1     -22.257  -4.292  -8.122  0.00  0.00     0.229 C 
BRANCH  12  13
HETATM   13  N           1     -23.635  -4.188  -7.540  0.00  0.00    -0.079 N 
HETATM   14  H           1     -23.618  -4.505  -6.544  0.00  0.00     0.274 HD
HETATM   15  H           1     -23.957  -3.195  -7.583  0.00  0.00     0.274 HD
HETATM   16  H           1     -24.290  -4.792  -8.086  0.00  0.00     0.274 HD
ENDBRANCH  12  13
ENDBRANCH  11  12
ENDBRANCH  10  11
ENDBRANCH   9  10
ENDBRANCH   5   9
ENDBRANCH   4   5
BRANCH   3  17
HETATM   17  C           1     -20.453 -10.592  -5.035  0.00  0.00     0.283 C 
BRANCH  17  18
HETATM   18  C           1     -19.110 -11.284  -4.844  0.00  0.00     0.113 C 
BRANCH  18  19
HETATM   19  S           1     -18.198 -11.281  -6.413  0.00  0.00    -0.180 SA
HETATM   20  H           1     -17.302 -12.220  -6.057  0.00  0.00     0.101 HD
ENDBRANCH  18  19
ENDBRANCH  17  18
BRANCH  17  21
HETATM   21  N           1     -20.974 -10.884  -6.411  0.00  0.00    -0.066 N 
HETATM   22  H           1     -21.209  -9.986  -6.892  0.00  0.00     0.275 HD
HETATM   23  H           1     -20.245 -11.392  -6.960  0.00  0.00     0.275 HD
HETATM   24  H           1     -21.833 -11.474  -6.340  0.00  0.00     0.275 HD
ENDBRANCH  17  21
ENDBRANCH   3  17
TORSDOF 11
ENDMDL
