MODEL 1
REMARK VINA RESULT:      -5.3      0.000      0.000
REMARK  9 active torsions:
REMARK  status: ('A' for Active; 'I' for Inactive)
REMARK    1  A    between atoms: C_1  and  C_3 
REMARK    2  A    between atoms: C_3  and  C_9 
REMARK    3  A    between atoms: C_3  and  N_15 
REMARK    4  A    between atoms: S_7  and  C_8 
REMARK    5  A    between atoms: C_8  and  C_9 
REMARK    6  A    between atoms: O_11  and  C_16 
REMARK    7  A    between atoms: N_12  and  C_17 
REMARK       I    between atoms: N_15  and  C_18 
REMARK    8  A    between atoms: C_16  and  C_17 
REMARK    9  A    between atoms: C_17  and  C_18 
ROOT
HETATM    1  H           1     -22.135  -5.746  -9.135  0.00  0.00     0.163 HD
HETATM    2  N           1     -22.121  -4.772  -8.860  0.00  0.00    -0.345 N 
HETATM    3  C           1     -21.550  -4.403  -7.671  0.00  0.00     0.251 C 
HETATM    4  O           1     -21.533  -3.240  -7.344  0.00  0.00    -0.271 OA
ENDROOT
BRANCH   2   5
HETATM    5  C           1     -22.706  -3.766  -9.726  0.00  0.00     0.186 C 
BRANCH   5   6
HETATM    6  C           1     -24.210  -3.854  -9.654  0.00  0.00     0.196 C 
HETATM    7  O           1     -24.885  -2.831  -9.405  0.00  0.00    -0.646 OA
HETATM    8  O           1     -24.782  -4.949  -9.842  0.00  0.00    -0.646 OA
ENDBRANCH   5   6
BRANCH   5   9
HETATM    9  C           1     -22.250  -4.005 -11.160  0.00  0.00     0.046 C 
BRANCH   9  10
HETATM   10  C           1     -22.457  -2.738 -11.977  0.00  0.00     0.076 C 
BRANCH  10  11
HETATM   11  S           1     -23.836  -2.980 -13.133  0.00  0.00    -0.173 SA
HETATM   12  C           1     -22.888  -2.650 -14.645  0.00  0.00     0.089 C 
ENDBRANCH  10  11
ENDBRANCH   9  10
ENDBRANCH   5   9
ENDBRANCH   2   5
BRANCH   3  13
HETATM   13  C           1     -20.942  -5.448  -6.770  0.00  0.00     0.297 C 
BRANCH  13  14
HETATM   14  N           1     -19.739  -4.875  -6.081  0.00  0.00    -0.064 N 
HETATM   15  H           1     -19.992  -3.960  -5.643  0.00  0.00     0.275 HD
HETATM   16  H           1     -18.975  -4.728  -6.778  0.00  0.00     0.275 HD
HETATM   17  H           1     -19.412  -5.537  -5.341  0.00  0.00     0.275 HD
ENDBRANCH  13  14
BRANCH  13  18
HETATM   18  C           1     -21.965  -5.879  -5.728  0.00  0.00     0.206 C 
BRANCH  18  19
HETATM   19  O           1     -23.190  -5.250  -5.987  0.00  0.00    -0.398 OA
HETATM   20  H           1     -23.861  -5.903  -5.886  0.00  0.00     0.209 HD
ENDBRANCH  18  19
ENDBRANCH  13  18
ENDBRANCH   3  13
TORSDOF 9
ENDMDL
MODEL 2
REMARK VINA RESULT:      -4.8      8.930     11.480
REMARK  9 active torsions:
REMARK  status: ('A' for Active; 'I' for Inactive)
REMARK    1  A    between atoms: C_1  and  C_3 
REMARK    2  A    between atoms: C_3  and  C_9 
REMARK    3  A    between atoms: C_3  and  N_15 
REMARK    4  A    between atoms: S_7  and  C_8 
REMARK    5  A    between atoms: C_8  and  C_9 
REMARK    6  A    between atoms: O_11  and  C_16 
REMARK    7  A    between atoms: N_12  and  C_17 
REMARK       I    between atoms: N_15  and  C_18 
REMARK    8  A    between atoms: C_16  and  C_17 
REMARK    9  A    between atoms: C_17  and  C_18 
ROOT
HETATM    1  H           1     -25.727  -7.632 -18.522  0.00  0.00     0.163 HD
HETATM    2  N           1     -26.441  -7.017 -18.890  0.00  0.00    -0.345 N 
HETATM    3  C           1     -27.203  -6.264 -18.036  0.00  0.00     0.251 C 
HETATM    4  O           1     -28.055  -5.530 -18.476  0.00  0.00    -0.271 OA
ENDROOT
BRANCH   2   5
HETATM    5  C           1     -26.658  -6.933 -20.321  0.00  0.00     0.186 C 
BRANCH   5   6
HETATM    6  C           1     -27.376  -8.172 -20.795  0.00  0.00     0.196 C 
HETATM    7  O           1     -26.867  -8.889 -21.683  0.00  0.00    -0.646 OA
HETATM    8  O           1     -28.482  -8.481 -20.301  0.00  0.00    -0.646 OA
ENDBRANCH   5   6
BRANCH   5   9
HETATM    9  C           1     -25.315  -6.820 -21.031  0.00  0.00     0.046 C 
BRANCH   9  10
HETATM   10  C           1     -24.240  -7.504 -20.198  0.00  0.00     0.076 C 
BRANCH  10  11
HETATM   11  S           1     -23.119  -8.423 -21.291  0.00  0.00    -0.173 SA
HETATM   12  C           1     -23.755  -7.739 -22.848  0.00  0.00     0.089 C 
ENDBRANCH  10  11
ENDBRANCH   9  10
ENDBRANCH   5   9
ENDBRANCH   2   5
BRANCH   3  13
HETATM   13  C           1     -26.977  -6.352 -16.547  0.00  0.00     0.297 C 
BRANCH  13  14
HETATM   14  N           1     -27.873  -7.407 -15.968  0.00  0.00    -0.064 N 
HETATM   15  H           1     -28.560  -7.716 -16.692  0.00  0.00     0.275 HD
HETATM   16  H           1     -28.384  -7.017 -15.145  0.00  0.00     0.275 HD
HETATM   17  H           1     -27.297  -8.225 -15.663  0.00  0.00     0.275 HD
ENDBRANCH  13  14
BRANCH  13  18
HETATM   18  C           1     -25.524  -6.714 -16.273  0.00  0.00     0.206 C 
BRANCH  18  19
HETATM   19  O           1     -24.925  -5.701 -15.511  0.00  0.00    -0.398 OA
HETATM   20  H           1     -25.415  -4.912 -15.669  0.00  0.00     0.209 HD
ENDBRANCH  18  19
ENDBRANCH  13  18
ENDBRANCH   3  13
TORSDOF 9
ENDMDL
MODEL 3
REMARK VINA RESULT:      -4.8      8.753     11.382
REMARK  9 active torsions:
REMARK  status: ('A' for Active; 'I' for Inactive)
REMARK    1  A    between atoms: C_1  and  C_3 
REMARK    2  A    between atoms: C_3  and  C_9 
REMARK    3  A    between atoms: C_3  and  N_15 
REMARK    4  A    between atoms: S_7  and  C_8 
REMARK    5  A    between atoms: C_8  and  C_9 
REMARK    6  A    between atoms: O_11  and  C_16 
REMARK    7  A    between atoms: N_12  and  C_17 
REMARK       I    between atoms: N_15  and  C_18 
REMARK    8  A    between atoms: C_16  and  C_17 
REMARK    9  A    between atoms: C_17  and  C_18 
ROOT
HETATM    1  H           1     -25.637  -7.315 -18.244  0.00  0.00     0.163 HD
HETATM    2  N           1     -26.428  -6.688 -18.173  0.00  0.00    -0.345 N 
HETATM    3  C           1     -27.063  -6.255 -19.306  0.00  0.00     0.251 C 
HETATM    4  O           1     -28.008  -5.506 -19.221  0.00  0.00    -0.271 OA
ENDROOT
BRANCH   2   5
HETATM    5  C           1     -26.890  -6.249 -16.870  0.00  0.00     0.186 C 
BRANCH   5   6
HETATM    6  C           1     -25.776  -6.401 -15.864  0.00  0.00     0.196 C 
HETATM    7  O           1     -25.633  -7.479 -15.248  0.00  0.00    -0.646 OA
HETATM    8  O           1     -24.998  -5.448 -15.645  0.00  0.00    -0.646 OA
ENDBRANCH   5   6
BRANCH   5   9
HETATM    9  C           1     -28.081  -7.097 -16.443  0.00  0.00     0.046 C 
BRANCH   9  10
HETATM   10  C           1     -29.060  -6.239 -15.654  0.00  0.00     0.076 C 
BRANCH  10  11
HETATM   11  S           1     -30.483  -5.824 -16.702  0.00  0.00    -0.173 SA
HETATM   12  C           1     -30.489  -7.371 -17.651  0.00  0.00     0.089 C 
ENDBRANCH  10  11
ENDBRANCH   9  10
ENDBRANCH   5   9
ENDBRANCH   2   5
BRANCH   3  13
HETATM   13  C           1     -26.582  -6.711 -20.662  0.00  0.00     0.297 C 
BRANCH  13  14
HETATM   14  N           1     -25.083  -6.768 -20.667  0.00  0.00    -0.064 N 
HETATM   15  H           1     -24.743  -7.056 -19.721  0.00  0.00     0.275 HD
HETATM   16  H           1     -24.699  -5.826 -20.903  0.00  0.00     0.275 HD
HETATM   17  H           1     -24.763  -7.463 -21.379  0.00  0.00     0.275 HD
ENDBRANCH  13  14
BRANCH  13  18
HETATM   18  C           1     -27.144  -8.094 -20.961  0.00  0.00     0.206 C 
BRANCH  18  19
HETATM   19  O           1     -28.232  -8.351 -20.116  0.00  0.00    -0.398 OA
HETATM   20  H           1     -29.002  -8.372 -20.658  0.00  0.00     0.209 HD
ENDBRANCH  18  19
ENDBRANCH  13  18
ENDBRANCH   3  13
TORSDOF 9
ENDMDL
MODEL 4
REMARK VINA RESULT:      -4.8      3.327      6.193
REMARK  9 active torsions:
REMARK  status: ('A' for Active; 'I' for Inactive)
REMARK    1  A    between atoms: C_1  and  C_3 
REMARK    2  A    between atoms: C_3  and  C_9 
REMARK    3  A    between atoms: C_3  and  N_15 
REMARK    4  A    between atoms: S_7  and  C_8 
REMARK    5  A    between atoms: C_8  and  C_9 
REMARK    6  A    between atoms: O_11  and  C_16 
REMARK    7  A    between atoms: N_12  and  C_17 
REMARK       I    between atoms: N_15  and  C_18 
REMARK    8  A    between atoms: C_16  and  C_17 
REMARK    9  A    between atoms: C_17  and  C_18 
ROOT
HETATM    1  H           1     -22.315  -6.212  -8.968  0.00  0.00     0.163 HD
HETATM    2  N           1     -22.221  -5.267  -8.620  0.00  0.00    -0.345 N 
HETATM    3  C           1     -23.080  -4.290  -9.049  0.00  0.00     0.251 C 
HETATM    4  O           1     -22.968  -3.161  -8.633  0.00  0.00    -0.271 OA
ENDROOT
BRANCH   2   5
HETATM    5  C           1     -21.177  -4.945  -7.667  0.00  0.00     0.186 C 
BRANCH   5   6
HETATM    6  C           1     -19.893  -4.655  -8.405  0.00  0.00     0.196 C 
HETATM    7  O           1     -18.881  -4.279  -7.775  0.00  0.00    -0.646 OA
HETATM    8  O           1     -19.843  -4.789  -9.646  0.00  0.00    -0.646 OA
ENDBRANCH   5   6
BRANCH   5   9
HETATM    9  C           1     -20.967  -6.125  -6.727  0.00  0.00     0.046 C 
BRANCH   9  10
HETATM   10  C           1     -21.820  -5.940  -5.479  0.00  0.00     0.076 C 
BRANCH  10  11
HETATM   11  S           1     -21.481  -7.284  -4.308  0.00  0.00    -0.173 SA
HETATM   12  C           1     -21.677  -6.289  -2.802  0.00  0.00     0.089 C 
ENDBRANCH  10  11
ENDBRANCH   9  10
ENDBRANCH   5   9
ENDBRANCH   2   5
BRANCH   3  13
HETATM   13  C           1     -24.167  -4.624 -10.041  0.00  0.00     0.297 C 
BRANCH  13  14
HETATM   14  N           1     -25.320  -3.683  -9.854  0.00  0.00    -0.064 N 
HETATM   15  H           1     -24.977  -2.794  -9.425  0.00  0.00     0.275 HD
HETATM   16  H           1     -26.030  -4.122  -9.226  0.00  0.00     0.275 HD
HETATM   17  H           1     -25.756  -3.477 -10.782  0.00  0.00     0.275 HD
ENDBRANCH  13  14
BRANCH  13  18
HETATM   18  C           1     -23.623  -4.485 -11.457  0.00  0.00     0.206 C 
BRANCH  18  19
HETATM   19  O           1     -22.230  -4.340 -11.411  0.00  0.00    -0.398 OA
HETATM   20  H           1     -21.889  -5.106 -10.981  0.00  0.00     0.209 HD
ENDBRANCH  18  19
ENDBRANCH  13  18
ENDBRANCH   3  13
TORSDOF 9
ENDMDL
MODEL 5
REMARK VINA RESULT:      -4.7      9.521     11.516
REMARK  9 active torsions:
REMARK  status: ('A' for Active; 'I' for Inactive)
REMARK    1  A    between atoms: C_1  and  C_3 
REMARK    2  A    between atoms: C_3  and  C_9 
REMARK    3  A    between atoms: C_3  and  N_15 
REMARK    4  A    between atoms: S_7  and  C_8 
REMARK    5  A    between atoms: C_8  and  C_9 
REMARK    6  A    between atoms: O_11  and  C_16 
REMARK    7  A    between atoms: N_12  and  C_17 
REMARK       I    between atoms: N_15  and  C_18 
REMARK    8  A    between atoms: C_16  and  C_17 
REMARK    9  A    between atoms: C_17  and  C_18 
ROOT
HETATM    1  H           1     -29.191  -4.970 -17.175  0.00  0.00     0.163 HD
HETATM    2  N           1     -29.226  -5.970 -17.331  0.00  0.00    -0.345 N 
HETATM    3  C           1     -30.429  -6.587 -17.552  0.00  0.00     0.251 C 
HETATM    4  O           1     -30.470  -7.780 -17.739  0.00  0.00    -0.271 OA
ENDROOT
BRANCH   2   5
HETATM    5  C           1     -28.003  -6.749 -17.320  0.00  0.00     0.186 C 
BRANCH   5   6
HETATM    6  C           1     -27.436  -6.774 -15.922  0.00  0.00     0.196 C 
HETATM    7  O           1     -26.457  -6.053 -15.632  0.00  0.00    -0.646 OA
HETATM    8  O           1     -27.943  -7.517 -15.055  0.00  0.00    -0.646 OA
ENDBRANCH   5   6
BRANCH   5   9
HETATM    9  C           1     -26.992  -6.118 -18.268  0.00  0.00     0.046 C 
BRANCH   9  10
HETATM   10  C           1     -27.189  -6.680 -19.669  0.00  0.00     0.076 C 
BRANCH  10  11
HETATM   11  S           1     -25.580  -6.822 -20.497  0.00  0.00    -0.173 SA
HETATM   12  C           1     -24.596  -7.025 -18.986  0.00  0.00     0.089 C 
ENDBRANCH  10  11
ENDBRANCH   9  10
ENDBRANCH   5   9
ENDBRANCH   2   5
BRANCH   3  13
HETATM   13  C           1     -31.702  -5.777 -17.564  0.00  0.00     0.297 C 
BRANCH  13  14
HETATM   14  N           1     -32.845  -6.638 -17.115  0.00  0.00    -0.064 N 
HETATM   15  H           1     -33.060  -7.345 -17.855  0.00  0.00     0.275 HD
HETATM   16  H           1     -33.686  -6.042 -16.949  0.00  0.00     0.275 HD
HETATM   17  H           1     -32.586  -7.128 -16.229  0.00  0.00     0.275 HD
ENDBRANCH  13  14
BRANCH  13  18
HETATM   18  C           1     -31.559  -4.591 -16.619  0.00  0.00     0.206 C 
BRANCH  18  19
HETATM   19  O           1     -31.321  -3.427 -17.362  0.00  0.00    -0.398 OA
HETATM   20  H           1     -31.842  -3.490 -18.144  0.00  0.00     0.209 HD
ENDBRANCH  18  19
ENDBRANCH  13  18
ENDBRANCH   3  13
TORSDOF 9
ENDMDL
MODEL 6
REMARK VINA RESULT:      -4.7     17.670     19.124
REMARK  9 active torsions:
REMARK  status: ('A' for Active; 'I' for Inactive)
REMARK    1  A    between atoms: C_1  and  C_3 
REMARK    2  A    between atoms: C_3  and  C_9 
REMARK    3  A    between atoms: C_3  and  N_15 
REMARK    4  A    between atoms: S_7  and  C_8 
REMARK    5  A    between atoms: C_8  and  C_9 
REMARK    6  A    between atoms: O_11  and  C_16 
REMARK    7  A    between atoms: N_12  and  C_17 
REMARK       I    between atoms: N_15  and  C_18 
REMARK    8  A    between atoms: C_16  and  C_17 
REMARK    9  A    between atoms: C_17  and  C_18 
ROOT
HETATM    1  H           1     -10.329   7.293 -20.834  0.00  0.00     0.163 HD
HETATM    2  N           1     -11.188   6.889 -20.484  0.00  0.00    -0.345 N 
HETATM    3  C           1     -12.130   7.688 -19.892  0.00  0.00     0.251 C 
HETATM    4  O           1     -13.155   7.205 -19.474  0.00  0.00    -0.271 OA
ENDROOT
BRANCH   2   5
HETATM    5  C           1     -11.422   5.463 -20.609  0.00  0.00     0.186 C 
BRANCH   5   6
HETATM    6  C           1     -10.451   4.715 -19.728  0.00  0.00     0.196 C 
HETATM    7  O           1      -9.644   5.346 -19.012  0.00  0.00    -0.646 OA
HETATM    8  O           1     -10.453   3.466 -19.716  0.00  0.00    -0.646 OA
ENDBRANCH   5   6
BRANCH   5   9
HETATM    9  C           1     -11.222   5.042 -22.059  0.00  0.00     0.046 C 
BRANCH   9  10
HETATM   10  C           1     -12.578   4.825 -22.717  0.00  0.00     0.076 C 
BRANCH  10  11
HETATM   11  S           1     -13.794   4.348 -21.457  0.00  0.00    -0.173 SA
HETATM   12  C           1     -13.425   2.571 -21.487  0.00  0.00     0.089 C 
ENDBRANCH  10  11
ENDBRANCH   9  10
ENDBRANCH   5   9
ENDBRANCH   2   5
BRANCH   3  13
HETATM   13  C           1     -11.886   9.171 -19.762  0.00  0.00     0.297 C 
BRANCH  13  14
HETATM   14  N           1     -12.885   9.759 -18.809  0.00  0.00    -0.064 N 
HETATM   15  H           1     -13.484  10.451 -19.316  0.00  0.00     0.275 HD
HETATM   16  H           1     -12.382  10.238 -18.029  0.00  0.00     0.275 HD
HETATM   17  H           1     -13.486   8.997 -18.420  0.00  0.00     0.275 HD
ENDBRANCH  13  14
BRANCH  13  18
HETATM   18  C           1     -10.479   9.411 -19.233  0.00  0.00     0.206 C 
BRANCH  18  19
HETATM   19  O           1     -10.147   8.408 -18.312  0.00  0.00    -0.398 OA
HETATM   20  H           1      -9.272   8.588 -18.014  0.00  0.00     0.209 HD
ENDBRANCH  18  19
ENDBRANCH  13  18
ENDBRANCH   3  13
TORSDOF 9
ENDMDL
MODEL 7
REMARK VINA RESULT:      -4.6     18.266     19.344
REMARK  9 active torsions:
REMARK  status: ('A' for Active; 'I' for Inactive)
REMARK    1  A    between atoms: C_1  and  C_3 
REMARK    2  A    between atoms: C_3  and  C_9 
REMARK    3  A    between atoms: C_3  and  N_15 
REMARK    4  A    between atoms: S_7  and  C_8 
REMARK    5  A    between atoms: C_8  and  C_9 
REMARK    6  A    between atoms: O_11  and  C_16 
REMARK    7  A    between atoms: N_12  and  C_17 
REMARK       I    between atoms: N_15  and  C_18 
REMARK    8  A    between atoms: C_16  and  C_17 
REMARK    9  A    between atoms: C_17  and  C_18 
ROOT
HETATM    1  H           1     -11.967   6.351 -21.803  0.00  0.00     0.163 HD
HETATM    2  N           1     -11.555   5.458 -21.562  0.00  0.00    -0.345 N 
HETATM    3  C           1     -12.115   4.297 -22.025  0.00  0.00     0.251 C 
HETATM    4  O           1     -11.623   3.232 -21.737  0.00  0.00    -0.271 OA
ENDROOT
BRANCH   2   5
HETATM    5  C           1     -10.371   5.409 -20.726  0.00  0.00     0.186 C 
BRANCH   5   6
HETATM    6  C           1     -10.779   5.451 -19.274  0.00  0.00     0.196 C 
HETATM    7  O           1     -11.960   5.203 -18.949  0.00  0.00    -0.646 OA
HETATM    8  O           1      -9.936   5.735 -18.396  0.00  0.00    -0.646 OA
ENDBRANCH   5   6
BRANCH   5   9
HETATM    9  C           1      -9.480   6.604 -21.039  0.00  0.00     0.046 C 
BRANCH   9  10
HETATM   10  C           1     -10.345   7.804 -21.398  0.00  0.00     0.076 C 
BRANCH  10  11
HETATM   11  S           1     -10.048   9.142 -20.208  0.00  0.00    -0.173 SA
HETATM   12  C           1     -11.671   9.055 -19.401  0.00  0.00     0.089 C 
ENDBRANCH  10  11
ENDBRANCH   9  10
ENDBRANCH   5   9
ENDBRANCH   2   5
BRANCH   3  13
HETATM   13  C           1     -13.347   4.348 -22.894  0.00  0.00     0.297 C 
BRANCH  13  14
HETATM   14  N           1     -14.105   3.060 -22.762  0.00  0.00    -0.064 N 
HETATM   15  H           1     -15.084   3.262 -22.458  0.00  0.00     0.275 HD
HETATM   16  H           1     -13.637   2.452 -22.052  0.00  0.00     0.275 HD
HETATM   17  H           1     -14.120   2.568 -23.684  0.00  0.00     0.275 HD
ENDBRANCH  13  14
BRANCH  13  18
HETATM   18  C           1     -14.233   5.505 -22.454  0.00  0.00     0.206 C 
BRANCH  18  19
HETATM   19  O           1     -14.314   5.526 -21.054  0.00  0.00    -0.398 OA
HETATM   20  H           1     -14.558   4.659 -20.781  0.00  0.00     0.209 HD
ENDBRANCH  18  19
ENDBRANCH  13  18
ENDBRANCH   3  13
TORSDOF 9
ENDMDL
MODEL 8
REMARK VINA RESULT:      -4.5      8.036     10.282
REMARK  9 active torsions:
REMARK  status: ('A' for Active; 'I' for Inactive)
REMARK    1  A    between atoms: C_1  and  C_3 
REMARK    2  A    between atoms: C_3  and  C_9 
REMARK    3  A    between atoms: C_3  and  N_15 
REMARK    4  A    between atoms: S_7  and  C_8 
REMARK    5  A    between atoms: C_8  and  C_9 
REMARK    6  A    between atoms: O_11  and  C_16 
REMARK    7  A    between atoms: N_12  and  C_17 
REMARK       I    between atoms: N_15  and  C_18 
REMARK    8  A    between atoms: C_16  and  C_17 
REMARK    9  A    between atoms: C_17  and  C_18 
ROOT
HETATM    1  H           1     -26.578  -7.450 -18.278  0.00  0.00     0.163 HD
HETATM    2  N           1     -27.144  -6.833 -17.710  0.00  0.00    -0.345 N 
HETATM    3  C           1     -26.779  -6.562 -16.418  0.00  0.00     0.251 C 
HETATM    4  O           1     -27.455  -5.824 -15.741  0.00  0.00    -0.271 OA
ENDROOT
BRANCH   2   5
HETATM    5  C           1     -28.343  -6.234 -18.265  0.00  0.00     0.186 C 
BRANCH   5   6
HETATM    6  C           1     -29.518  -7.150 -18.028  0.00  0.00     0.196 C 
HETATM    7  O           1     -30.362  -6.870 -17.149  0.00  0.00    -0.646 OA
HETATM    8  O           1     -29.647  -8.190 -18.708  0.00  0.00    -0.646 OA
ENDBRANCH   5   6
BRANCH   5   9
HETATM    9  C           1     -28.157  -6.022 -19.762  0.00  0.00     0.046 C 
BRANCH   9  10
HETATM   10  C           1     -26.731  -6.380 -20.153  0.00  0.00     0.076 C 
BRANCH  10  11
HETATM   11  S           1     -26.727  -7.960 -21.047  0.00  0.00    -0.173 SA
HETATM   12  C           1     -24.932  -8.036 -21.308  0.00  0.00     0.089 C 
ENDBRANCH  10  11
ENDBRANCH   9  10
ENDBRANCH   5   9
ENDBRANCH   2   5
BRANCH   3  13
HETATM   13  C           1     -25.531  -7.184 -15.841  0.00  0.00     0.297 C 
BRANCH  13  14
HETATM   14  N           1     -24.517  -7.372 -16.930  0.00  0.00    -0.064 N 
HETATM   15  H           1     -25.002  -7.405 -17.855  0.00  0.00     0.275 HD
HETATM   16  H           1     -24.000  -8.266 -16.774  0.00  0.00     0.275 HD
HETATM   17  H           1     -23.841  -6.574 -16.918  0.00  0.00     0.275 HD
ENDBRANCH  13  14
BRANCH  13  18
HETATM   18  C           1     -24.958  -6.270 -14.766  0.00  0.00     0.206 C 
BRANCH  18  19
HETATM   19  O           1     -24.493  -5.087 -15.356  0.00  0.00    -0.398 OA
HETATM   20  H           1     -24.253  -5.299 -16.242  0.00  0.00     0.209 HD
ENDBRANCH  18  19
ENDBRANCH  13  18
ENDBRANCH   3  13
TORSDOF 9
ENDMDL
MODEL 9
REMARK VINA RESULT:      -4.4      4.181      7.122
REMARK  9 active torsions:
REMARK  status: ('A' for Active; 'I' for Inactive)
REMARK    1  A    between atoms: C_1  and  C_3 
REMARK    2  A    between atoms: C_3  and  C_9 
REMARK    3  A    between atoms: C_3  and  N_15 
REMARK    4  A    between atoms: S_7  and  C_8 
REMARK    5  A    between atoms: C_8  and  C_9 
REMARK    6  A    between atoms: O_11  and  C_16 
REMARK    7  A    between atoms: N_12  and  C_17 
REMARK       I    between atoms: N_15  and  C_18 
REMARK    8  A    between atoms: C_16  and  C_17 
REMARK    9  A    between atoms: C_17  and  C_18 
ROOT
HETATM    1  H           1     -22.527  -5.758  -6.629  0.00  0.00     0.163 HD
HETATM    2  N           1     -21.572  -5.591  -6.338  0.00  0.00    -0.345 N 
HETATM    3  C           1     -20.799  -4.683  -7.011  0.00  0.00     0.251 C 
HETATM    4  O           1     -19.660  -4.483  -6.663  0.00  0.00    -0.271 OA
ENDROOT
BRANCH   2   5
HETATM    5  C           1     -21.022  -6.314  -5.207  0.00  0.00     0.186 C 
BRANCH   5   6
HETATM    6  C           1     -20.534  -7.667  -5.664  0.00  0.00     0.196 C 
HETATM    7  O           1     -19.342  -7.817  -6.010  0.00  0.00    -0.646 OA
HETATM    8  O           1     -21.322  -8.636  -5.698  0.00  0.00    -0.646 OA
ENDBRANCH   5   6
BRANCH   5   9
HETATM    9  C           1     -22.101  -6.493  -4.147  0.00  0.00     0.046 C 
BRANCH   9  10
HETATM   10  C           1     -21.521  -6.183  -2.774  0.00  0.00     0.076 C 
BRANCH  10  11
HETATM   11  S           1     -21.307  -7.726  -1.843  0.00  0.00    -0.173 SA
HETATM   12  C           1     -22.430  -7.296  -0.484  0.00  0.00     0.089 C 
ENDBRANCH  10  11
ENDBRANCH   9  10
ENDBRANCH   5   9
ENDBRANCH   2   5
BRANCH   3  13
HETATM   13  C           1     -21.371  -3.931  -8.188  0.00  0.00     0.297 C 
BRANCH  13  14
HETATM   14  N           1     -20.407  -3.991  -9.335  0.00  0.00    -0.064 N 
HETATM   15  H           1     -19.609  -4.619  -9.086  0.00  0.00     0.275 HD
HETATM   16  H           1     -20.045  -3.032  -9.538  0.00  0.00     0.275 HD
HETATM   17  H           1     -20.894  -4.365 -10.181  0.00  0.00     0.275 HD
ENDBRANCH  13  14
BRANCH  13  18
HETATM   18  C           1     -22.692  -4.564  -8.602  0.00  0.00     0.206 C 
BRANCH  18  19
HETATM   19  O           1     -23.720  -4.085  -7.778  0.00  0.00    -0.398 OA
HETATM   20  H           1     -23.511  -3.190  -7.571  0.00  0.00     0.209 HD
ENDBRANCH  18  19
ENDBRANCH  13  18
ENDBRANCH   3  13
TORSDOF 9
ENDMDL
