MODEL 1
REMARK VINA RESULT:      -8.4      0.000      0.000
REMARK  11 active torsions:
REMARK  status: ('A' for Active; 'I' for Inactive)
REMARK    1  A    between atoms: N_2  and  C_11 
REMARK    2  A    between atoms: C_4  and  C_30 
REMARK    3  A    between atoms: N_9  and  C_30 
REMARK       I    between atoms: N_9  and  C_10 
REMARK    4  A    between atoms: C_10  and  C_11 
REMARK    5  A    between atoms: C_11  and  C_12 
REMARK    6  A    between atoms: C_12  and  C_13 
REMARK    7  A    between atoms: C_16  and  O_17 
REMARK    8  A    between atoms: O_17  and  P_18 
REMARK    9  A    between atoms: P_18  and  O_19 
REMARK   10  A    between atoms: C_30  and  C_31 
REMARK   11  A    between atoms: C_31  and  C_32 
ROOT
HETATM    1  C           1     -20.158  -4.650  -7.356  0.00  0.00     0.278 C 
ENDROOT
BRANCH   1   2
HETATM    2  N           1     -18.769  -4.160  -7.640  0.00  0.00    -0.066 N 
HETATM    3  H           1     -18.282  -4.837  -8.270  0.00  0.00     0.275 HD
HETATM    4  H           1     -18.819  -3.226  -8.105  0.00  0.00     0.275 HD
HETATM    5  H           1     -18.240  -4.076  -6.742  0.00  0.00     0.275 HD
ENDBRANCH   1   2
BRANCH   1   6
HETATM    6  C           1     -20.147  -5.499  -6.108  0.00  0.00     0.249 C 
HETATM    7  O           1     -20.247  -4.978  -5.023  0.00  0.00    -0.271 OA
HETATM    8  N           1     -20.026  -6.859  -6.207  0.00  0.00    -0.344 N 
HETATM    9  H           1     -19.942  -7.296  -7.115  0.00  0.00     0.163 HD
BRANCH   8  10
HETATM   10  C           1     -20.015  -7.674  -5.007  0.00  0.00     0.191 C 
BRANCH  10  11
HETATM   11  C           1     -19.253  -8.949  -5.272  0.00  0.00     0.197 C 
HETATM   12  O           1     -19.384  -9.927  -4.503  0.00  0.00    -0.646 OA
HETATM   13  O           1     -18.490  -9.029  -6.259  0.00  0.00    -0.646 OA
ENDBRANCH  10  11
BRANCH  10  14
HETATM   14  C           1     -21.445  -8.012  -4.610  0.00  0.00     0.094 C 
BRANCH  14  15
HETATM   15  C           1     -21.716  -7.502  -3.229  0.00  0.00     0.028 A 
HETATM   16  N           1     -22.127  -6.227  -2.936  0.00  0.00    -0.354 N 
HETATM   17  C           1     -22.247  -6.193  -1.629  0.00  0.00     0.180 A 
ATOM     18  HN          1     -22.303  -5.467  -3.594  1.00  0.00     0.166 HD
HETATM   19  N           1     -21.927  -7.397  -1.067  0.00  0.00    -0.360 N 
HETATM   20  H           1     -21.942  -7.627  -0.042  0.00  0.00     0.166 HD
HETATM   21  C           1     -21.585  -8.246  -2.081  0.00  0.00     0.114 A 
ENDBRANCH  14  15
ENDBRANCH  10  14
ENDBRANCH   8  10
ENDBRANCH   1   6
BRANCH   1  22
HETATM   22  C           1     -20.652  -5.482  -8.532  0.00  0.00     0.081 C 
BRANCH  22  23
HETATM   23  C           1     -21.298  -4.586  -9.542  0.00  0.00    -0.056 A 
HETATM   24  C           1     -20.547  -4.077 -10.603  0.00  0.00     0.010 A 
HETATM   25  C           1     -21.149  -3.242 -11.544  0.00  0.00     0.038 A 
HETATM   26  C           1     -22.499  -2.915 -11.426  0.00  0.00     0.081 A 
HETATM   27  C           1     -23.249  -3.424 -10.365  0.00  0.00     0.038 A 
HETATM   28  C           1     -22.648  -4.259  -9.424  0.00  0.00     0.010 A 
BRANCH  26  29
HETATM   29  O           1     -23.083  -2.104 -12.340  0.00  0.00    -0.247 OA
BRANCH  29  30
HETATM   30  P           1     -23.504  -2.744 -13.762  0.00  0.00     0.411 P 
HETATM   31  O           1     -24.371  -3.921 -13.535  0.00  0.00    -0.624 OA
HETATM   32  O           1     -24.236  -1.735 -14.559  0.00  0.00    -0.624 OA
BRANCH  30  33
HETATM   33  O           1     -22.177  -3.202 -14.561  0.00  0.00    -0.300 OA
HETATM   34  H           1     -22.446  -3.941 -15.077  0.00  0.00     0.223 HD
ENDBRANCH  30  33
ENDBRANCH  29  30
ENDBRANCH  26  29
ENDBRANCH  22  23
ENDBRANCH   1  22
TORSDOF 11
ENDMDL
MODEL 2
REMARK VINA RESULT:      -8.1      2.032      3.363
REMARK  11 active torsions:
REMARK  status: ('A' for Active; 'I' for Inactive)
REMARK    1  A    between atoms: N_2  and  C_11 
REMARK    2  A    between atoms: C_4  and  C_30 
REMARK    3  A    between atoms: N_9  and  C_30 
REMARK       I    between atoms: N_9  and  C_10 
REMARK    4  A    between atoms: C_10  and  C_11 
REMARK    5  A    between atoms: C_11  and  C_12 
REMARK    6  A    between atoms: C_12  and  C_13 
REMARK    7  A    between atoms: C_16  and  O_17 
REMARK    8  A    between atoms: O_17  and  P_18 
REMARK    9  A    between atoms: P_18  and  O_19 
REMARK   10  A    between atoms: C_30  and  C_31 
REMARK   11  A    between atoms: C_31  and  C_32 
ROOT
HETATM    1  C           1     -21.039  -5.018  -6.067  0.00  0.00     0.278 C 
ENDROOT
BRANCH   1   2
HETATM    2  N           1     -19.797  -4.445  -5.450  0.00  0.00    -0.066 N 
HETATM    3  H           1     -19.034  -5.159  -5.474  0.00  0.00     0.275 HD
HETATM    4  H           1     -19.501  -3.600  -5.987  0.00  0.00     0.275 HD
HETATM    5  H           1     -19.994  -4.177  -4.458  0.00  0.00     0.275 HD
ENDBRANCH   1   2
BRANCH   1   6
HETATM    6  C           1     -21.652  -6.023  -5.123  0.00  0.00     0.249 C 
HETATM    7  O           1     -22.801  -6.365  -5.268  0.00  0.00    -0.271 OA
HETATM    8  N           1     -20.904  -6.549  -4.103  0.00  0.00    -0.344 N 
HETATM    9  H           1     -19.942  -6.263  -3.981  0.00  0.00     0.163 HD
BRANCH   8  10
HETATM   10  C           1     -21.494  -7.514  -3.196  0.00  0.00     0.191 C 
BRANCH  10  11
HETATM   11  C           1     -21.995  -6.805  -1.962  0.00  0.00     0.197 C 
HETATM   12  O           1     -22.191  -5.570  -1.986  0.00  0.00    -0.646 OA
HETATM   13  O           1     -22.213  -7.451  -0.914  0.00  0.00    -0.646 OA
ENDBRANCH  10  11
BRANCH  10  14
HETATM   14  C           1     -20.445  -8.544  -2.798  0.00  0.00     0.094 C 
BRANCH  14  15
HETATM   15  C           1     -19.918  -9.222  -4.025  0.00  0.00     0.028 A 
HETATM   16  N           1     -18.596  -9.260  -4.386  0.00  0.00    -0.354 N 
HETATM   17  C           1     -18.563  -9.942  -5.507  0.00  0.00     0.180 A 
ATOM     18  HN          1     -17.806  -8.846  -3.889  1.00  0.00     0.166 HD
HETATM   19  N           1     -19.812 -10.344  -5.885  0.00  0.00    -0.360 N 
HETATM   20  H           1     -20.053 -10.902  -6.742  0.00  0.00     0.166 HD
HETATM   21  C           1     -20.692  -9.890  -4.943  0.00  0.00     0.114 A 
ENDBRANCH  14  15
ENDBRANCH  10  14
ENDBRANCH   8  10
ENDBRANCH   1   6
BRANCH   1  22
HETATM   22  C           1     -20.683  -5.704  -7.378  0.00  0.00     0.081 C 
BRANCH  22  23
HETATM   23  C           1     -21.207  -4.897  -8.524  0.00  0.00    -0.056 A 
HETATM   24  C           1     -22.503  -4.382  -8.479  0.00  0.00     0.010 A 
HETATM   25  C           1     -22.992  -3.630  -9.547  0.00  0.00     0.038 A 
HETATM   26  C           1     -22.186  -3.392 -10.660  0.00  0.00     0.081 A 
HETATM   27  C           1     -20.890  -3.907 -10.705  0.00  0.00     0.038 A 
HETATM   28  C           1     -20.401  -4.659  -9.638  0.00  0.00     0.010 A 
BRANCH  26  29
HETATM   29  O           1     -22.661  -2.661 -11.697  0.00  0.00    -0.247 OA
BRANCH  29  30
HETATM   30  P           1     -23.815  -3.314 -12.619  0.00  0.00     0.411 P 
HETATM   31  O           1     -25.142  -3.001 -12.042  0.00  0.00    -0.624 OA
HETATM   32  O           1     -23.727  -2.757 -13.987  0.00  0.00    -0.624 OA
BRANCH  30  33
HETATM   33  O           1     -23.618  -4.916 -12.676  0.00  0.00    -0.300 OA
HETATM   34  H           1     -22.844  -5.085 -12.168  0.00  0.00     0.223 HD
ENDBRANCH  30  33
ENDBRANCH  29  30
ENDBRANCH  26  29
ENDBRANCH  22  23
ENDBRANCH   1  22
TORSDOF 11
ENDMDL
MODEL 3
REMARK VINA RESULT:      -7.9      1.619      2.162
REMARK  11 active torsions:
REMARK  status: ('A' for Active; 'I' for Inactive)
REMARK    1  A    between atoms: N_2  and  C_11 
REMARK    2  A    between atoms: C_4  and  C_30 
REMARK    3  A    between atoms: N_9  and  C_30 
REMARK       I    between atoms: N_9  and  C_10 
REMARK    4  A    between atoms: C_10  and  C_11 
REMARK    5  A    between atoms: C_11  and  C_12 
REMARK    6  A    between atoms: C_12  and  C_13 
REMARK    7  A    between atoms: C_16  and  O_17 
REMARK    8  A    between atoms: O_17  and  P_18 
REMARK    9  A    between atoms: P_18  and  O_19 
REMARK   10  A    between atoms: C_30  and  C_31 
REMARK   11  A    between atoms: C_31  and  C_32 
ROOT
HETATM    1  C           1     -21.016  -5.374  -6.435  0.00  0.00     0.278 C 
ENDROOT
BRANCH   1   2
HETATM    2  N           1     -20.366  -4.144  -5.873  0.00  0.00    -0.066 N 
HETATM    3  H           1     -20.014  -4.345  -4.911  0.00  0.00     0.275 HD
HETATM    4  H           1     -19.567  -3.863  -6.485  0.00  0.00     0.275 HD
HETATM    5  H           1     -21.066  -3.368  -5.834  0.00  0.00     0.275 HD
ENDBRANCH   1   2
BRANCH   1   6
HETATM    6  C           1     -20.783  -6.537  -5.502  0.00  0.00     0.249 C 
HETATM    7  O           1     -21.189  -6.490  -4.366  0.00  0.00    -0.271 OA
HETATM    8  N           1     -20.114  -7.646  -5.946  0.00  0.00    -0.344 N 
HETATM    9  H           1     -19.774  -7.686  -6.897  0.00  0.00     0.163 HD
BRANCH   8  10
HETATM   10  C           1     -19.890  -8.763  -5.049  0.00  0.00     0.191 C 
BRANCH  10  11
HETATM   11  C           1     -18.596  -9.450  -5.413  0.00  0.00     0.197 C 
HETATM   12  O           1     -18.037  -9.193  -6.502  0.00  0.00    -0.646 OA
HETATM   13  O           1     -18.084 -10.276  -4.627  0.00  0.00    -0.646 OA
ENDBRANCH  10  11
BRANCH  10  14
HETATM   14  C           1     -21.041  -9.752  -5.173  0.00  0.00     0.094 C 
BRANCH  14  15
HETATM   15  C           1     -21.634 -10.004  -3.822  0.00  0.00     0.028 A 
HETATM   16  N           1     -21.459  -9.191  -2.732  0.00  0.00    -0.354 N 
HETATM   17  C           1     -22.135  -9.762  -1.762  0.00  0.00     0.180 A 
ATOM     18  HN          1     -20.919  -8.326  -2.685  1.00  0.00     0.166 HD
HETATM   19  N           1     -22.739 -10.912  -2.184  0.00  0.00    -0.360 N 
HETATM   20  H           1     -23.335 -11.551  -1.600  0.00  0.00     0.166 HD
HETATM   21  C           1     -22.426 -11.080  -3.504  0.00  0.00     0.114 A 
ENDBRANCH  14  15
ENDBRANCH  10  14
ENDBRANCH   8  10
ENDBRANCH   1   6
BRANCH   1  22
HETATM   22  C           1     -20.414  -5.687  -7.798  0.00  0.00     0.081 C 
BRANCH  22  23
HETATM   23  C           1     -21.086  -4.854  -8.845  0.00  0.00    -0.056 A 
HETATM   24  C           1     -22.417  -4.468  -8.681  0.00  0.00     0.010 A 
HETATM   25  C           1     -23.042  -3.692  -9.656  0.00  0.00     0.038 A 
HETATM   26  C           1     -22.339  -3.303 -10.796  0.00  0.00     0.081 A 
HETATM   27  C           1     -21.009  -3.689 -10.960  0.00  0.00     0.038 A 
HETATM   28  C           1     -20.383  -4.465  -9.985  0.00  0.00     0.010 A 
BRANCH  26  29
HETATM   29  O           1     -22.947  -2.549 -11.743  0.00  0.00    -0.247 OA
BRANCH  29  30
HETATM   30  P           1     -23.887  -3.299 -12.821  0.00  0.00     0.411 P 
HETATM   31  O           1     -25.305  -2.976 -12.547  0.00  0.00    -0.624 OA
HETATM   32  O           1     -23.531  -2.847 -14.185  0.00  0.00    -0.624 OA
BRANCH  30  33
HETATM   33  O           1     -23.669  -4.895 -12.708  0.00  0.00    -0.300 OA
HETATM   34  H           1     -23.886  -5.109 -11.817  0.00  0.00     0.223 HD
ENDBRANCH  30  33
ENDBRANCH  29  30
ENDBRANCH  26  29
ENDBRANCH  22  23
ENDBRANCH   1  22
TORSDOF 11
ENDMDL
MODEL 4
REMARK VINA RESULT:      -7.7      4.476      9.984
REMARK  11 active torsions:
REMARK  status: ('A' for Active; 'I' for Inactive)
REMARK    1  A    between atoms: N_2  and  C_11 
REMARK    2  A    between atoms: C_4  and  C_30 
REMARK    3  A    between atoms: N_9  and  C_30 
REMARK       I    between atoms: N_9  and  C_10 
REMARK    4  A    between atoms: C_10  and  C_11 
REMARK    5  A    between atoms: C_11  and  C_12 
REMARK    6  A    between atoms: C_12  and  C_13 
REMARK    7  A    between atoms: C_16  and  O_17 
REMARK    8  A    between atoms: O_17  and  P_18 
REMARK    9  A    between atoms: P_18  and  O_19 
REMARK   10  A    between atoms: C_30  and  C_31 
REMARK   11  A    between atoms: C_31  and  C_32 
ROOT
HETATM    1  C           1     -21.076  -5.425  -6.290  0.00  0.00     0.278 C 
ENDROOT
BRANCH   1   2
HETATM    2  N           1     -20.150  -4.728  -5.337  0.00  0.00    -0.066 N 
HETATM    3  H           1     -20.056  -3.724  -5.613  0.00  0.00     0.275 HD
HETATM    4  H           1     -20.537  -4.789  -4.369  0.00  0.00     0.275 HD
HETATM    5  H           1     -19.211  -5.187  -5.367  0.00  0.00     0.275 HD
ENDBRANCH   1   2
BRANCH   1   6
HETATM    6  C           1     -21.527  -4.454  -7.353  0.00  0.00     0.249 C 
HETATM    7  O           1     -21.306  -3.274  -7.227  0.00  0.00    -0.271 OA
HETATM    8  N           1     -22.187  -4.913  -8.463  0.00  0.00    -0.344 N 
HETATM    9  H           1     -22.372  -5.901  -8.569  0.00  0.00     0.163 HD
BRANCH   8  10
HETATM   10  C           1     -22.620  -3.980  -9.485  0.00  0.00     0.191 C 
BRANCH  10  11
HETATM   11  C           1     -24.127  -3.995  -9.574  0.00  0.00     0.197 C 
HETATM   12  O           1     -24.777  -2.950  -9.352  0.00  0.00    -0.646 OA
HETATM   13  O           1     -24.725  -5.053  -9.869  0.00  0.00    -0.646 OA
ENDBRANCH  10  11
BRANCH  10  14
HETATM   14  C           1     -22.029  -4.387 -10.827  0.00  0.00     0.094 C 
BRANCH  14  15
HETATM   15  C           1     -22.780  -3.709 -11.931  0.00  0.00     0.028 A 
HETATM   16  N           1     -23.635  -4.345 -12.795  0.00  0.00    -0.354 N 
HETATM   17  C           1     -24.078  -3.405 -13.597  0.00  0.00     0.180 A 
ATOM     18  HN          1     -23.876  -5.336 -12.809  1.00  0.00     0.166 HD
HETATM   19  N           1     -23.541  -2.188 -13.286  0.00  0.00    -0.360 N 
HETATM   20  H           1     -23.735  -1.280 -13.778  0.00  0.00     0.166 HD
HETATM   21  C           1     -22.706  -2.368 -12.219  0.00  0.00     0.114 A 
ENDBRANCH  14  15
ENDBRANCH  10  14
ENDBRANCH   8  10
ENDBRANCH   1   6
BRANCH   1  22
HETATM   22  C           1     -22.287  -5.945  -5.529  0.00  0.00     0.081 C 
BRANCH  22  23
HETATM   23  C           1     -21.832  -6.751  -4.353  0.00  0.00    -0.056 A 
HETATM   24  C           1     -21.961  -6.235  -3.063  0.00  0.00     0.010 A 
HETATM   25  C           1     -21.536  -6.986  -1.967  0.00  0.00     0.038 A 
HETATM   26  C           1     -20.981  -8.251  -2.160  0.00  0.00     0.081 A 
HETATM   27  C           1     -20.852  -8.766  -3.450  0.00  0.00     0.038 A 
HETATM   28  C           1     -21.277  -8.016  -4.546  0.00  0.00     0.010 A 
BRANCH  26  29
HETATM   29  O           1     -20.569  -8.980  -1.095  0.00  0.00    -0.247 OA
BRANCH  29  30
HETATM   30  P           1     -21.680  -9.450  -0.021  0.00  0.00     0.411 P 
HETATM   31  O           1     -22.954  -9.727  -0.721  0.00  0.00    -0.624 OA
HETATM   32  O           1     -21.215 -10.675   0.665  0.00  0.00    -0.624 OA
BRANCH  30  33
HETATM   33  O           1     -21.908  -8.277   1.066  0.00  0.00    -0.300 OA
HETATM   34  H           1     -22.187  -7.531   0.564  0.00  0.00     0.223 HD
ENDBRANCH  30  33
ENDBRANCH  29  30
ENDBRANCH  26  29
ENDBRANCH  22  23
ENDBRANCH   1  22
TORSDOF 11
ENDMDL
MODEL 5
REMARK VINA RESULT:      -7.7      2.481      4.304
REMARK  11 active torsions:
REMARK  status: ('A' for Active; 'I' for Inactive)
REMARK    1  A    between atoms: N_2  and  C_11 
REMARK    2  A    between atoms: C_4  and  C_30 
REMARK    3  A    between atoms: N_9  and  C_30 
REMARK       I    between atoms: N_9  and  C_10 
REMARK    4  A    between atoms: C_10  and  C_11 
REMARK    5  A    between atoms: C_11  and  C_12 
REMARK    6  A    between atoms: C_12  and  C_13 
REMARK    7  A    between atoms: C_16  and  O_17 
REMARK    8  A    between atoms: O_17  and  P_18 
REMARK    9  A    between atoms: P_18  and  O_19 
REMARK   10  A    between atoms: C_30  and  C_31 
REMARK   11  A    between atoms: C_31  and  C_32 
ROOT
HETATM    1  C           1     -21.308  -6.426  -5.406  0.00  0.00     0.278 C 
ENDROOT
BRANCH   1   2
HETATM    2  N           1     -21.648  -5.915  -4.037  0.00  0.00    -0.066 N 
HETATM    3  H           1     -21.670  -4.871  -4.050  0.00  0.00     0.275 HD
HETATM    4  H           1     -22.585  -6.280  -3.753  0.00  0.00     0.275 HD
HETATM    5  H           1     -20.926  -6.240  -3.355  0.00  0.00     0.275 HD
ENDBRANCH   1   2
BRANCH   1   6
HETATM    6  C           1     -20.749  -7.823  -5.296  0.00  0.00     0.249 C 
HETATM    7  O           1     -21.191  -8.707  -5.991  0.00  0.00    -0.271 OA
HETATM    8  N           1     -19.739  -8.089  -4.411  0.00  0.00    -0.344 N 
HETATM    9  H           1     -19.368  -7.349  -3.829  0.00  0.00     0.163 HD
BRANCH   8  10
HETATM   10  C           1     -19.201  -9.431  -4.306  0.00  0.00     0.191 C 
BRANCH  10  11
HETATM   11  C           1     -18.791  -9.699  -2.878  0.00  0.00     0.197 C 
HETATM   12  O           1     -17.582  -9.850  -2.594  0.00  0.00    -0.646 OA
HETATM   13  O           1     -19.658  -9.770  -1.981  0.00  0.00    -0.646 OA
ENDBRANCH  10  11
BRANCH  10  14
HETATM   14  C           1     -17.988  -9.565  -5.216  0.00  0.00     0.094 C 
BRANCH  14  15
HETATM   15  C           1     -18.152 -10.766  -6.095  0.00  0.00     0.028 A 
HETATM   16  N           1     -19.313 -11.105  -6.741  0.00  0.00    -0.354 N 
HETATM   17  C           1     -19.035 -12.209  -7.396  0.00  0.00     0.180 A 
ATOM     18  HN          1     -20.203 -10.607  -6.717  1.00  0.00     0.166 HD
HETATM   19  N           1     -17.740 -12.595  -7.198  0.00  0.00    -0.360 N 
HETATM   20  H           1     -17.274 -13.442  -7.610  0.00  0.00     0.166 HD
HETATM   21  C           1     -17.161 -11.678  -6.365  0.00  0.00     0.114 A 
ENDBRANCH  14  15
ENDBRANCH  10  14
ENDBRANCH   8  10
ENDBRANCH   1   6
BRANCH   1  22
HETATM   22  C           1     -20.271  -5.512  -6.045  0.00  0.00     0.081 C 
BRANCH  22  23
HETATM   23  C           1     -20.830  -4.926  -7.304  0.00  0.00    -0.056 A 
HETATM   24  C           1     -22.103  -4.355  -7.302  0.00  0.00     0.010 A 
HETATM   25  C           1     -22.623  -3.809  -8.475  0.00  0.00     0.038 A 
HETATM   26  C           1     -21.872  -3.834  -9.650  0.00  0.00     0.081 A 
HETATM   27  C           1     -20.599  -4.405  -9.651  0.00  0.00     0.038 A 
HETATM   28  C           1     -20.079  -4.951  -8.479  0.00  0.00     0.010 A 
BRANCH  26  29
HETATM   29  O           1     -22.377  -3.303 -10.789  0.00  0.00    -0.247 OA
BRANCH  29  30
HETATM   30  P           1     -23.709  -3.972 -11.412  0.00  0.00     0.411 P 
HETATM   31  O           1     -23.854  -5.352 -10.897  0.00  0.00    -0.624 OA
HETATM   32  O           1     -24.891  -3.171 -11.023  0.00  0.00    -0.624 OA
BRANCH  30  33
HETATM   33  O           1     -23.590  -4.010 -13.023  0.00  0.00    -0.300 OA
HETATM   34  H           1     -22.849  -3.465 -13.225  0.00  0.00     0.223 HD
ENDBRANCH  30  33
ENDBRANCH  29  30
ENDBRANCH  26  29
ENDBRANCH  22  23
ENDBRANCH   1  22
TORSDOF 11
ENDMDL
MODEL 6
REMARK VINA RESULT:      -7.6      2.487      4.084
REMARK  11 active torsions:
REMARK  status: ('A' for Active; 'I' for Inactive)
REMARK    1  A    between atoms: N_2  and  C_11 
REMARK    2  A    between atoms: C_4  and  C_30 
REMARK    3  A    between atoms: N_9  and  C_30 
REMARK       I    between atoms: N_9  and  C_10 
REMARK    4  A    between atoms: C_10  and  C_11 
REMARK    5  A    between atoms: C_11  and  C_12 
REMARK    6  A    between atoms: C_12  and  C_13 
REMARK    7  A    between atoms: C_16  and  O_17 
REMARK    8  A    between atoms: O_17  and  P_18 
REMARK    9  A    between atoms: P_18  and  O_19 
REMARK   10  A    between atoms: C_30  and  C_31 
REMARK   11  A    between atoms: C_31  and  C_32 
ROOT
HETATM    1  C           1     -21.467  -6.605  -5.264  0.00  0.00     0.278 C 
ENDROOT
BRANCH   1   2
HETATM    2  N           1     -21.989  -5.972  -4.008  0.00  0.00    -0.066 N 
HETATM    3  H           1     -21.916  -4.933  -4.085  0.00  0.00     0.275 HD
HETATM    4  H           1     -22.989  -6.242  -3.873  0.00  0.00     0.275 HD
HETATM    5  H           1     -21.425  -6.302  -3.192  0.00  0.00     0.275 HD
ENDBRANCH   1   2
BRANCH   1   6
HETATM    6  C           1     -20.871  -7.952  -4.939  0.00  0.00     0.249 C 
HETATM    7  O           1     -20.799  -8.803  -5.793  0.00  0.00    -0.271 OA
HETATM    8  N           1     -20.410  -8.210  -3.675  0.00  0.00    -0.344 N 
HETATM    9  H           1     -20.470  -7.497  -2.959  0.00  0.00     0.163 HD
BRANCH   8  10
HETATM   10  C           1     -19.838  -9.505  -3.362  0.00  0.00     0.191 C 
BRANCH  10  11
HETATM   11  C           1     -20.649 -10.164  -2.273  0.00  0.00     0.197 C 
HETATM   12  O           1     -20.076 -10.643  -1.270  0.00  0.00    -0.646 OA
HETATM   13  O           1     -21.893 -10.231  -2.374  0.00  0.00    -0.646 OA
ENDBRANCH  10  11
BRANCH  10  14
HETATM   14  C           1     -18.403  -9.324  -2.886  0.00  0.00     0.094 C 
BRANCH  14  15
HETATM   15  C           1     -17.459  -9.728  -3.976  0.00  0.00     0.028 A 
HETATM   16  N           1     -17.770  -9.731  -5.312  0.00  0.00    -0.354 N 
HETATM   17  C           1     -16.681 -10.144  -5.919  0.00  0.00     0.180 A 
ATOM     18  HN          1     -18.657  -9.469  -5.743  1.00  0.00     0.166 HD
HETATM   19  N           1     -15.681 -10.408  -5.027  0.00  0.00    -0.360 N 
HETATM   20  H           1     -14.715 -10.751  -5.260  0.00  0.00     0.166 HD
HETATM   21  C           1     -16.166 -10.145  -3.776  0.00  0.00     0.114 A 
ENDBRANCH  14  15
ENDBRANCH  10  14
ENDBRANCH   8  10
ENDBRANCH   1   6
BRANCH   1  22
HETATM   22  C           1     -20.397  -5.711  -5.875  0.00  0.00     0.081 C 
BRANCH  22  23
HETATM   23  C           1     -20.928  -5.076  -7.123  0.00  0.00    -0.056 A 
HETATM   24  C           1     -20.142  -5.041  -8.275  0.00  0.00     0.010 A 
HETATM   25  C           1     -20.637  -4.449  -9.438  0.00  0.00     0.038 A 
HETATM   26  C           1     -21.916  -3.893  -9.448  0.00  0.00     0.081 A 
HETATM   27  C           1     -22.701  -3.929  -8.296  0.00  0.00     0.038 A 
HETATM   28  C           1     -22.207  -4.520  -7.133  0.00  0.00     0.010 A 
BRANCH  26  29
HETATM   29  O           1     -22.396  -3.319 -10.577  0.00  0.00    -0.247 OA
BRANCH  29  30
HETATM   30  P           1     -23.661  -4.014 -11.303  0.00  0.00     0.411 P 
HETATM   31  O           1     -23.818  -5.397 -10.800  0.00  0.00    -0.624 OA
HETATM   32  O           1     -24.886  -3.238 -11.009  0.00  0.00    -0.624 OA
BRANCH  30  33
HETATM   33  O           1     -23.415  -4.047 -12.899  0.00  0.00    -0.300 OA
HETATM   34  H           1     -24.153  -4.514 -13.250  0.00  0.00     0.223 HD
ENDBRANCH  30  33
ENDBRANCH  29  30
ENDBRANCH  26  29
ENDBRANCH  22  23
ENDBRANCH   1  22
TORSDOF 11
ENDMDL
MODEL 7
REMARK VINA RESULT:      -7.5      1.970      2.933
REMARK  11 active torsions:
REMARK  status: ('A' for Active; 'I' for Inactive)
REMARK    1  A    between atoms: N_2  and  C_11 
REMARK    2  A    between atoms: C_4  and  C_30 
REMARK    3  A    between atoms: N_9  and  C_30 
REMARK       I    between atoms: N_9  and  C_10 
REMARK    4  A    between atoms: C_10  and  C_11 
REMARK    5  A    between atoms: C_11  and  C_12 
REMARK    6  A    between atoms: C_12  and  C_13 
REMARK    7  A    between atoms: C_16  and  O_17 
REMARK    8  A    between atoms: O_17  and  P_18 
REMARK    9  A    between atoms: P_18  and  O_19 
REMARK   10  A    between atoms: C_30  and  C_31 
REMARK   11  A    between atoms: C_31  and  C_32 
ROOT
HETATM    1  C           1     -21.584  -6.516  -5.789  0.00  0.00     0.278 C 
ENDROOT
BRANCH   1   2
HETATM    2  N           1     -22.687  -6.102  -4.861  0.00  0.00    -0.066 N 
HETATM    3  H           1     -23.596  -6.481  -5.209  0.00  0.00     0.275 HD
HETATM    4  H           1     -22.496  -6.477  -3.905  0.00  0.00     0.275 HD
HETATM    5  H           1     -22.736  -5.058  -4.823  0.00  0.00     0.275 HD
ENDBRANCH   1   2
BRANCH   1   6
HETATM    6  C           1     -20.754  -7.594  -5.136  0.00  0.00     0.249 C 
HETATM    7  O           1     -19.795  -8.050  -5.711  0.00  0.00    -0.271 OA
HETATM    8  N           1     -21.088  -8.053  -3.889  0.00  0.00    -0.344 N 
HETATM    9  H           1     -21.891  -7.671  -3.407  0.00  0.00     0.163 HD
BRANCH   8  10
HETATM   10  C           1     -20.291  -9.088  -3.261  0.00  0.00     0.191 C 
BRANCH  10  11
HETATM   11  C           1     -21.047 -10.394  -3.293  0.00  0.00     0.197 C 
HETATM   12  O           1     -20.509 -11.439  -2.865  0.00  0.00    -0.646 OA
HETATM   13  O           1     -22.211 -10.433  -3.748  0.00  0.00    -0.646 OA
ENDBRANCH  10  11
BRANCH  10  14
HETATM   14  C           1     -20.006  -8.704  -1.816  0.00  0.00     0.094 C 
BRANCH  14  15
HETATM   15  C           1     -21.294  -8.608  -1.059  0.00  0.00     0.028 A 
HETATM   16  N           1     -22.038  -9.685  -0.651  0.00  0.00    -0.354 N 
HETATM   17  C           1     -23.076  -9.174  -0.030  0.00  0.00     0.180 A 
ATOM     18  HN          1     -21.830 -10.673  -0.799  1.00  0.00     0.166 HD
HETATM   19  N           1     -23.030  -7.809  -0.023  0.00  0.00    -0.360 N 
HETATM   20  H           1     -23.741  -7.166   0.409  0.00  0.00     0.166 HD
HETATM   21  C           1     -21.892  -7.432  -0.679  0.00  0.00     0.114 A 
ENDBRANCH  14  15
ENDBRANCH  10  14
ENDBRANCH   8  10
ENDBRANCH   1   6
BRANCH   1  22
HETATM   22  C           1     -20.702  -5.314  -6.098  0.00  0.00     0.081 C 
BRANCH  22  23
HETATM   23  C           1     -21.067  -4.757  -7.438  0.00  0.00    -0.056 A 
HETATM   24  C           1     -22.296  -4.120  -7.618  0.00  0.00     0.010 A 
HETATM   25  C           1     -22.636  -3.601  -8.867  0.00  0.00     0.038 A 
HETATM   26  C           1     -21.749  -3.720  -9.937  0.00  0.00     0.081 A 
HETATM   27  C           1     -20.521  -4.356  -9.757  0.00  0.00     0.038 A 
HETATM   28  C           1     -20.181  -4.875  -8.508  0.00  0.00     0.010 A 
BRANCH  26  29
HETATM   29  O           1     -22.079  -3.215 -11.150  0.00  0.00    -0.247 OA
BRANCH  29  30
HETATM   30  P           1     -23.422  -3.765 -11.860  0.00  0.00     0.411 P 
HETATM   31  O           1     -23.646  -5.174 -11.466  0.00  0.00    -0.624 OA
HETATM   32  O           1     -24.576  -2.943 -11.435  0.00  0.00    -0.624 OA
BRANCH  30  33
HETATM   33  O           1     -23.258  -3.677 -13.464  0.00  0.00    -0.300 OA
HETATM   34  H           1     -23.080  -2.769 -13.642  0.00  0.00     0.223 HD
ENDBRANCH  30  33
ENDBRANCH  29  30
ENDBRANCH  26  29
ENDBRANCH  22  23
ENDBRANCH   1  22
TORSDOF 11
ENDMDL
MODEL 8
REMARK VINA RESULT:      -7.3      2.528      3.670
REMARK  11 active torsions:
REMARK  status: ('A' for Active; 'I' for Inactive)
REMARK    1  A    between atoms: N_2  and  C_11 
REMARK    2  A    between atoms: C_4  and  C_30 
REMARK    3  A    between atoms: N_9  and  C_30 
REMARK       I    between atoms: N_9  and  C_10 
REMARK    4  A    between atoms: C_10  and  C_11 
REMARK    5  A    between atoms: C_11  and  C_12 
REMARK    6  A    between atoms: C_12  and  C_13 
REMARK    7  A    between atoms: C_16  and  O_17 
REMARK    8  A    between atoms: O_17  and  P_18 
REMARK    9  A    between atoms: P_18  and  O_19 
REMARK   10  A    between atoms: C_30  and  C_31 
REMARK   11  A    between atoms: C_31  and  C_32 
ROOT
HETATM    1  C           1     -21.324  -6.312  -5.602  0.00  0.00     0.278 C 
ENDROOT
BRANCH   1   2
HETATM    2  N           1     -21.900  -6.076  -4.237  0.00  0.00    -0.066 N 
HETATM    3  H           1     -21.248  -6.452  -3.513  0.00  0.00     0.275 HD
HETATM    4  H           1     -22.032  -5.050  -4.088  0.00  0.00     0.275 HD
HETATM    5  H           1     -22.823  -6.561  -4.160  0.00  0.00     0.275 HD
ENDBRANCH   1   2
BRANCH   1   6
HETATM    6  C           1     -20.442  -7.536  -5.570  0.00  0.00     0.249 C 
HETATM    7  O           1     -19.453  -7.585  -6.261  0.00  0.00    -0.271 OA
HETATM    8  N           1     -20.762  -8.590  -4.756  0.00  0.00    -0.344 N 
HETATM    9  H           1     -21.590  -8.549  -4.177  0.00  0.00     0.163 HD
BRANCH   8  10
HETATM   10  C           1     -19.914  -9.766  -4.726  0.00  0.00     0.191 C 
BRANCH  10  11
HETATM   11  C           1     -20.656 -10.937  -5.322  0.00  0.00     0.197 C 
HETATM   12  O           1     -21.161 -10.843  -6.462  0.00  0.00    -0.646 OA
HETATM   13  O           1     -20.767 -12.001  -4.675  0.00  0.00    -0.646 OA
ENDBRANCH  10  11
BRANCH  10  14
HETATM   14  C           1     -19.537 -10.083  -3.286  0.00  0.00     0.094 C 
BRANCH  14  15
HETATM   15  C           1     -18.047 -10.133  -3.157  0.00  0.00     0.028 A 
HETATM   16  N           1     -17.376 -10.670  -2.088  0.00  0.00    -0.354 N 
HETATM   17  C           1     -16.102 -10.514  -2.366  0.00  0.00     0.180 A 
ATOM     18  HN          1     -17.780 -11.099  -1.255  1.00  0.00     0.166 HD
HETATM   19  N           1     -15.925  -9.897  -3.571  0.00  0.00    -0.360 N 
HETATM   20  H           1     -15.004  -9.658  -4.018  0.00  0.00     0.166 HD
HETATM   21  C           1     -17.164  -9.646  -4.090  0.00  0.00     0.114 A 
ENDBRANCH  14  15
ENDBRANCH  10  14
ENDBRANCH   8  10
ENDBRANCH   1   6
BRANCH   1  22
HETATM   22  C           1     -20.501  -5.103  -6.021  0.00  0.00     0.081 C 
BRANCH  22  23
HETATM   23  C           1     -20.993  -4.595  -7.340  0.00  0.00    -0.056 A 
HETATM   24  C           1     -20.148  -4.606  -8.450  0.00  0.00     0.010 A 
HETATM   25  C           1     -20.606  -4.133  -9.680  0.00  0.00     0.038 A 
HETATM   26  C           1     -21.908  -3.648  -9.800  0.00  0.00     0.081 A 
HETATM   27  C           1     -22.753  -3.637  -8.690  0.00  0.00     0.038 A 
HETATM   28  C           1     -22.295  -4.110  -7.460  0.00  0.00     0.010 A 
BRANCH  26  29
HETATM   29  O           1     -22.353  -3.189 -10.994  0.00  0.00    -0.247 OA
BRANCH  29  30
HETATM   30  P           1     -23.710  -3.827 -11.594  0.00  0.00     0.411 P 
HETATM   31  O           1     -24.880  -3.120 -11.028  0.00  0.00    -0.624 OA
HETATM   32  O           1     -23.711  -3.686 -13.067  0.00  0.00    -0.624 OA
BRANCH  30  33
HETATM   33  O           1     -23.788  -5.392 -11.203  0.00  0.00    -0.300 OA
HETATM   34  H           1     -23.387  -5.845 -11.924  0.00  0.00     0.223 HD
ENDBRANCH  30  33
ENDBRANCH  29  30
ENDBRANCH  26  29
ENDBRANCH  22  23
ENDBRANCH   1  22
TORSDOF 11
ENDMDL
MODEL 9
REMARK VINA RESULT:      -7.3      2.034      2.894
REMARK  11 active torsions:
REMARK  status: ('A' for Active; 'I' for Inactive)
REMARK    1  A    between atoms: N_2  and  C_11 
REMARK    2  A    between atoms: C_4  and  C_30 
REMARK    3  A    between atoms: N_9  and  C_30 
REMARK       I    between atoms: N_9  and  C_10 
REMARK    4  A    between atoms: C_10  and  C_11 
REMARK    5  A    between atoms: C_11  and  C_12 
REMARK    6  A    between atoms: C_12  and  C_13 
REMARK    7  A    between atoms: C_16  and  O_17 
REMARK    8  A    between atoms: O_17  and  P_18 
REMARK    9  A    between atoms: P_18  and  O_19 
REMARK   10  A    between atoms: C_30  and  C_31 
REMARK   11  A    between atoms: C_31  and  C_32 
ROOT
HETATM    1  C           1     -20.269  -6.737  -5.851  0.00  0.00     0.278 C 
ENDROOT
BRANCH   1   2
HETATM    2  N           1     -21.456  -7.270  -6.598  0.00  0.00    -0.066 N 
HETATM    3  H           1     -22.328  -6.833  -6.224  0.00  0.00     0.275 HD
HETATM    4  H           1     -21.359  -7.041  -7.613  0.00  0.00     0.275 HD
HETATM    5  H           1     -21.506  -8.307  -6.477  0.00  0.00     0.275 HD
ENDBRANCH   1   2
BRANCH   1   6
HETATM    6  C           1     -20.302  -7.240  -4.429  0.00  0.00     0.249 C 
HETATM    7  O           1     -20.825  -6.576  -3.566  0.00  0.00    -0.271 OA
HETATM    8  N           1     -19.742  -8.450  -4.117  0.00  0.00    -0.344 N 
HETATM    9  H           1     -19.304  -9.006  -4.840  0.00  0.00     0.163 HD
BRANCH   8  10
HETATM   10  C           1     -19.774  -8.933  -2.751  0.00  0.00     0.191 C 
BRANCH  10  11
HETATM   11  C           1     -18.554  -9.782  -2.488  0.00  0.00     0.197 C 
HETATM   12  O           1     -17.424  -9.379  -2.841  0.00  0.00    -0.646 OA
HETATM   13  O           1     -18.673 -10.888  -1.917  0.00  0.00    -0.646 OA
ENDBRANCH  10  11
BRANCH  10  14
HETATM   14  C           1     -21.029  -9.768  -2.537  0.00  0.00     0.094 C 
BRANCH  14  15
HETATM   15  C           1     -21.842  -9.176  -1.429  0.00  0.00     0.028 A 
HETATM   16  N           1     -21.738  -7.880  -0.994  0.00  0.00    -0.354 N 
HETATM   17  C           1     -22.614  -7.769  -0.022  0.00  0.00     0.180 A 
ATOM     18  HN          1     -21.113  -7.156  -1.350  1.00  0.00     0.166 HD
HETATM   19  N           1     -23.279  -8.944   0.188  0.00  0.00    -0.360 N 
HETATM   20  H           1     -24.026  -9.115   0.907  0.00  0.00     0.166 HD
HETATM   21  C           1     -22.794  -9.856  -0.708  0.00  0.00     0.114 A 
ENDBRANCH  14  15
ENDBRANCH  10  14
ENDBRANCH   8  10
ENDBRANCH   1   6
BRANCH   1  22
HETATM   22  C           1     -20.310  -5.216  -5.853  0.00  0.00     0.081 C 
BRANCH  22  23
HETATM   23  C           1     -20.840  -4.731  -7.167  0.00  0.00    -0.056 A 
HETATM   24  C           1     -20.073  -4.873  -8.323  0.00  0.00     0.010 A 
HETATM   25  C           1     -20.568  -4.421  -9.547  0.00  0.00     0.038 A 
HETATM   26  C           1     -21.828  -3.827  -9.615  0.00  0.00     0.081 A 
HETATM   27  C           1     -22.594  -3.686  -8.458  0.00  0.00     0.038 A 
HETATM   28  C           1     -22.100  -4.137  -7.234  0.00  0.00     0.010 A 
BRANCH  26  29
HETATM   29  O           1     -22.308  -3.389 -10.803  0.00  0.00    -0.247 OA
BRANCH  29  30
HETATM   30  P           1     -23.711  -3.995 -11.324  0.00  0.00     0.411 P 
HETATM   31  O           1     -23.787  -3.864 -12.797  0.00  0.00    -0.624 OA
HETATM   32  O           1     -23.802  -5.423 -10.948  0.00  0.00    -0.624 OA
BRANCH  30  33
HETATM   33  O           1     -24.933  -3.181 -10.650  0.00  0.00    -0.300 OA
HETATM   34  H           1     -24.558  -2.760  -9.896  0.00  0.00     0.223 HD
ENDBRANCH  30  33
ENDBRANCH  29  30
ENDBRANCH  26  29
ENDBRANCH  22  23
ENDBRANCH   1  22
TORSDOF 11
ENDMDL
