MODEL 1
REMARK VINA RESULT:      -6.2      0.000      0.000
REMARK  8 active torsions:
REMARK  status: ('A' for Active; 'I' for Inactive)
REMARK    1  A    between atoms: O_3  and  P_4 
REMARK    2  A    between atoms: P_4  and  O_5 
REMARK    3  A    between atoms: O_5  and  C_6 
REMARK    4  A    between atoms: C_6  and  C_7 
REMARK    5  A    between atoms: C_7  and  C_8 
REMARK    6  A    between atoms: C_7  and  N_20 
REMARK       I    between atoms: C_8  and  N_9 
REMARK    7  A    between atoms: N_9  and  C_10 
REMARK    8  A    between atoms: C_10  and  C_12 
ROOT
HETATM    1  C           1     -23.193  -3.551  -9.239  0.00  0.00     0.298 C 
ENDROOT
BRANCH   1   2
HETATM    2  C           1     -22.140  -4.583  -9.615  0.00  0.00     0.224 C 
BRANCH   2   3
HETATM    3  O           1     -20.871  -4.114  -9.246  0.00  0.00    -0.287 OA
BRANCH   3   4
HETATM    4  P           1     -20.338  -4.580  -7.794  0.00  0.00     0.406 P 
HETATM    5  O           1     -21.032  -3.806  -6.741  0.00  0.00    -0.624 OA
HETATM    6  O           1     -18.880  -4.341  -7.704  0.00  0.00    -0.624 OA
BRANCH   4   7
HETATM    7  O           1     -20.637  -6.154  -7.591  0.00  0.00    -0.300 OA
HETATM    8  H           1     -19.789  -6.554  -7.500  0.00  0.00     0.223 HD
ENDBRANCH   4   7
ENDBRANCH   3   4
ENDBRANCH   2   3
ENDBRANCH   1   2
BRANCH   1   9
HETATM    9  C           1     -24.112  -3.317 -10.414  0.00  0.00     0.251 C 
HETATM   10  N           1     -23.589  -3.128 -11.665  0.00  0.00    -0.349 N 
HETATM   11  H           1     -22.586  -3.144 -11.803  0.00  0.00     0.163 HD
HETATM   12  O           1     -25.308  -3.298 -10.250  0.00  0.00    -0.271 OA
BRANCH  10  13
HETATM   13  C           1     -24.472  -2.904 -12.793  0.00  0.00     0.235 C 
BRANCH  13  14
HETATM   14  C           1     -23.673  -2.380 -13.962  0.00  0.00     0.191 C 
HETATM   15  O           1     -22.573  -2.899 -14.249  0.00  0.00    -0.647 OA
HETATM   16  O           1     -24.111  -1.427 -14.642  0.00  0.00    -0.647 OA
ENDBRANCH  13  14
ENDBRANCH  10  13
ENDBRANCH   1   9
BRANCH   1  17
HETATM   17  N           1     -23.992  -4.053  -8.073  0.00  0.00    -0.064 N 
HETATM   18  H           1     -23.895  -5.091  -8.007  0.00  0.00     0.275 HD
HETATM   19  H           1     -24.998  -3.803  -8.207  0.00  0.00     0.275 HD
HETATM   20  H           1     -23.638  -3.613  -7.193  0.00  0.00     0.275 HD
ENDBRANCH   1  17
TORSDOF 8
ENDMDL
MODEL 2
REMARK VINA RESULT:      -6.0      2.681      6.375
REMARK  8 active torsions:
REMARK  status: ('A' for Active; 'I' for Inactive)
REMARK    1  A    between atoms: O_3  and  P_4 
REMARK    2  A    between atoms: P_4  and  O_5 
REMARK    3  A    between atoms: O_5  and  C_6 
REMARK    4  A    between atoms: C_6  and  C_7 
REMARK    5  A    between atoms: C_7  and  C_8 
REMARK    6  A    between atoms: C_7  and  N_20 
REMARK       I    between atoms: C_8  and  N_9 
REMARK    7  A    between atoms: N_9  and  C_10 
REMARK    8  A    between atoms: C_10  and  C_12 
ROOT
HETATM    1  C           1     -22.648  -4.239 -10.952  0.00  0.00     0.298 C 
ENDROOT
BRANCH   1   2
HETATM    2  C           1     -22.976  -2.908 -11.613  0.00  0.00     0.224 C 
BRANCH   2   3
HETATM    3  O           1     -22.344  -2.839 -12.864  0.00  0.00    -0.287 OA
BRANCH   3   4
HETATM    4  P           1     -23.319  -2.861 -14.151  0.00  0.00     0.406 P 
HETATM    5  O           1     -22.510  -2.751 -15.385  0.00  0.00    -0.624 OA
HETATM    6  O           1     -24.261  -1.721 -14.075  0.00  0.00    -0.624 OA
BRANCH   4   7
HETATM    7  O           1     -24.150  -4.245 -14.175  0.00  0.00    -0.300 OA
HETATM    8  H           1     -25.026  -4.007 -13.921  0.00  0.00     0.223 HD
ENDBRANCH   4   7
ENDBRANCH   3   4
ENDBRANCH   2   3
ENDBRANCH   1   2
BRANCH   1   9
HETATM    9  C           1     -22.636  -4.067  -9.452  0.00  0.00     0.251 C 
HETATM   10  N           1     -21.476  -4.255  -8.750  0.00  0.00    -0.349 N 
HETATM   11  H           1     -20.626  -4.510  -9.236  0.00  0.00     0.163 HD
HETATM   12  O           1     -23.651  -3.763  -8.871  0.00  0.00    -0.271 OA
BRANCH  10  13
HETATM   13  C           1     -21.466  -4.090  -7.309  0.00  0.00     0.235 C 
BRANCH  13  14
HETATM   14  C           1     -21.602  -5.439  -6.647  0.00  0.00     0.191 C 
HETATM   15  O           1     -22.361  -5.578  -5.664  0.00  0.00    -0.647 OA
HETATM   16  O           1     -20.956  -6.417  -7.081  0.00  0.00    -0.647 OA
ENDBRANCH  13  14
ENDBRANCH  10  13
ENDBRANCH   1   9
BRANCH   1  17
HETATM   17  N           1     -23.686  -5.255 -11.329  0.00  0.00    -0.064 N 
HETATM   18  H           1     -23.465  -6.165 -10.867  0.00  0.00     0.275 HD
HETATM   19  H           1     -23.689  -5.380 -12.366  0.00  0.00     0.275 HD
HETATM   20  H           1     -24.627  -4.923 -11.016  0.00  0.00     0.275 HD
ENDBRANCH   1  17
TORSDOF 8
ENDMDL
MODEL 3
REMARK VINA RESULT:      -6.0      2.735      6.239
REMARK  8 active torsions:
REMARK  status: ('A' for Active; 'I' for Inactive)
REMARK    1  A    between atoms: O_3  and  P_4 
REMARK    2  A    between atoms: P_4  and  O_5 
REMARK    3  A    between atoms: O_5  and  C_6 
REMARK    4  A    between atoms: C_6  and  C_7 
REMARK    5  A    between atoms: C_7  and  C_8 
REMARK    6  A    between atoms: C_7  and  N_20 
REMARK       I    between atoms: C_8  and  N_9 
REMARK    7  A    between atoms: N_9  and  C_10 
REMARK    8  A    between atoms: C_10  and  C_12 
ROOT
HETATM    1  C           1     -23.556  -4.323  -9.093  0.00  0.00     0.298 C 
ENDROOT
BRANCH   1   2
HETATM    2  C           1     -22.660  -3.919 -10.255  0.00  0.00     0.224 C 
BRANCH   2   3
HETATM    3  O           1     -23.148  -4.487 -11.442  0.00  0.00    -0.287 OA
BRANCH   3   4
HETATM    4  P           1     -23.842  -3.465 -12.482  0.00  0.00     0.406 P 
HETATM    5  O           1     -22.953  -2.302 -12.699  0.00  0.00    -0.624 OA
HETATM    6  O           1     -25.135  -3.002 -11.928  0.00  0.00    -0.624 OA
BRANCH   4   7
HETATM    7  O           1     -24.098  -4.217 -13.887  0.00  0.00    -0.300 OA
HETATM    8  H           1     -24.707  -4.907 -13.687  0.00  0.00     0.223 HD
ENDBRANCH   4   7
ENDBRANCH   3   4
ENDBRANCH   2   3
ENDBRANCH   1   2
BRANCH   1   9
HETATM    9  C           1     -22.740  -4.385  -7.825  0.00  0.00     0.251 C 
HETATM   10  N           1     -21.377  -4.274  -7.882  0.00  0.00    -0.349 N 
HETATM   11  H           1     -20.916  -4.151  -8.775  0.00  0.00     0.163 HD
HETATM   12  O           1     -23.289  -4.532  -6.759  0.00  0.00    -0.271 OA
BRANCH  10  13
HETATM   13  C           1     -20.592  -4.334  -6.664  0.00  0.00     0.235 C 
BRANCH  13  14
HETATM   14  C           1     -20.250  -5.771  -6.355  0.00  0.00     0.191 C 
HETATM   15  O           1     -19.708  -6.485  -7.226  0.00  0.00    -0.647 OA
HETATM   16  O           1     -20.507  -6.247  -5.228  0.00  0.00    -0.647 OA
ENDBRANCH  13  14
ENDBRANCH  10  13
ENDBRANCH   1   9
BRANCH   1  17
HETATM   17  N           1     -24.653  -3.311  -8.931  0.00  0.00    -0.064 N 
HETATM   18  H           1     -25.536  -3.797  -8.656  0.00  0.00     0.275 HD
HETATM   19  H           1     -24.796  -2.807  -9.835  0.00  0.00     0.275 HD
HETATM   20  H           1     -24.386  -2.625  -8.188  0.00  0.00     0.275 HD
ENDBRANCH   1  17
TORSDOF 8
ENDMDL
MODEL 4
REMARK VINA RESULT:      -6.0      2.480      6.210
REMARK  8 active torsions:
REMARK  status: ('A' for Active; 'I' for Inactive)
REMARK    1  A    between atoms: O_3  and  P_4 
REMARK    2  A    between atoms: P_4  and  O_5 
REMARK    3  A    between atoms: O_5  and  C_6 
REMARK    4  A    between atoms: C_6  and  C_7 
REMARK    5  A    between atoms: C_7  and  C_8 
REMARK    6  A    between atoms: C_7  and  N_20 
REMARK       I    between atoms: C_8  and  N_9 
REMARK    7  A    between atoms: N_9  and  C_10 
REMARK    8  A    between atoms: C_10  and  C_12 
ROOT
HETATM    1  C           1     -24.104  -4.481  -9.872  0.00  0.00     0.298 C 
ENDROOT
BRANCH   1   2
HETATM    2  C           1     -23.871  -4.608 -11.370  0.00  0.00     0.224 C 
BRANCH   2   3
HETATM    3  O           1     -24.443  -3.509 -12.028  0.00  0.00    -0.287 OA
BRANCH   3   4
HETATM    4  P           1     -23.780  -3.107 -13.444  0.00  0.00     0.406 P 
HETATM    5  O           1     -22.312  -2.998 -13.289  0.00  0.00    -0.624 OA
HETATM    6  O           1     -24.328  -1.808 -13.894  0.00  0.00    -0.624 OA
BRANCH   4   7
HETATM    7  O           1     -24.121  -4.243 -14.541  0.00  0.00    -0.300 OA
HETATM    8  H           1     -23.287  -4.615 -14.774  0.00  0.00     0.223 HD
ENDBRANCH   4   7
ENDBRANCH   3   4
ENDBRANCH   2   3
ENDBRANCH   1   2
BRANCH   1   9
HETATM    9  C           1     -22.834  -4.017  -9.201  0.00  0.00     0.251 C 
HETATM   10  N           1     -22.738  -4.026  -7.836  0.00  0.00    -0.349 N 
HETATM   11  H           1     -23.519  -4.344  -7.275  0.00  0.00     0.163 HD
HETATM   12  O           1     -21.901  -3.638  -9.870  0.00  0.00    -0.271 OA
BRANCH  10  13
HETATM   13  C           1     -21.517  -3.580  -7.192  0.00  0.00     0.235 C 
BRANCH  13  14
HETATM   14  C           1     -20.854  -4.750  -6.505  0.00  0.00     0.191 C 
HETATM   15  O           1     -20.241  -4.577  -5.430  0.00  0.00    -0.647 OA
HETATM   16  O           1     -20.918  -5.891  -7.012  0.00  0.00    -0.647 OA
ENDBRANCH  13  14
ENDBRANCH  10  13
ENDBRANCH   1   9
BRANCH   1  17
HETATM   17  N           1     -25.195  -3.483  -9.618  0.00  0.00    -0.064 N 
HETATM   18  H           1     -25.173  -3.192  -8.615  0.00  0.00     0.275 HD
HETATM   19  H           1     -26.120  -3.916  -9.837  0.00  0.00     0.275 HD
HETATM   20  H           1     -25.050  -2.646 -10.227  0.00  0.00     0.275 HD
ENDBRANCH   1  17
TORSDOF 8
ENDMDL
MODEL 5
REMARK VINA RESULT:      -5.8      1.909      2.440
REMARK  8 active torsions:
REMARK  status: ('A' for Active; 'I' for Inactive)
REMARK    1  A    between atoms: O_3  and  P_4 
REMARK    2  A    between atoms: P_4  and  O_5 
REMARK    3  A    between atoms: O_5  and  C_6 
REMARK    4  A    between atoms: C_6  and  C_7 
REMARK    5  A    between atoms: C_7  and  C_8 
REMARK    6  A    between atoms: C_7  and  N_20 
REMARK       I    between atoms: C_8  and  N_9 
REMARK    7  A    between atoms: N_9  and  C_10 
REMARK    8  A    between atoms: C_10  and  C_12 
ROOT
HETATM    1  C           1     -21.253  -4.453 -10.860  0.00  0.00     0.298 C 
ENDROOT
BRANCH   1   2
HETATM    2  C           1     -21.455  -4.045  -9.408  0.00  0.00     0.224 C 
BRANCH   2   3
HETATM    3  O           1     -20.529  -4.720  -8.599  0.00  0.00    -0.287 OA
BRANCH   3   4
HETATM    4  P           1     -21.061  -5.174  -7.143  0.00  0.00     0.406 P 
HETATM    5  O           1     -20.989  -6.648  -7.030  0.00  0.00    -0.624 OA
HETATM    6  O           1     -22.463  -4.733  -6.972  0.00  0.00    -0.624 OA
BRANCH   4   7
HETATM    7  O           1     -20.141  -4.501  -5.999  0.00  0.00    -0.300 OA
HETATM    8  H           1     -20.724  -4.356  -5.273  0.00  0.00     0.223 HD
ENDBRANCH   4   7
ENDBRANCH   3   4
ENDBRANCH   2   3
ENDBRANCH   1   2
BRANCH   1   9
HETATM    9  C           1     -22.512  -4.171 -11.643  0.00  0.00     0.251 C 
HETATM   10  N           1     -22.447  -3.466 -12.814  0.00  0.00    -0.349 N 
HETATM   11  H           1     -21.554  -3.133 -13.156  0.00  0.00     0.163 HD
HETATM   12  O           1     -23.579  -4.567 -11.236  0.00  0.00    -0.271 OA
BRANCH  10  13
HETATM   13  C           1     -23.657  -3.194 -13.566  0.00  0.00     0.235 C 
BRANCH  13  14
HETATM   14  C           1     -23.339  -2.268 -14.715  0.00  0.00     0.191 C 
HETATM   15  O           1     -24.024  -1.239 -14.895  0.00  0.00    -0.647 OA
HETATM   16  O           1     -22.391  -2.531 -15.486  0.00  0.00    -0.647 OA
ENDBRANCH  13  14
ENDBRANCH  10  13
ENDBRANCH   1   9
BRANCH   1  17
HETATM   17  N           1     -20.115  -3.671 -11.447  0.00  0.00    -0.064 N 
HETATM   18  H           1     -19.217  -4.173 -11.264  0.00  0.00     0.275 HD
HETATM   19  H           1     -20.082  -2.723 -11.010  0.00  0.00     0.275 HD
HETATM   20  H           1     -20.255  -3.573 -12.479  0.00  0.00     0.275 HD
ENDBRANCH   1  17
TORSDOF 8
ENDMDL
MODEL 6
REMARK VINA RESULT:      -5.8      1.701      2.214
REMARK  8 active torsions:
REMARK  status: ('A' for Active; 'I' for Inactive)
REMARK    1  A    between atoms: O_3  and  P_4 
REMARK    2  A    between atoms: P_4  and  O_5 
REMARK    3  A    between atoms: O_5  and  C_6 
REMARK    4  A    between atoms: C_6  and  C_7 
REMARK    5  A    between atoms: C_7  and  C_8 
REMARK    6  A    between atoms: C_7  and  N_20 
REMARK       I    between atoms: C_8  and  N_9 
REMARK    7  A    between atoms: N_9  and  C_10 
REMARK    8  A    between atoms: C_10  and  C_12 
ROOT
HETATM    1  C           1     -22.721  -3.628  -9.041  0.00  0.00     0.298 C 
ENDROOT
BRANCH   1   2
HETATM    2  C           1     -22.107  -4.797  -8.283  0.00  0.00     0.224 C 
BRANCH   2   3
HETATM    3  O           1     -22.224  -4.574  -6.903  0.00  0.00    -0.287 OA
BRANCH   3   4
HETATM    4  P           1     -21.481  -5.642  -5.948  0.00  0.00     0.406 P 
HETATM    5  O           1     -20.319  -4.997  -5.296  0.00  0.00    -0.624 OA
HETATM    6  O           1     -21.018  -6.790  -6.760  0.00  0.00    -0.624 OA
BRANCH   4   7
HETATM    7  O           1     -22.510  -6.163  -4.818  0.00  0.00    -0.300 OA
HETATM    8  H           1     -23.053  -5.418  -4.621  0.00  0.00     0.223 HD
ENDBRANCH   4   7
ENDBRANCH   3   4
ENDBRANCH   2   3
ENDBRANCH   1   2
BRANCH   1   9
HETATM    9  C           1     -22.368  -3.735 -10.504  0.00  0.00     0.251 C 
HETATM   10  N           1     -22.850  -2.814 -11.394  0.00  0.00    -0.349 N 
HETATM   11  H           1     -23.443  -2.060 -11.071  0.00  0.00     0.163 HD
HETATM   12  O           1     -21.659  -4.634 -10.890  0.00  0.00    -0.271 OA
BRANCH  10  13
HETATM   13  C           1     -22.510  -2.917 -12.800  0.00  0.00     0.235 C 
BRANCH  13  14
HETATM   14  C           1     -23.769  -2.843 -13.629  0.00  0.00     0.191 C 
HETATM   15  O           1     -23.694  -2.727 -14.871  0.00  0.00    -0.647 OA
HETATM   16  O           1     -24.888  -2.898 -13.073  0.00  0.00    -0.647 OA
ENDBRANCH  13  14
ENDBRANCH  10  13
ENDBRANCH   1   9
BRANCH   1  17
HETATM   17  N           1     -24.213  -3.659  -8.884  0.00  0.00    -0.064 N 
HETATM   18  H           1     -24.457  -4.087  -7.963  0.00  0.00     0.275 HD
HETATM   19  H           1     -24.632  -4.224  -9.656  0.00  0.00     0.275 HD
HETATM   20  H           1     -24.587  -2.683  -8.925  0.00  0.00     0.275 HD
ENDBRANCH   1  17
TORSDOF 8
ENDMDL
MODEL 7
REMARK VINA RESULT:      -5.5      2.353      2.854
REMARK  8 active torsions:
REMARK  status: ('A' for Active; 'I' for Inactive)
REMARK    1  A    between atoms: O_3  and  P_4 
REMARK    2  A    between atoms: P_4  and  O_5 
REMARK    3  A    between atoms: O_5  and  C_6 
REMARK    4  A    between atoms: C_6  and  C_7 
REMARK    5  A    between atoms: C_7  and  C_8 
REMARK    6  A    between atoms: C_7  and  N_20 
REMARK       I    between atoms: C_8  and  N_9 
REMARK    7  A    between atoms: N_9  and  C_10 
REMARK    8  A    between atoms: C_10  and  C_12 
ROOT
HETATM    1  C           1     -21.329  -4.606  -8.443  0.00  0.00     0.298 C 
ENDROOT
BRANCH   1   2
HETATM    2  C           1     -21.090  -4.078  -7.035  0.00  0.00     0.224 C 
BRANCH   2   3
HETATM    3  O           1     -20.417  -5.048  -6.279  0.00  0.00    -0.287 OA
BRANCH   3   4
HETATM    4  P           1     -21.348  -6.139  -5.536  0.00  0.00     0.406 P 
HETATM    5  O           1     -20.943  -6.248  -4.117  0.00  0.00    -0.624 OA
HETATM    6  O           1     -21.191  -7.453  -6.198  0.00  0.00    -0.624 OA
BRANCH   4   7
HETATM    7  O           1     -22.893  -5.675  -5.620  0.00  0.00    -0.300 OA
HETATM    8  H           1     -23.032  -5.457  -6.526  0.00  0.00     0.223 HD
ENDBRANCH   4   7
ENDBRANCH   3   4
ENDBRANCH   2   3
ENDBRANCH   1   2
BRANCH   1   9
HETATM    9  C           1     -22.707  -4.201  -8.907  0.00  0.00     0.251 C 
HETATM   10  N           1     -22.910  -3.837 -10.210  0.00  0.00    -0.349 N 
HETATM   11  H           1     -22.138  -3.839 -10.864  0.00  0.00     0.163 HD
HETATM   12  O           1     -23.630  -4.198  -8.127  0.00  0.00    -0.271 OA
BRANCH  10  13
HETATM   13  C           1     -24.235  -3.447 -10.656  0.00  0.00     0.235 C 
BRANCH  13  14
HETATM   14  C           1     -24.168  -2.991 -12.093  0.00  0.00     0.191 C 
HETATM   15  O           1     -23.108  -2.509 -12.547  0.00  0.00    -0.647 OA
HETATM   16  O           1     -25.173  -3.094 -12.829  0.00  0.00    -0.647 OA
ENDBRANCH  13  14
ENDBRANCH  10  13
ENDBRANCH   1   9
BRANCH   1  17
HETATM   17  N           1     -20.300  -4.033  -9.373  0.00  0.00    -0.064 N 
HETATM   18  H           1     -20.759  -3.758 -10.271  0.00  0.00     0.275 HD
HETATM   19  H           1     -19.563  -4.749  -9.561  0.00  0.00     0.275 HD
HETATM   20  H           1     -19.864  -3.191  -8.933  0.00  0.00     0.275 HD
ENDBRANCH   1  17
TORSDOF 8
ENDMDL
MODEL 8
REMARK VINA RESULT:      -5.5      2.871      6.460
REMARK  8 active torsions:
REMARK  status: ('A' for Active; 'I' for Inactive)
REMARK    1  A    between atoms: O_3  and  P_4 
REMARK    2  A    between atoms: P_4  and  O_5 
REMARK    3  A    between atoms: O_5  and  C_6 
REMARK    4  A    between atoms: C_6  and  C_7 
REMARK    5  A    between atoms: C_7  and  C_8 
REMARK    6  A    between atoms: C_7  and  N_20 
REMARK       I    between atoms: C_8  and  N_9 
REMARK    7  A    between atoms: N_9  and  C_10 
REMARK    8  A    between atoms: C_10  and  C_12 
ROOT
HETATM    1  C           1     -21.485  -3.527 -10.667  0.00  0.00     0.298 C 
ENDROOT
BRANCH   1   2
HETATM    2  C           1     -22.285  -4.553 -11.458  0.00  0.00     0.224 C 
BRANCH   2   3
HETATM    3  O           1     -23.633  -4.167 -11.497  0.00  0.00    -0.287 OA
BRANCH   3   4
HETATM    4  P           1     -24.100  -3.356 -12.812  0.00  0.00     0.406 P 
HETATM    5  O           1     -23.153  -2.247 -13.070  0.00  0.00    -0.624 OA
HETATM    6  O           1     -25.457  -2.806 -12.596  0.00  0.00    -0.624 OA
BRANCH   4   7
HETATM    7  O           1     -24.119  -4.352 -14.082  0.00  0.00    -0.300 OA
HETATM    8  H           1     -24.968  -4.231 -14.474  0.00  0.00     0.223 HD
ENDBRANCH   4   7
ENDBRANCH   3   4
ENDBRANCH   2   3
ENDBRANCH   1   2
BRANCH   1   9
HETATM    9  C           1     -20.780  -4.211  -9.522  0.00  0.00     0.251 C 
HETATM   10  N           1     -21.167  -3.961  -8.233  0.00  0.00    -0.349 N 
HETATM   11  H           1     -21.925  -3.318  -8.047  0.00  0.00     0.163 HD
HETATM   12  O           1     -19.875  -4.980  -9.743  0.00  0.00    -0.271 OA
BRANCH  10  13
HETATM   13  C           1     -20.489  -4.619  -7.132  0.00  0.00     0.235 C 
BRANCH  13  14
HETATM   14  C           1     -21.511  -5.152  -6.158  0.00  0.00     0.191 C 
HETATM   15  O           1     -21.137  -5.730  -5.115  0.00  0.00    -0.647 OA
HETATM   16  O           1     -22.731  -5.016  -6.394  0.00  0.00    -0.647 OA
ENDBRANCH  13  14
ENDBRANCH  10  13
ENDBRANCH   1   9
BRANCH   1  17
HETATM   17  N           1     -20.469  -2.884 -11.566  0.00  0.00    -0.064 N 
HETATM   18  H           1     -20.912  -2.087 -12.076  0.00  0.00     0.275 HD
HETATM   19  H           1     -20.117  -3.588 -12.252  0.00  0.00     0.275 HD
HETATM   20  H           1     -19.672  -2.529 -10.991  0.00  0.00     0.275 HD
ENDBRANCH   1  17
TORSDOF 8
ENDMDL
MODEL 9
REMARK VINA RESULT:      -5.1      3.380      6.906
REMARK  8 active torsions:
REMARK  status: ('A' for Active; 'I' for Inactive)
REMARK    1  A    between atoms: O_3  and  P_4 
REMARK    2  A    between atoms: P_4  and  O_5 
REMARK    3  A    between atoms: O_5  and  C_6 
REMARK    4  A    between atoms: C_6  and  C_7 
REMARK    5  A    between atoms: C_7  and  C_8 
REMARK    6  A    between atoms: C_7  and  N_20 
REMARK       I    between atoms: C_8  and  N_9 
REMARK    7  A    between atoms: N_9  and  C_10 
REMARK    8  A    between atoms: C_10  and  C_12 
ROOT
HETATM    1  C           1     -21.167  -4.046  -8.389  0.00  0.00     0.298 C 
ENDROOT
BRANCH   1   2
HETATM    2  C           1     -22.434  -4.283  -9.198  0.00  0.00     0.224 C 
BRANCH   2   3
HETATM    3  O           1     -22.554  -3.289 -10.181  0.00  0.00    -0.287 OA
BRANCH   3   4
HETATM    4  P           1     -23.705  -3.524 -11.289  0.00  0.00     0.406 P 
HETATM    5  O           1     -23.540  -2.547 -12.388  0.00  0.00    -0.624 OA
HETATM    6  O           1     -25.035  -3.344 -10.663  0.00  0.00    -0.624 OA
BRANCH   4   7
HETATM    7  O           1     -23.588  -5.023 -11.878  0.00  0.00    -0.300 OA
HETATM    8  H           1     -24.360  -5.137 -12.407  0.00  0.00     0.223 HD
ENDBRANCH   4   7
ENDBRANCH   3   4
ENDBRANCH   2   3
ENDBRANCH   1   2
BRANCH   1   9
HETATM    9  C           1     -20.998  -5.157  -7.381  0.00  0.00     0.251 C 
HETATM   10  N           1     -20.924  -4.864  -6.046  0.00  0.00    -0.349 N 
HETATM   11  H           1     -20.981  -3.903  -5.734  0.00  0.00     0.163 HD
HETATM   12  O           1     -20.929  -6.305  -7.752  0.00  0.00    -0.271 OA
BRANCH  10  13
HETATM   13  C           1     -20.762  -5.931  -5.077  0.00  0.00     0.235 C 
BRANCH  13  14
HETATM   14  C           1     -22.064  -6.149  -4.346  0.00  0.00     0.191 C 
HETATM   15  O           1     -23.118  -6.338  -4.990  0.00  0.00    -0.647 OA
HETATM   16  O           1     -22.089  -6.141  -3.096  0.00  0.00    -0.647 OA
ENDBRANCH  13  14
ENDBRANCH  10  13
ENDBRANCH   1   9
BRANCH   1  17
HETATM   17  N           1     -19.982  -4.025  -9.310  0.00  0.00    -0.064 N 
HETATM   18  H           1     -19.397  -3.184  -9.103  0.00  0.00     0.275 HD
HETATM   19  H           1     -20.311  -3.987 -10.300  0.00  0.00     0.275 HD
HETATM   20  H           1     -19.413  -4.890  -9.165  0.00  0.00     0.275 HD
ENDBRANCH   1  17
TORSDOF 8
ENDMDL
