MODEL 1
REMARK VINA RESULT:      -6.3      0.000      0.000
REMARK  6 active torsions:
REMARK  status: ('A' for Active; 'I' for Inactive)
REMARK    1  A    between atoms: C_3  and  C_14 
REMARK    2  A    between atoms: C_4  and  C_13 
REMARK    3  A    between atoms: N_7  and  C_13 
REMARK       I    between atoms: N_7  and  C_8 
REMARK    4  A    between atoms: C_8  and  C_9 
REMARK    5  A    between atoms: C_9  and  N_11 
REMARK    6  A    between atoms: C_13  and  C_14 
ROOT
HETATM    1  O           1     -36.318  -1.298 -13.688  0.00  0.00    -0.271 OA
HETATM    2  N           1     -34.814  -0.667 -12.164  0.00  0.00    -0.345 N 
HETATM    3  C           1     -35.428  -0.543 -13.381  0.00  0.00     0.248 C 
HETATM    4  H           1     -34.068  -0.034 -11.906  0.00  0.00     0.163 HD
ENDROOT
BRANCH   2   5
HETATM    5  C           1     -35.233  -1.705 -11.243  0.00  0.00     0.185 C 
BRANCH   5   6
HETATM    6  C           1     -36.300  -1.161 -10.325  0.00  0.00     0.196 C 
HETATM    7  O           1     -37.508  -1.333 -10.598  0.00  0.00    -0.646 OA
HETATM    8  O           1     -35.977  -0.538  -9.291  0.00  0.00    -0.646 OA
ENDBRANCH   5   6
BRANCH   5   9
HETATM    9  C           1     -34.039  -2.165 -10.418  0.00  0.00     0.040 C 
BRANCH   9  10
HETATM   10  C           1     -33.813  -3.655 -10.635  0.00  0.00    -0.020 C 
HETATM   11  C           1     -35.131  -4.317 -11.016  0.00  0.00     0.009 C 
HETATM   12  C           1     -32.800  -3.855 -11.755  0.00  0.00     0.009 C 
ENDBRANCH   9  10
ENDBRANCH   5   9
ENDBRANCH   2   5
BRANCH   3  13
HETATM   13  C           1     -34.991   0.538 -14.339  0.00  0.00     0.270 C 
HETATM   14  C           1     -34.363   1.686 -13.558  0.00  0.00     0.050 C 
BRANCH  13  15
HETATM   15  N           1     -36.181   1.044 -15.099  0.00  0.00    -0.067 N 
HETATM   16  H           1     -36.319   2.060 -14.897  0.00  0.00     0.275 HD
HETATM   17  H           1     -36.021   0.912 -16.124  0.00  0.00     0.275 HD
HETATM   18  H           1     -37.032   0.513 -14.808  0.00  0.00     0.275 HD
ENDBRANCH  13  15
ENDBRANCH   3  13
TORSDOF 6
ENDMDL
MODEL 2
REMARK VINA RESULT:      -5.9     12.217     14.239
REMARK  6 active torsions:
REMARK  status: ('A' for Active; 'I' for Inactive)
REMARK    1  A    between atoms: C_3  and  C_14 
REMARK    2  A    between atoms: C_4  and  C_13 
REMARK    3  A    between atoms: N_7  and  C_13 
REMARK       I    between atoms: N_7  and  C_8 
REMARK    4  A    between atoms: C_8  and  C_9 
REMARK    5  A    between atoms: C_9  and  N_11 
REMARK    6  A    between atoms: C_13  and  C_14 
ROOT
HETATM    1  O           1     -21.640  -3.209  -7.485  0.00  0.00    -0.271 OA
HETATM    2  N           1     -22.391  -4.944  -8.673  0.00  0.00    -0.345 N 
HETATM    3  C           1     -21.797  -4.404  -7.564  0.00  0.00     0.248 C 
HETATM    4  H           1     -22.523  -5.945  -8.740  0.00  0.00     0.163 HD
ENDROOT
BRANCH   2   5
HETATM    5  C           1     -22.834  -4.082  -9.751  0.00  0.00     0.185 C 
BRANCH   5   6
HETATM    6  C           1     -24.327  -3.884  -9.655  0.00  0.00     0.196 C 
HETATM    7  O           1     -24.797  -2.737  -9.496  0.00  0.00    -0.646 OA
HETATM    8  O           1     -25.094  -4.867  -9.736  0.00  0.00    -0.646 OA
ENDBRANCH   5   6
BRANCH   5   9
HETATM    9  C           1     -22.491  -4.725 -11.088  0.00  0.00     0.040 C 
BRANCH   9  10
HETATM   10  C           1     -21.682  -3.747 -11.930  0.00  0.00    -0.020 C 
HETATM   11  C           1     -22.587  -2.618 -12.405  0.00  0.00     0.009 C 
HETATM   12  C           1     -20.549  -3.172 -11.090  0.00  0.00     0.009 C 
ENDBRANCH   9  10
ENDBRANCH   5   9
ENDBRANCH   2   5
BRANCH   3  13
HETATM   13  C           1     -21.337  -5.302  -6.442  0.00  0.00     0.270 C 
HETATM   14  C           1     -20.196  -4.629  -5.689  0.00  0.00     0.050 C 
BRANCH  13  15
HETATM   15  N           1     -20.860  -6.605  -7.009  0.00  0.00    -0.067 N 
HETATM   16  H           1     -21.681  -7.214  -7.225  0.00  0.00     0.275 HD
HETATM   17  H           1     -20.321  -6.426  -7.887  0.00  0.00     0.275 HD
HETATM   18  H           1     -20.244  -7.084  -6.313  0.00  0.00     0.275 HD
ENDBRANCH  13  15
ENDBRANCH   3  13
TORSDOF 6
ENDMDL
MODEL 3
REMARK VINA RESULT:      -5.5      1.728      2.291
REMARK  6 active torsions:
REMARK  status: ('A' for Active; 'I' for Inactive)
REMARK    1  A    between atoms: C_3  and  C_14 
REMARK    2  A    between atoms: C_4  and  C_13 
REMARK    3  A    between atoms: N_7  and  C_13 
REMARK       I    between atoms: N_7  and  C_8 
REMARK    4  A    between atoms: C_8  and  C_9 
REMARK    5  A    between atoms: C_9  and  N_11 
REMARK    6  A    between atoms: C_13  and  C_14 
ROOT
HETATM    1  O           1     -35.351  -1.642 -14.842  0.00  0.00    -0.271 OA
HETATM    2  N           1     -36.437  -0.267 -13.458  0.00  0.00    -0.345 N 
HETATM    3  C           1     -36.030  -0.652 -14.707  0.00  0.00     0.248 C 
HETATM    4  H           1     -37.005   0.562 -13.344  0.00  0.00     0.163 HD
ENDROOT
BRANCH   2   5
HETATM    5  C           1     -36.055  -1.048 -12.297  0.00  0.00     0.185 C 
BRANCH   5   6
HETATM    6  C           1     -36.834  -0.573 -11.095  0.00  0.00     0.196 C 
HETATM    7  O           1     -36.310   0.221 -10.284  0.00  0.00    -0.646 OA
HETATM    8  O           1     -38.003  -0.973 -10.910  0.00  0.00    -0.646 OA
ENDBRANCH   5   6
BRANCH   5   9
HETATM    9  C           1     -34.564  -0.877 -12.038  0.00  0.00     0.040 C 
BRANCH   9  10
HETATM   10  C           1     -33.960  -2.216 -11.638  0.00  0.00    -0.020 C 
HETATM   11  C           1     -33.662  -2.213 -10.145  0.00  0.00     0.009 C 
HETATM   12  C           1     -34.947  -3.333 -11.958  0.00  0.00     0.009 C 
ENDBRANCH   9  10
ENDBRANCH   5   9
ENDBRANCH   2   5
BRANCH   3  13
HETATM   13  C           1     -36.428   0.161 -15.914  0.00  0.00     0.270 C 
HETATM   14  C           1     -37.878   0.606 -15.771  0.00  0.00     0.050 C 
BRANCH  13  15
HETATM   15  N           1     -36.282  -0.675 -17.150  0.00  0.00    -0.067 N 
HETATM   16  H           1     -35.366  -1.176 -17.127  0.00  0.00     0.275 HD
HETATM   17  H           1     -37.059  -1.374 -17.190  0.00  0.00     0.275 HD
HETATM   18  H           1     -36.321  -0.060 -17.994  0.00  0.00     0.275 HD
ENDBRANCH  13  15
ENDBRANCH   3  13
TORSDOF 6
ENDMDL
MODEL 4
REMARK VINA RESULT:      -5.2      2.428      4.676
REMARK  6 active torsions:
REMARK  status: ('A' for Active; 'I' for Inactive)
REMARK    1  A    between atoms: C_3  and  C_14 
REMARK    2  A    between atoms: C_4  and  C_13 
REMARK    3  A    between atoms: N_7  and  C_13 
REMARK       I    between atoms: N_7  and  C_8 
REMARK    4  A    between atoms: C_8  and  C_9 
REMARK    5  A    between atoms: C_9  and  N_11 
REMARK    6  A    between atoms: C_13  and  C_14 
ROOT
HETATM    1  O           1     -34.676  -3.376 -13.303  0.00  0.00    -0.271 OA
HETATM    2  N           1     -34.698  -1.471 -12.139  0.00  0.00    -0.345 N 
HETATM    3  C           1     -34.248  -2.743 -12.368  0.00  0.00     0.248 C 
HETATM    4  H           1     -34.340  -0.941 -11.355  0.00  0.00     0.163 HD
ENDROOT
BRANCH   2   5
HETATM    5  C           1     -35.688  -0.882 -13.019  0.00  0.00     0.185 C 
BRANCH   5   6
HETATM    6  C           1     -35.022   0.138 -13.910  0.00  0.00     0.196 C 
HETATM    7  O           1     -34.695   1.253 -13.449  0.00  0.00    -0.646 OA
HETATM    8  O           1     -34.797  -0.131 -15.109  0.00  0.00    -0.646 OA
ENDBRANCH   5   6
BRANCH   5   9
HETATM    9  C           1     -36.768  -0.203 -12.188  0.00  0.00     0.040 C 
BRANCH   9  10
HETATM   10  C           1     -36.423  -0.323 -10.710  0.00  0.00    -0.020 C 
HETATM   11  C           1     -36.970   0.886  -9.962  0.00  0.00     0.009 C 
HETATM   12  C           1     -37.043  -1.595 -10.146  0.00  0.00     0.009 C 
ENDBRANCH   9  10
ENDBRANCH   5   9
ENDBRANCH   2   5
BRANCH   3  13
HETATM   13  C           1     -33.218  -3.356 -11.450  0.00  0.00     0.270 C 
HETATM   14  C           1     -32.405  -4.390 -12.219  0.00  0.00     0.050 C 
BRANCH  13  15
HETATM   15  N           1     -33.909  -4.021 -10.298  0.00  0.00    -0.067 N 
HETATM   16  H           1     -33.527  -3.648  -9.399  0.00  0.00     0.275 HD
HETATM   17  H           1     -34.935  -3.825 -10.346  0.00  0.00     0.275 HD
HETATM   18  H           1     -33.748  -5.053 -10.342  0.00  0.00     0.275 HD
ENDBRANCH  13  15
ENDBRANCH   3  13
TORSDOF 6
ENDMDL
MODEL 5
REMARK VINA RESULT:      -5.2      1.875      4.375
REMARK  6 active torsions:
REMARK  status: ('A' for Active; 'I' for Inactive)
REMARK    1  A    between atoms: C_3  and  C_14 
REMARK    2  A    between atoms: C_4  and  C_13 
REMARK    3  A    between atoms: N_7  and  C_13 
REMARK       I    between atoms: N_7  and  C_8 
REMARK    4  A    between atoms: C_8  and  C_9 
REMARK    5  A    between atoms: C_9  and  N_11 
REMARK    6  A    between atoms: C_13  and  C_14 
ROOT
HETATM    1  O           1     -34.473  -2.534 -13.546  0.00  0.00    -0.271 OA
HETATM    2  N           1     -35.378  -2.086 -11.555  0.00  0.00    -0.345 N 
HETATM    3  C           1     -34.722  -2.912 -12.427  0.00  0.00     0.248 C 
HETATM    4  H           1     -35.587  -2.402 -10.617  0.00  0.00     0.163 HD
ENDROOT
BRANCH   2   5
HETATM    5  C           1     -35.773  -0.755 -11.976  0.00  0.00     0.185 C 
BRANCH   5   6
HETATM    6  C           1     -36.839  -0.231 -11.044  0.00  0.00     0.196 C 
HETATM    7  O           1     -37.992  -0.711 -11.080  0.00  0.00    -0.646 OA
HETATM    8  O           1     -36.567   0.683 -10.236  0.00  0.00    -0.646 OA
ENDBRANCH   5   6
BRANCH   5   9
HETATM    9  C           1     -36.322  -0.813 -13.395  0.00  0.00     0.040 C 
BRANCH   9  10
HETATM   10  C           1     -36.023   0.498 -14.109  0.00  0.00    -0.020 C 
HETATM   11  C           1     -34.637   0.988 -13.711  0.00  0.00     0.009 C 
HETATM   12  C           1     -36.071   0.276 -15.616  0.00  0.00     0.009 C 
ENDBRANCH   9  10
ENDBRANCH   5   9
ENDBRANCH   2   5
BRANCH   3  13
HETATM   13  C           1     -34.311  -4.297 -11.988  0.00  0.00     0.270 C 
HETATM   14  C           1     -32.797  -4.349 -11.825  0.00  0.00     0.050 C 
BRANCH  13  15
HETATM   15  N           1     -34.736  -5.295 -13.023  0.00  0.00    -0.067 N 
HETATM   16  H           1     -35.589  -4.946 -13.516  0.00  0.00     0.275 HD
HETATM   17  H           1     -33.964  -5.428 -13.716  0.00  0.00     0.275 HD
HETATM   18  H           1     -34.951  -6.208 -12.561  0.00  0.00     0.275 HD
ENDBRANCH  13  15
ENDBRANCH   3  13
TORSDOF 6
ENDMDL
MODEL 6
REMARK VINA RESULT:      -5.2     15.366     17.074
REMARK  6 active torsions:
REMARK  status: ('A' for Active; 'I' for Inactive)
REMARK    1  A    between atoms: C_3  and  C_14 
REMARK    2  A    between atoms: C_4  and  C_13 
REMARK    3  A    between atoms: N_7  and  C_13 
REMARK       I    between atoms: N_7  and  C_8 
REMARK    4  A    between atoms: C_8  and  C_9 
REMARK    5  A    between atoms: C_9  and  N_11 
REMARK    6  A    between atoms: C_13  and  C_14 
ROOT
HETATM    1  O           1     -20.377  -4.816  -5.640  0.00  0.00    -0.271 OA
HETATM    2  N           1     -20.972  -6.906  -6.151  0.00  0.00    -0.345 N 
HETATM    3  C           1     -20.894  -5.568  -6.430  0.00  0.00     0.248 C 
HETATM    4  H           1     -21.405  -7.537  -6.813  0.00  0.00     0.163 HD
ENDROOT
BRANCH   2   5
HETATM    5  C           1     -20.435  -7.420  -4.906  0.00  0.00     0.185 C 
BRANCH   5   6
HETATM    6  C           1     -19.831  -8.782  -5.146  0.00  0.00     0.196 C 
HETATM    7  O           1     -20.472  -9.649  -5.778  0.00  0.00    -0.646 OA
HETATM    8  O           1     -18.688  -9.044  -4.712  0.00  0.00    -0.646 OA
ENDBRANCH   5   6
BRANCH   5   9
HETATM    9  C           1     -21.552  -7.533  -3.878  0.00  0.00     0.040 C 
BRANCH   9  10
HETATM   10  C           1     -21.087  -6.942  -2.554  0.00  0.00    -0.020 C 
HETATM   11  C           1     -22.249  -6.216  -1.887  0.00  0.00     0.009 C 
HETATM   12  C           1     -20.596  -8.061  -1.644  0.00  0.00     0.009 C 
ENDBRANCH   9  10
ENDBRANCH   5   9
ENDBRANCH   2   5
BRANCH   3  13
HETATM   13  C           1     -21.453  -5.034  -7.726  0.00  0.00     0.270 C 
HETATM   14  C           1     -20.331  -4.404  -8.542  0.00  0.00     0.050 C 
BRANCH  13  15
HETATM   15  N           1     -22.497  -3.999  -7.430  0.00  0.00    -0.067 N 
HETATM   16  H           1     -22.063  -3.049  -7.450  0.00  0.00     0.275 HD
HETATM   17  H           1     -23.252  -4.051  -8.151  0.00  0.00     0.275 HD
HETATM   18  H           1     -22.905  -4.175  -6.484  0.00  0.00     0.275 HD
ENDBRANCH  13  15
ENDBRANCH   3  13
TORSDOF 6
ENDMDL
MODEL 7
REMARK VINA RESULT:      -5.1      9.626     11.329
REMARK  6 active torsions:
REMARK  status: ('A' for Active; 'I' for Inactive)
REMARK    1  A    between atoms: C_3  and  C_14 
REMARK    2  A    between atoms: C_4  and  C_13 
REMARK    3  A    between atoms: N_7  and  C_13 
REMARK       I    between atoms: N_7  and  C_8 
REMARK    4  A    between atoms: C_8  and  C_9 
REMARK    5  A    between atoms: C_9  and  N_11 
REMARK    6  A    between atoms: C_13  and  C_14 
ROOT
HETATM    1  O           1     -25.925  -5.857 -16.920  0.00  0.00    -0.271 OA
HETATM    2  N           1     -27.496  -6.627 -18.307  0.00  0.00    -0.345 N 
HETATM    3  C           1     -26.196  -6.332 -17.997  0.00  0.00     0.248 C 
HETATM    4  H           1     -27.723  -7.025 -19.209  0.00  0.00     0.163 HD
ENDROOT
BRANCH   2   5
HETATM    5  C           1     -28.548  -6.372 -17.343  0.00  0.00     0.185 C 
BRANCH   5   6
HETATM    6  C           1     -28.691  -7.563 -16.428  0.00  0.00     0.196 C 
HETATM    7  O           1     -28.225  -7.522 -15.269  0.00  0.00    -0.646 OA
HETATM    8  O           1     -29.275  -8.593 -16.829  0.00  0.00    -0.646 OA
ENDBRANCH   5   6
BRANCH   5   9
HETATM    9  C           1     -29.861  -6.133 -18.075  0.00  0.00     0.040 C 
BRANCH   9  10
HETATM   10  C           1     -30.966  -5.861 -17.063  0.00  0.00    -0.020 C 
HETATM   11  C           1     -31.329  -4.382 -17.093  0.00  0.00     0.009 C 
HETATM   12  C           1     -32.192  -6.693 -17.416  0.00  0.00     0.009 C 
ENDBRANCH   9  10
ENDBRANCH   5   9
ENDBRANCH   2   5
BRANCH   3  13
HETATM   13  C           1     -25.102  -6.598 -19.002  0.00  0.00     0.270 C 
HETATM   14  C           1     -25.707  -7.199 -20.265  0.00  0.00     0.050 C 
BRANCH  13  15
HETATM   15  N           1     -24.111  -7.560 -18.418  0.00  0.00    -0.067 N 
HETATM   16  H           1     -23.269  -7.613 -19.035  0.00  0.00     0.275 HD
HETATM   17  H           1     -23.824  -7.230 -17.468  0.00  0.00     0.275 HD
HETATM   18  H           1     -24.546  -8.507 -18.341  0.00  0.00     0.275 HD
ENDBRANCH  13  15
ENDBRANCH   3  13
TORSDOF 6
ENDMDL
MODEL 8
REMARK VINA RESULT:      -4.9     15.448     17.592
REMARK  6 active torsions:
REMARK  status: ('A' for Active; 'I' for Inactive)
REMARK    1  A    between atoms: C_3  and  C_14 
REMARK    2  A    between atoms: C_4  and  C_13 
REMARK    3  A    between atoms: N_7  and  C_13 
REMARK       I    between atoms: N_7  and  C_8 
REMARK    4  A    between atoms: C_8  and  C_9 
REMARK    5  A    between atoms: C_9  and  N_11 
REMARK    6  A    between atoms: C_13  and  C_14 
ROOT
HETATM    1  O           1     -19.352  -8.654  -4.147  0.00  0.00    -0.271 OA
HETATM    2  N           1     -20.919  -8.209  -5.674  0.00  0.00    -0.345 N 
HETATM    3  C           1     -20.145  -9.078  -4.953  0.00  0.00     0.248 C 
HETATM    4  H           1     -21.584  -8.564  -6.349  0.00  0.00     0.163 HD
ENDROOT
BRANCH   2   5
HETATM    5  C           1     -20.787  -6.780  -5.470  0.00  0.00     0.185 C 
BRANCH   5   6
HETATM    6  C           1     -21.929  -6.288  -4.615  0.00  0.00     0.196 C 
HETATM    7  O           1     -23.071  -6.161  -5.108  0.00  0.00    -0.646 OA
HETATM    8  O           1     -21.733  -6.008  -3.413  0.00  0.00    -0.646 OA
ENDBRANCH   5   6
BRANCH   5   9
HETATM    9  C           1     -20.819  -6.070  -6.817  0.00  0.00     0.040 C 
BRANCH   9  10
HETATM   10  C           1     -20.309  -4.644  -6.653  0.00  0.00    -0.020 C 
HETATM   11  C           1     -18.996  -4.484  -7.407  0.00  0.00     0.009 C 
HETATM   12  C           1     -21.339  -3.671  -7.212  0.00  0.00     0.009 C 
ENDBRANCH   9  10
ENDBRANCH   5   9
ENDBRANCH   2   5
BRANCH   3  13
HETATM   13  C           1     -20.283 -10.566  -5.166  0.00  0.00     0.270 C 
HETATM   14  C           1     -18.901 -11.184  -5.338  0.00  0.00     0.050 C 
BRANCH  13  15
HETATM   15  N           1     -21.101 -10.821  -6.396  0.00  0.00    -0.067 N 
HETATM   16  H           1     -21.158 -11.849  -6.571  0.00  0.00     0.275 HD
HETATM   17  H           1     -22.064 -10.438  -6.259  0.00  0.00     0.275 HD
HETATM   18  H           1     -20.653 -10.353  -7.216  0.00  0.00     0.275 HD
ENDBRANCH  13  15
ENDBRANCH   3  13
TORSDOF 6
ENDMDL
MODEL 9
REMARK VINA RESULT:      -4.9     17.237     18.791
REMARK  6 active torsions:
REMARK  status: ('A' for Active; 'I' for Inactive)
REMARK    1  A    between atoms: C_3  and  C_14 
REMARK    2  A    between atoms: C_4  and  C_13 
REMARK    3  A    between atoms: N_7  and  C_13 
REMARK       I    between atoms: N_7  and  C_8 
REMARK    4  A    between atoms: C_8  and  C_9 
REMARK    5  A    between atoms: C_9  and  N_11 
REMARK    6  A    between atoms: C_13  and  C_14 
ROOT
HETATM    1  O           1     -21.179 -10.236  -3.751  0.00  0.00    -0.271 OA
HETATM    2  N           1     -20.322  -8.248  -3.206  0.00  0.00    -0.345 N 
HETATM    3  C           1     -20.252  -9.467  -3.825  0.00  0.00     0.248 C 
HETATM    4  H           1     -19.545  -7.603  -3.268  0.00  0.00     0.163 HD
ENDROOT
BRANCH   2   5
HETATM    5  C           1     -21.510  -7.880  -2.461  0.00  0.00     0.185 C 
BRANCH   5   6
HETATM    6  C           1     -21.940  -6.489  -2.857  0.00  0.00     0.196 C 
HETATM    7  O           1     -22.081  -6.198  -4.064  0.00  0.00    -0.646 OA
HETATM    8  O           1     -22.155  -5.627  -1.978  0.00  0.00    -0.646 OA
ENDBRANCH   5   6
BRANCH   5   9
HETATM    9  C           1     -21.205  -7.913  -0.969  0.00  0.00     0.040 C 
BRANCH   9  10
HETATM   10  C           1     -22.116  -8.924  -0.286  0.00  0.00    -0.020 C 
HETATM   11  C           1     -21.288  -9.808   0.638  0.00  0.00     0.009 C 
HETATM   12  C           1     -23.172  -8.187   0.527  0.00  0.00     0.009 C 
ENDBRANCH   9  10
ENDBRANCH   5   9
ENDBRANCH   2   5
BRANCH   3  13
HETATM   13  C           1     -19.014  -9.848  -4.600  0.00  0.00     0.270 C 
HETATM   14  C           1     -17.778  -9.558  -3.758  0.00  0.00     0.050 C 
BRANCH  13  15
HETATM   15  N           1     -18.953  -9.051  -5.868  0.00  0.00    -0.067 N 
HETATM   16  H           1     -17.957  -8.943  -6.166  0.00  0.00     0.275 HD
HETATM   17  H           1     -19.487  -9.547  -6.617  0.00  0.00     0.275 HD
HETATM   18  H           1     -19.372  -8.107  -5.708  0.00  0.00     0.275 HD
ENDBRANCH  13  15
ENDBRANCH   3  13
TORSDOF 6
ENDMDL
