MODEL 1
REMARK VINA RESULT:      -7.4      0.000      0.000
REMARK  5 active torsions:
REMARK  status: ('A' for Active; 'I' for Inactive)
REMARK    1  A    between atoms: N_6  and  C_13 
REMARK       I    between atoms: N_6  and  C_17 
REMARK    2  A    between atoms: C_13  and  C_19 
REMARK    3  A    between atoms: C_13  and  C_14 
REMARK    4  A    between atoms: C_14  and  C_15 
REMARK    5  A    between atoms: C_16  and  C_17 
ROOT
HETATM    1  C           1     -34.877  -0.863 -12.246  0.00  0.00     0.191 C 
ENDROOT
BRANCH   1   2
HETATM    2  N           1     -35.061  -1.984 -13.148  0.00  0.00    -0.344 N 
HETATM    3  H           1     -35.701  -1.904 -13.928  0.00  0.00     0.163 HD
HETATM    4  C           1     -34.371  -3.148 -12.944  0.00  0.00     0.252 C 
HETATM    5  O           1     -34.525  -4.080 -13.696  0.00  0.00    -0.271 OA
BRANCH   4   6
HETATM    6  C           1     -33.417  -3.265 -11.781  0.00  0.00     0.372 C 
HETATM    7  C           1     -32.483  -4.450 -11.964  0.00  0.00     0.048 C 
HETATM    8  C           1     -33.145  -5.597 -11.210  0.00  0.00     0.033 C 
HETATM    9  C           1     -34.418  -5.007 -10.627  0.00  0.00     0.271 C 
HETATM   10  N           1     -34.135  -3.576 -10.548  0.00  0.00     0.097 N 
HETATM   11  H           1     -33.553  -3.390  -9.732  0.00  0.00     0.317 HD
ENDBRANCH   4   6
ENDBRANCH   1   2
BRANCH   1  12
HETATM   12  C           1     -36.031  -0.803 -11.276  0.00  0.00     0.197 C 
HETATM   13  O           1     -36.380   0.293 -10.787  0.00  0.00    -0.646 OA
HETATM   14  O           1     -36.639  -1.849 -10.962  0.00  0.00    -0.646 OA
ENDBRANCH   1  12
BRANCH   1  15
HETATM   15  C           1     -34.820   0.430 -13.049  0.00  0.00     0.090 C 
BRANCH  15  16
HETATM   16  C           1     -35.790   0.354 -14.187  0.00  0.00     0.008 A 
HETATM   17  N           1     -37.153   0.334 -14.048  0.00  0.00    -0.358 N 
HETATM   18  C           1     -37.625   0.263 -15.272  0.00  0.00     0.176 A 
ATOM     19  HN          1     -37.687   0.368 -13.180  1.00  0.00     0.166 HD
HETATM   20  N           1     -36.619   0.236 -16.195  0.00  0.00    -0.380 N 
HETATM   21  H           1     -36.734   0.182 -17.237  0.00  0.00     0.160 HD
HETATM   22  C           1     -35.434   0.294 -15.513  0.00  0.00     0.109 A 
ENDBRANCH  15  16
ENDBRANCH   1  15
TORSDOF 5
ENDMDL
MODEL 2
REMARK VINA RESULT:      -6.9      1.689      5.311
REMARK  5 active torsions:
REMARK  status: ('A' for Active; 'I' for Inactive)
REMARK    1  A    between atoms: N_6  and  C_13 
REMARK       I    between atoms: N_6  and  C_17 
REMARK    2  A    between atoms: C_13  and  C_19 
REMARK    3  A    between atoms: C_13  and  C_14 
REMARK    4  A    between atoms: C_14  and  C_15 
REMARK    5  A    between atoms: C_16  and  C_17 
ROOT
HETATM    1  C           1     -35.128  -1.445 -11.375  0.00  0.00     0.191 C 
ENDROOT
BRANCH   1   2
HETATM    2  N           1     -34.645  -0.223 -11.988  0.00  0.00    -0.344 N 
HETATM    3  H           1     -34.087   0.427 -11.449  0.00  0.00     0.163 HD
HETATM    4  C           1     -34.945   0.052 -13.295  0.00  0.00     0.252 C 
HETATM    5  O           1     -34.542   1.069 -13.805  0.00  0.00    -0.271 OA
BRANCH   4   6
HETATM    6  C           1     -35.776  -0.918 -14.098  0.00  0.00     0.372 C 
HETATM    7  C           1     -35.442  -0.821 -15.577  0.00  0.00     0.048 C 
HETATM    8  C           1     -36.471   0.145 -16.153  0.00  0.00     0.033 C 
HETATM    9  C           1     -37.344   0.543 -14.976  0.00  0.00     0.271 C 
HETATM   10  N           1     -37.191  -0.565 -14.037  0.00  0.00     0.097 N 
HETATM   11  H           1     -37.773  -1.347 -14.337  0.00  0.00     0.317 HD
ENDBRANCH   4   6
ENDBRANCH   1   2
BRANCH   1  12
HETATM   12  C           1     -36.349  -1.142 -10.542  0.00  0.00     0.197 C 
HETATM   13  O           1     -36.223  -0.621  -9.413  0.00  0.00    -0.646 OA
HETATM   14  O           1     -37.488  -1.413 -10.981  0.00  0.00    -0.646 OA
ENDBRANCH   1  12
BRANCH   1  15
HETATM   15  C           1     -34.039  -2.030 -10.484  0.00  0.00     0.090 C 
BRANCH  15  16
HETATM   16  C           1     -33.742  -3.434 -10.914  0.00  0.00     0.008 A 
HETATM   17  N           1     -34.444  -4.538 -10.505  0.00  0.00    -0.358 N 
HETATM   18  C           1     -33.869  -5.556 -11.104  0.00  0.00     0.176 A 
ATOM     19  HN          1     -35.243  -4.564  -9.871  1.00  0.00     0.166 HD
HETATM   20  N           1     -32.822  -5.151 -11.883  0.00  0.00    -0.380 N 
HETATM   21  H           1     -32.203  -5.770 -12.462  0.00  0.00     0.160 HD
HETATM   22  C           1     -32.729  -3.790 -11.771  0.00  0.00     0.109 A 
ENDBRANCH  15  16
ENDBRANCH   1  15
TORSDOF 5
ENDMDL
MODEL 3
REMARK VINA RESULT:      -6.1     11.684     13.708
REMARK  5 active torsions:
REMARK  status: ('A' for Active; 'I' for Inactive)
REMARK    1  A    between atoms: N_6  and  C_13 
REMARK       I    between atoms: N_6  and  C_17 
REMARK    2  A    between atoms: C_13  and  C_19 
REMARK    3  A    between atoms: C_13  and  C_14 
REMARK    4  A    between atoms: C_14  and  C_15 
REMARK    5  A    between atoms: C_16  and  C_17 
ROOT
HETATM    1  C           1     -22.908  -4.028  -9.240  0.00  0.00     0.191 C 
ENDROOT
BRANCH   1   2
HETATM    2  N           1     -21.821  -4.988  -9.228  0.00  0.00    -0.344 N 
HETATM    3  H           1     -21.580  -5.490 -10.073  0.00  0.00     0.163 HD
HETATM    4  C           1     -21.121  -5.215  -8.073  0.00  0.00     0.252 C 
HETATM    5  O           1     -20.216  -6.014  -8.064  0.00  0.00    -0.271 OA
BRANCH   4   6
HETATM    6  C           1     -21.480  -4.465  -6.814  0.00  0.00     0.372 C 
HETATM    7  C           1     -20.375  -4.585  -5.779  0.00  0.00     0.048 C 
HETATM    8  C           1     -20.784  -5.757  -4.895  0.00  0.00     0.033 C 
HETATM    9  C           1     -22.105  -6.242  -5.466  0.00  0.00     0.271 C 
HETATM   10  N           1     -22.636  -5.072  -6.159  0.00  0.00     0.097 N 
HETATM   11  H           1     -23.046  -4.431  -5.480  0.00  0.00     0.317 HD
ENDBRANCH   4   6
ENDBRANCH   1   2
BRANCH   1  12
HETATM   12  C           1     -24.093  -4.621  -9.963  0.00  0.00     0.197 C 
HETATM   13  O           1     -25.222  -4.099  -9.845  0.00  0.00    -0.646 OA
HETATM   14  O           1     -23.945  -5.634 -10.680  0.00  0.00    -0.646 OA
ENDBRANCH   1  12
BRANCH   1  15
HETATM   15  C           1     -22.457  -2.762  -9.957  0.00  0.00     0.090 C 
BRANCH  15  16
HETATM   16  C           1     -22.600  -2.947 -11.436  0.00  0.00     0.008 A 
HETATM   17  N           1     -23.715  -2.609 -12.159  0.00  0.00    -0.358 N 
HETATM   18  C           1     -23.433  -2.930 -13.401  0.00  0.00     0.176 A 
ATOM     19  HN          1     -24.579  -2.197 -11.807  1.00  0.00     0.166 HD
HETATM   20  N           1     -22.179  -3.463 -13.507  0.00  0.00    -0.380 N 
HETATM   21  H           1     -21.719  -3.797 -14.390  0.00  0.00     0.160 HD
HETATM   22  C           1     -21.632  -3.480 -12.253  0.00  0.00     0.109 A 
ENDBRANCH  15  16
ENDBRANCH   1  15
TORSDOF 5
ENDMDL
MODEL 4
REMARK VINA RESULT:      -6.0     12.689     14.788
REMARK  5 active torsions:
REMARK  status: ('A' for Active; 'I' for Inactive)
REMARK    1  A    between atoms: N_6  and  C_13 
REMARK       I    between atoms: N_6  and  C_17 
REMARK    2  A    between atoms: C_13  and  C_19 
REMARK    3  A    between atoms: C_13  and  C_14 
REMARK    4  A    between atoms: C_14  and  C_15 
REMARK    5  A    between atoms: C_16  and  C_17 
ROOT
HETATM    1  C           1     -21.350  -4.418  -8.867  0.00  0.00     0.191 C 
ENDROOT
BRANCH   1   2
HETATM    2  N           1     -20.721  -3.959  -7.644  0.00  0.00    -0.344 N 
HETATM    3  H           1     -20.207  -3.087  -7.636  0.00  0.00     0.163 HD
HETATM    4  C           1     -20.821  -4.705  -6.501  0.00  0.00     0.252 C 
HETATM    5  O           1     -20.297  -4.322  -5.482  0.00  0.00    -0.271 OA
BRANCH   4   6
HETATM    6  C           1     -21.588  -6.005  -6.513  0.00  0.00     0.372 C 
HETATM    7  C           1     -22.341  -6.201  -5.208  0.00  0.00     0.048 C 
HETATM    8  C           1     -21.417  -7.047  -4.340  0.00  0.00     0.033 C 
HETATM    9  C           1     -20.188  -7.298  -5.197  0.00  0.00     0.271 C 
HETATM   10  N           1     -20.678  -7.145  -6.564  0.00  0.00     0.097 N 
HETATM   11  H           1     -21.173  -7.992  -6.844  0.00  0.00     0.317 HD
ENDBRANCH   4   6
ENDBRANCH   1   2
BRANCH   1  12
HETATM   12  C           1     -20.403  -4.219 -10.025  0.00  0.00     0.197 C 
HETATM   13  O           1     -19.773  -5.192 -10.492  0.00  0.00    -0.646 OA
HETATM   14  O           1     -20.249  -3.081 -10.517  0.00  0.00    -0.646 OA
ENDBRANCH   1  12
BRANCH   1  15
HETATM   15  C           1     -22.625  -3.621  -9.111  0.00  0.00     0.090 C 
BRANCH  15  16
HETATM   16  C           1     -23.097  -3.851 -10.514  0.00  0.00     0.008 A 
HETATM   17  N           1     -23.153  -2.885 -11.485  0.00  0.00    -0.358 N 
HETATM   18  C           1     -23.617  -3.493 -12.552  0.00  0.00     0.176 A 
ATOM     19  HN          1     -22.889  -1.904 -11.397  1.00  0.00     0.166 HD
HETATM   20  N           1     -23.864  -4.815 -12.307  0.00  0.00    -0.380 N 
HETATM   21  H           1     -24.238  -5.514 -12.995  0.00  0.00     0.160 HD
HETATM   22  C           1     -23.535  -5.059 -11.002  0.00  0.00     0.109 A 
ENDBRANCH  15  16
ENDBRANCH   1  15
TORSDOF 5
ENDMDL
MODEL 5
REMARK VINA RESULT:      -6.0     13.398     15.700
REMARK  5 active torsions:
REMARK  status: ('A' for Active; 'I' for Inactive)
REMARK    1  A    between atoms: N_6  and  C_13 
REMARK       I    between atoms: N_6  and  C_17 
REMARK    2  A    between atoms: C_13  and  C_19 
REMARK    3  A    between atoms: C_13  and  C_14 
REMARK    4  A    between atoms: C_14  and  C_15 
REMARK    5  A    between atoms: C_16  and  C_17 
ROOT
HETATM    1  C           1     -21.113  -4.943  -6.924  0.00  0.00     0.191 C 
ENDROOT
BRANCH   1   2
HETATM    2  N           1     -20.935  -4.827  -5.490  0.00  0.00    -0.344 N 
HETATM    3  H           1     -20.675  -3.936  -5.083  0.00  0.00     0.163 HD
HETATM    4  C           1     -21.117  -5.920  -4.686  0.00  0.00     0.252 C 
HETATM    5  O           1     -20.969  -5.822  -3.492  0.00  0.00    -0.271 OA
BRANCH   4   6
HETATM    6  C           1     -21.504  -7.246  -5.293  0.00  0.00     0.372 C 
HETATM    7  C           1     -22.043  -8.190  -4.231  0.00  0.00     0.048 C 
HETATM    8  C           1     -20.844  -9.025  -3.798  0.00  0.00     0.033 C 
HETATM    9  C           1     -19.684  -8.521  -4.640  0.00  0.00     0.271 C 
HETATM   10  N           1     -20.331  -7.942  -5.814  0.00  0.00     0.097 N 
HETATM   11  H           1     -20.606  -8.687  -6.453  0.00  0.00     0.317 HD
ENDBRANCH   4   6
ENDBRANCH   1   2
BRANCH   1  12
HETATM   12  C           1     -19.769  -5.138  -7.584  0.00  0.00     0.197 C 
HETATM   13  O           1     -19.050  -4.149  -7.842  0.00  0.00    -0.646 OA
HETATM   14  O           1     -19.376  -6.289  -7.872  0.00  0.00    -0.646 OA
ENDBRANCH   1  12
BRANCH   1  15
HETATM   15  C           1     -21.761  -3.673  -7.459  0.00  0.00     0.090 C 
BRANCH  15  16
HETATM   16  C           1     -22.695  -4.022  -8.577  0.00  0.00     0.008 A 
HETATM   17  N           1     -24.059  -3.898  -8.521  0.00  0.00    -0.358 N 
HETATM   18  C           1     -24.493  -4.305  -9.691  0.00  0.00     0.176 A 
ATOM     19  HN          1     -24.617  -3.561  -7.736  1.00  0.00     0.166 HD
HETATM   20  N           1     -23.462  -4.688 -10.502  0.00  0.00    -0.380 N 
HETATM   21  H           1     -23.546  -5.050 -11.483  0.00  0.00     0.160 HD
HETATM   22  C           1     -22.301  -4.512  -9.800  0.00  0.00     0.109 A 
ENDBRANCH  15  16
ENDBRANCH   1  15
TORSDOF 5
ENDMDL
MODEL 6
REMARK VINA RESULT:      -5.9     12.329     15.332
REMARK  5 active torsions:
REMARK  status: ('A' for Active; 'I' for Inactive)
REMARK    1  A    between atoms: N_6  and  C_13 
REMARK       I    between atoms: N_6  and  C_17 
REMARK    2  A    between atoms: C_13  and  C_19 
REMARK    3  A    between atoms: C_13  and  C_14 
REMARK    4  A    between atoms: C_14  and  C_15 
REMARK    5  A    between atoms: C_16  and  C_17 
ROOT
HETATM    1  C           1     -21.207  -5.132  -8.238  0.00  0.00     0.191 C 
ENDROOT
BRANCH   1   2
HETATM    2  N           1     -20.653  -4.475  -9.406  0.00  0.00    -0.344 N 
HETATM    3  H           1     -19.686  -4.174  -9.407  0.00  0.00     0.163 HD
HETATM    4  C           1     -21.437  -4.261 -10.508  0.00  0.00     0.252 C 
HETATM    5  O           1     -20.975  -3.715 -11.481  0.00  0.00    -0.271 OA
BRANCH   4   6
HETATM    6  C           1     -22.877  -4.711 -10.507  0.00  0.00     0.372 C 
HETATM    7  C           1     -23.302  -5.170 -11.892  0.00  0.00     0.048 C 
HETATM    8  C           1     -23.949  -3.947 -12.533  0.00  0.00     0.033 C 
HETATM    9  C           1     -23.867  -2.856 -11.479  0.00  0.00     0.271 C 
HETATM   10  N           1     -23.771  -3.592 -10.222  0.00  0.00     0.097 N 
HETATM   11  H           1     -24.696  -3.927  -9.952  0.00  0.00     0.317 HD
ENDBRANCH   4   6
ENDBRANCH   1   2
BRANCH   1  12
HETATM   12  C           1     -21.989  -4.132  -7.422  0.00  0.00     0.197 C 
HETATM   13  O           1     -21.438  -3.086  -7.018  0.00  0.00    -0.646 OA
HETATM   14  O           1     -23.190  -4.350  -7.151  0.00  0.00    -0.646 OA
ENDBRANCH   1  12
BRANCH   1  15
HETATM   15  C           1     -20.075  -5.701  -7.393  0.00  0.00     0.090 C 
BRANCH  15  16
HETATM   16  C           1     -20.647  -6.396  -6.196  0.00  0.00     0.008 A 
HETATM   17  N           1     -21.194  -7.653  -6.212  0.00  0.00    -0.358 N 
HETATM   18  C           1     -21.571  -7.883  -4.976  0.00  0.00     0.176 A 
ATOM     19  HN          1     -21.288  -8.276  -7.014  1.00  0.00     0.166 HD
HETATM   20  N           1     -21.289  -6.823  -4.161  0.00  0.00    -0.380 N 
HETATM   21  H           1     -21.490  -6.759  -3.133  0.00  0.00     0.160 HD
HETATM   22  C           1     -20.695  -5.860  -4.931  0.00  0.00     0.109 A 
ENDBRANCH  15  16
ENDBRANCH   1  15
TORSDOF 5
ENDMDL
MODEL 7
REMARK VINA RESULT:      -5.9     11.878     13.960
REMARK  5 active torsions:
REMARK  status: ('A' for Active; 'I' for Inactive)
REMARK    1  A    between atoms: N_6  and  C_13 
REMARK       I    between atoms: N_6  and  C_17 
REMARK    2  A    between atoms: C_13  and  C_19 
REMARK    3  A    between atoms: C_13  and  C_14 
REMARK    4  A    between atoms: C_14  and  C_15 
REMARK    5  A    between atoms: C_16  and  C_17 
ROOT
HETATM    1  C           1     -22.099  -4.648 -10.654  0.00  0.00     0.191 C 
ENDROOT
BRANCH   1   2
HETATM    2  N           1     -22.737  -4.074  -9.486  0.00  0.00    -0.344 N 
HETATM    3  H           1     -23.458  -3.371  -9.597  0.00  0.00     0.163 HD
HETATM    4  C           1     -22.367  -4.481  -8.233  0.00  0.00     0.252 C 
HETATM    5  O           1     -22.899  -4.003  -7.260  0.00  0.00    -0.271 OA
BRANCH   4   6
HETATM    6  C           1     -21.294  -5.529  -8.067  0.00  0.00     0.372 C 
HETATM    7  C           1     -21.098  -5.876  -6.601  0.00  0.00     0.048 C 
HETATM    8  C           1     -19.949  -4.989  -6.135  0.00  0.00     0.033 C 
HETATM    9  C           1     -19.543  -4.188  -7.360  0.00  0.00     0.271 C 
HETATM   10  N           1     -19.993  -5.011  -8.480  0.00  0.00     0.097 N 
HETATM   11  H           1     -19.331  -5.772  -8.630  0.00  0.00     0.317 HD
ENDBRANCH   4   6
ENDBRANCH   1   2
BRANCH   1  12
HETATM   12  C           1     -21.113  -3.659 -11.226  0.00  0.00     0.197 C 
HETATM   13  O           1     -20.047  -4.063 -11.738  0.00  0.00    -0.646 OA
HETATM   14  O           1     -21.363  -2.435 -11.187  0.00  0.00    -0.646 OA
ENDBRANCH   1  12
BRANCH   1  15
HETATM   15  C           1     -23.156  -4.974 -11.701  0.00  0.00     0.090 C 
BRANCH  15  16
HETATM   16  C           1     -23.362  -3.785 -12.589  0.00  0.00     0.008 A 
HETATM   17  N           1     -22.534  -3.433 -13.623  0.00  0.00    -0.358 N 
HETATM   18  C           1     -23.064  -2.347 -14.137  0.00  0.00     0.176 A 
ATOM     19  HN          1     -21.686  -3.912 -13.927  1.00  0.00     0.166 HD
HETATM   20  N           1     -24.203  -1.985 -13.475  0.00  0.00    -0.380 N 
HETATM   21  H           1     -24.810  -1.157 -13.692  0.00  0.00     0.160 HD
HETATM   22  C           1     -24.407  -2.900 -12.478  0.00  0.00     0.109 A 
ENDBRANCH  15  16
ENDBRANCH   1  15
TORSDOF 5
ENDMDL
MODEL 8
REMARK VINA RESULT:      -5.8     15.898     18.352
REMARK  5 active torsions:
REMARK  status: ('A' for Active; 'I' for Inactive)
REMARK    1  A    between atoms: N_6  and  C_13 
REMARK       I    between atoms: N_6  and  C_17 
REMARK    2  A    between atoms: C_13  and  C_19 
REMARK    3  A    between atoms: C_13  and  C_14 
REMARK    4  A    between atoms: C_14  and  C_15 
REMARK    5  A    between atoms: C_16  and  C_17 
ROOT
HETATM    1  C           1     -20.674  -8.176  -3.290  0.00  0.00     0.191 C 
ENDROOT
BRANCH   1   2
HETATM    2  N           1     -21.872  -7.496  -3.742  0.00  0.00    -0.344 N 
HETATM    3  H           1     -22.763  -7.699  -3.308  0.00  0.00     0.163 HD
HETATM    4  C           1     -21.797  -6.578  -4.755  0.00  0.00     0.252 C 
HETATM    5  O           1     -22.794  -6.011  -5.130  0.00  0.00    -0.271 OA
BRANCH   4   6
HETATM    6  C           1     -20.467  -6.274  -5.400  0.00  0.00     0.372 C 
HETATM    7  C           1     -20.211  -4.777  -5.433  0.00  0.00     0.048 C 
HETATM    8  C           1     -20.695  -4.321  -6.804  0.00  0.00     0.033 C 
HETATM    9  C           1     -21.195  -5.582  -7.488  0.00  0.00     0.271 C 
HETATM   10  N           1     -20.474  -6.656  -6.810  0.00  0.00     0.097 N 
HETATM   11  H           1     -19.523  -6.711  -7.175  0.00  0.00     0.317 HD
ENDBRANCH   4   6
ENDBRANCH   1   2
BRANCH   1  12
HETATM   12  C           1     -20.862  -9.668  -3.424  0.00  0.00     0.197 C 
HETATM   13  O           1     -21.921 -10.124  -3.907  0.00  0.00    -0.646 OA
HETATM   14  O           1     -19.959 -10.447  -3.051  0.00  0.00    -0.646 OA
ENDBRANCH   1  12
BRANCH   1  15
HETATM   15  C           1     -20.412  -7.827  -1.831  0.00  0.00     0.090 C 
BRANCH  15  16
HETATM   16  C           1     -21.617  -8.172  -1.010  0.00  0.00     0.008 A 
HETATM   17  N           1     -22.061  -9.448  -0.778  0.00  0.00    -0.358 N 
HETATM   18  C           1     -23.128  -9.312  -0.025  0.00  0.00     0.176 A 
ATOM     19  HN          1     -21.649 -10.318  -1.117  1.00  0.00     0.166 HD
HETATM   20  N           1     -23.391  -7.996   0.237  0.00  0.00    -0.380 N 
HETATM   21  H           1     -24.185  -7.625   0.814  0.00  0.00     0.160 HD
HETATM   22  C           1     -22.428  -7.253  -0.390  0.00  0.00     0.109 A 
ENDBRANCH  15  16
ENDBRANCH   1  15
TORSDOF 5
ENDMDL
MODEL 9
REMARK VINA RESULT:      -5.6     15.840     19.090
REMARK  5 active torsions:
REMARK  status: ('A' for Active; 'I' for Inactive)
REMARK    1  A    between atoms: N_6  and  C_13 
REMARK       I    between atoms: N_6  and  C_17 
REMARK    2  A    between atoms: C_13  and  C_19 
REMARK    3  A    between atoms: C_13  and  C_14 
REMARK    4  A    between atoms: C_14  and  C_15 
REMARK    5  A    between atoms: C_16  and  C_17 
ROOT
HETATM    1  C           1     -20.454  -8.974  -4.816  0.00  0.00     0.191 C 
ENDROOT
BRANCH   1   2
HETATM    2  N           1     -21.597  -8.110  -4.595  0.00  0.00    -0.344 N 
HETATM    3  H           1     -22.425  -8.473  -4.137  0.00  0.00     0.163 HD
HETATM    4  C           1     -21.559  -6.804  -5.003  0.00  0.00     0.252 C 
HETATM    5  O           1     -22.511  -6.085  -4.817  0.00  0.00    -0.271 OA
BRANCH   4   6
HETATM    6  C           1     -20.325  -6.263  -5.683  0.00  0.00     0.372 C 
HETATM    7  C           1     -20.241  -4.754  -5.530  0.00  0.00     0.048 C 
HETATM    8  C           1     -20.877  -4.190  -6.795  0.00  0.00     0.033 C 
HETATM    9  C           1     -21.285  -5.406  -7.610  0.00  0.00     0.271 C 
HETATM   10  N           1     -20.398  -6.462  -7.128  0.00  0.00     0.097 N 
HETATM   11  H           1     -19.479  -6.355  -7.555  0.00  0.00     0.317 HD
ENDBRANCH   4   6
ENDBRANCH   1   2
BRANCH   1  12
HETATM   12  C           1     -20.929 -10.322  -5.301  0.00  0.00     0.197 C 
HETATM   13  O           1     -20.443 -10.820  -6.338  0.00  0.00    -0.646 OA
HETATM   14  O           1     -21.809 -10.940  -4.664  0.00  0.00    -0.646 OA
ENDBRANCH   1  12
BRANCH   1  15
HETATM   15  C           1     -19.687  -9.144  -3.512  0.00  0.00     0.090 C 
BRANCH  15  16
HETATM   16  C           1     -18.249  -9.436  -3.812  0.00  0.00     0.008 A 
HETATM   17  N           1     -17.755  -9.715  -5.059  0.00  0.00    -0.358 N 
HETATM   18  C           1     -16.467  -9.908  -4.888  0.00  0.00     0.176 A 
ATOM     19  HN          1     -18.277  -9.763  -5.935  1.00  0.00     0.166 HD
HETATM   20  N           1     -16.111  -9.764  -3.576  0.00  0.00    -0.380 N 
HETATM   21  H           1     -15.144  -9.866  -3.182  0.00  0.00     0.160 HD
HETATM   22  C           1     -17.245  -9.460  -2.874  0.00  0.00     0.109 A 
ENDBRANCH  15  16
ENDBRANCH   1  15
TORSDOF 5
ENDMDL
