MODEL 1
REMARK VINA RESULT:      -5.5      0.000      0.000
REMARK  10 active torsions:
REMARK  status: ('A' for Active; 'I' for Inactive)
REMARK    1  A    between atoms: C_3  and  C_4 
REMARK    2  A    between atoms: C_3  and  C_18 
REMARK    3  A    between atoms: C_4  and  C_22 
REMARK    4  A    between atoms: C_5  and  C_6 
REMARK    5  A    between atoms: C_5  and  O_10 
REMARK    6  A    between atoms: C_6  and  C_12 
REMARK    7  A    between atoms: C_6  and  N_7 
REMARK    8  A    between atoms: N_9  and  C_22 
REMARK       I    between atoms: C_12  and  N_17 
REMARK    9  A    between atoms: N_17  and  C_18 
REMARK   10  A    between atoms: C_18  and  C_23 
ROOT
HETATM    1  H           1     -35.717  -3.253 -10.870  0.00  0.00     0.163 HD
HETATM    2  C           1     -35.626  -1.189 -10.990  0.00  0.00     0.251 C 
HETATM    3  N           1     -35.219  -2.466 -11.265  0.00  0.00    -0.345 N 
HETATM    4  O           1     -35.030  -0.250 -11.462  0.00  0.00    -0.271 OA
ENDROOT
BRANCH   3   5
HETATM    5  C           1     -34.072  -2.692 -12.124  0.00  0.00     0.185 C 
BRANCH   5   6
HETATM    6  C           1     -33.260  -3.862 -11.587  0.00  0.00     0.038 C 
BRANCH   6   7
HETATM    7  C           1     -34.032  -4.546 -10.467  0.00  0.00     0.030 C 
BRANCH   7   8
HETATM    8  C           1     -34.063  -6.049 -10.715  0.00  0.00     0.230 C 
BRANCH   8   9
HETATM    9  N           1     -34.754  -6.329 -12.016  0.00  0.00    -0.079 N 
HETATM   10  H           1     -35.748  -6.014 -11.957  0.00  0.00     0.274 HD
HETATM   11  H           1     -34.726  -7.355 -12.213  0.00  0.00     0.274 HD
HETATM   12  H           1     -34.270  -5.812 -12.785  0.00  0.00     0.274 HD
ENDBRANCH   8   9
ENDBRANCH   7   8
ENDBRANCH   6   7
ENDBRANCH   5   6
BRANCH   5  13
HETATM   13  C           1     -34.546  -3.007 -13.522  0.00  0.00     0.196 C 
HETATM   14  O           1     -34.951  -2.088 -14.265  0.00  0.00    -0.646 OA
HETATM   15  O           1     -34.531  -4.186 -13.936  0.00  0.00    -0.646 OA
ENDBRANCH   5  13
ENDBRANCH   3   5
BRANCH   2  16
HETATM   16  C           1     -36.819  -0.953 -10.096  0.00  0.00     0.297 C 
BRANCH  16  17
HETATM   17  C           1     -37.924  -0.272 -10.892  0.00  0.00     0.206 C 
BRANCH  17  18
HETATM   18  O           1     -37.825  -0.639 -12.242  0.00  0.00    -0.398 OA
HETATM   19  H           1     -38.233   0.046 -12.742  0.00  0.00     0.209 HD
ENDBRANCH  17  18
ENDBRANCH  16  17
BRANCH  16  20
HETATM   20  N           1     -36.417  -0.075  -8.948  0.00  0.00    -0.064 N 
HETATM   21  H           1     -37.203   0.574  -8.713  0.00  0.00     0.275 HD
HETATM   22  H           1     -36.197  -0.670  -8.117  0.00  0.00     0.275 HD
HETATM   23  H           1     -35.573   0.480  -9.213  0.00  0.00     0.275 HD
ENDBRANCH  16  20
ENDBRANCH   2  16
TORSDOF 10
ENDMDL
MODEL 2
REMARK VINA RESULT:      -5.4      2.745      4.744
REMARK  10 active torsions:
REMARK  status: ('A' for Active; 'I' for Inactive)
REMARK    1  A    between atoms: C_3  and  C_4 
REMARK    2  A    between atoms: C_3  and  C_18 
REMARK    3  A    between atoms: C_4  and  C_22 
REMARK    4  A    between atoms: C_5  and  C_6 
REMARK    5  A    between atoms: C_5  and  O_10 
REMARK    6  A    between atoms: C_6  and  C_12 
REMARK    7  A    between atoms: C_6  and  N_7 
REMARK    8  A    between atoms: N_9  and  C_22 
REMARK       I    between atoms: C_12  and  N_17 
REMARK    9  A    between atoms: N_17  and  C_18 
REMARK   10  A    between atoms: C_18  and  C_23 
ROOT
HETATM    1  H           1     -36.762  -1.603 -13.380  0.00  0.00     0.163 HD
HETATM    2  C           1     -35.531  -0.173 -14.230  0.00  0.00     0.251 C 
HETATM    3  N           1     -35.890  -1.098 -13.288  0.00  0.00    -0.345 N 
HETATM    4  O           1     -34.490   0.431 -14.119  0.00  0.00    -0.271 OA
ENDROOT
BRANCH   3   5
HETATM    5  C           1     -35.020  -1.354 -12.156  0.00  0.00     0.185 C 
BRANCH   5   6
HETATM    6  C           1     -35.859  -1.488 -10.892  0.00  0.00     0.038 C 
BRANCH   6   7
HETATM    7  C           1     -36.639  -0.200 -10.662  0.00  0.00     0.030 C 
BRANCH   7   8
HETATM    8  C           1     -36.886  -0.016  -9.170  0.00  0.00     0.230 C 
BRANCH   8   9
HETATM    9  N           1     -36.527   1.386  -8.772  0.00  0.00    -0.079 N 
HETATM   10  H           1     -36.497   1.455  -7.731  0.00  0.00     0.274 HD
HETATM   11  H           1     -37.244   2.048  -9.144  0.00  0.00     0.274 HD
HETATM   12  H           1     -35.590   1.630  -9.166  0.00  0.00     0.274 HD
ENDBRANCH   8   9
ENDBRANCH   7   8
ENDBRANCH   6   7
ENDBRANCH   5   6
BRANCH   5  13
HETATM   13  C           1     -34.255  -2.634 -12.390  0.00  0.00     0.196 C 
HETATM   14  O           1     -34.375  -3.244 -13.473  0.00  0.00    -0.646 OA
HETATM   15  O           1     -33.500  -3.082 -11.500  0.00  0.00    -0.646 OA
ENDBRANCH   5  13
ENDBRANCH   3   5
BRANCH   2  16
HETATM   16  C           1     -36.435   0.094 -15.408  0.00  0.00     0.297 C 
BRANCH  16  17
HETATM   17  C           1     -36.087  -0.858 -16.545  0.00  0.00     0.206 C 
BRANCH  17  18
HETATM   18  O           1     -35.214  -1.850 -16.074  0.00  0.00    -0.398 OA
HETATM   19  H           1     -35.563  -2.153 -15.254  0.00  0.00     0.209 HD
ENDBRANCH  17  18
ENDBRANCH  16  17
BRANCH  16  20
HETATM   20  N           1     -36.251   1.510 -15.869  0.00  0.00    -0.064 N 
HETATM   21  H           1     -35.508   1.544 -16.604  0.00  0.00     0.275 HD
HETATM   22  H           1     -37.150   1.866 -16.267  0.00  0.00     0.275 HD
HETATM   23  H           1     -35.967   2.106 -15.059  0.00  0.00     0.275 HD
ENDBRANCH  16  20
ENDBRANCH   2  16
TORSDOF 10
ENDMDL
MODEL 3
REMARK VINA RESULT:      -5.4      2.795      5.125
REMARK  10 active torsions:
REMARK  status: ('A' for Active; 'I' for Inactive)
REMARK    1  A    between atoms: C_3  and  C_4 
REMARK    2  A    between atoms: C_3  and  C_18 
REMARK    3  A    between atoms: C_4  and  C_22 
REMARK    4  A    between atoms: C_5  and  C_6 
REMARK    5  A    between atoms: C_5  and  O_10 
REMARK    6  A    between atoms: C_6  and  C_12 
REMARK    7  A    between atoms: C_6  and  N_7 
REMARK    8  A    between atoms: N_9  and  C_22 
REMARK       I    between atoms: C_12  and  N_17 
REMARK    9  A    between atoms: N_17  and  C_18 
REMARK   10  A    between atoms: C_18  and  C_23 
ROOT
HETATM    1  H           1     -35.315  -2.051 -13.740  0.00  0.00     0.163 HD
HETATM    2  C           1     -34.103  -2.571 -12.145  0.00  0.00     0.251 C 
HETATM    3  N           1     -34.861  -1.718 -12.899  0.00  0.00    -0.345 N 
HETATM    4  O           1     -33.562  -2.173 -11.141  0.00  0.00    -0.271 OA
ENDROOT
BRANCH   3   5
HETATM    5  C           1     -35.014  -0.334 -12.494  0.00  0.00     0.185 C 
BRANCH   5   6
HETATM    6  C           1     -35.059   0.555 -13.730  0.00  0.00     0.038 C 
BRANCH   6   7
HETATM    7  C           1     -35.180  -0.313 -14.975  0.00  0.00     0.030 C 
BRANCH   7   8
HETATM    8  C           1     -36.468   0.032 -15.712  0.00  0.00     0.230 C 
BRANCH   8   9
HETATM    9  N           1     -36.458  -0.609 -17.068  0.00  0.00    -0.079 N 
HETATM   10  H           1     -35.994   0.030 -17.751  0.00  0.00     0.274 HD
HETATM   11  H           1     -37.439  -0.793 -17.375  0.00  0.00     0.274 HD
HETATM   12  H           1     -35.932  -1.512 -17.021  0.00  0.00     0.274 HD
ENDBRANCH   8   9
ENDBRANCH   7   8
ENDBRANCH   6   7
ENDBRANCH   5   6
BRANCH   5  13
HETATM   13  C           1     -36.297  -0.177 -11.715  0.00  0.00     0.196 C 
HETATM   14  O           1     -36.296   0.437 -10.627  0.00  0.00    -0.646 OA
HETATM   15  O           1     -37.361  -0.662 -12.158  0.00  0.00    -0.646 OA
ENDBRANCH   5  13
ENDBRANCH   3   5
BRANCH   2  16
HETATM   16  C           1     -33.944  -4.012 -12.566  0.00  0.00     0.297 C 
BRANCH  16  17
HETATM   17  C           1     -34.927  -4.881 -11.793  0.00  0.00     0.206 C 
BRANCH  17  18
HETATM   18  O           1     -35.799  -4.063 -11.060  0.00  0.00    -0.398 OA
HETATM   19  H           1     -35.327  -3.773 -10.300  0.00  0.00     0.209 HD
ENDBRANCH  17  18
ENDBRANCH  16  17
BRANCH  16  20
HETATM   20  N           1     -32.543  -4.465 -12.276  0.00  0.00    -0.064 N 
HETATM   21  H           1     -32.458  -4.710 -11.264  0.00  0.00     0.275 HD
HETATM   22  H           1     -32.323  -5.305 -12.858  0.00  0.00     0.275 HD
HETATM   23  H           1     -31.874  -3.696 -12.507  0.00  0.00     0.275 HD
ENDBRANCH  16  20
ENDBRANCH   2  16
TORSDOF 10
ENDMDL
MODEL 4
REMARK VINA RESULT:      -5.4      2.503      3.501
REMARK  10 active torsions:
REMARK  status: ('A' for Active; 'I' for Inactive)
REMARK    1  A    between atoms: C_3  and  C_4 
REMARK    2  A    between atoms: C_3  and  C_18 
REMARK    3  A    between atoms: C_4  and  C_22 
REMARK    4  A    between atoms: C_5  and  C_6 
REMARK    5  A    between atoms: C_5  and  O_10 
REMARK    6  A    between atoms: C_6  and  C_12 
REMARK    7  A    between atoms: C_6  and  N_7 
REMARK    8  A    between atoms: N_9  and  C_22 
REMARK       I    between atoms: C_12  and  N_17 
REMARK    9  A    between atoms: N_17  and  C_18 
REMARK   10  A    between atoms: C_18  and  C_23 
ROOT
HETATM    1  H           1     -33.913  -1.420 -13.749  0.00  0.00     0.163 HD
HETATM    2  C           1     -35.904  -0.855 -13.710  0.00  0.00     0.251 C 
HETATM    3  N           1     -34.805  -1.554 -13.290  0.00  0.00    -0.345 N 
HETATM    4  O           1     -36.968  -1.016 -13.162  0.00  0.00    -0.271 OA
ENDROOT
BRANCH   3   5
HETATM    5  C           1     -34.918  -2.488 -12.186  0.00  0.00     0.185 C 
BRANCH   5   6
HETATM    6  C           1     -34.024  -3.692 -12.447  0.00  0.00     0.038 C 
BRANCH   6   7
HETATM    7  C           1     -34.747  -4.963 -12.020  0.00  0.00     0.030 C 
BRANCH   7   8
HETATM    8  C           1     -33.900  -5.710 -10.998  0.00  0.00     0.230 C 
BRANCH   8   9
HETATM    9  N           1     -34.399  -7.118 -10.867  0.00  0.00    -0.079 N 
HETATM   10  H           1     -33.793  -7.641 -10.196  0.00  0.00     0.274 HD
HETATM   11  H           1     -34.369  -7.587 -11.800  0.00  0.00     0.274 HD
HETATM   12  H           1     -35.383  -7.107 -10.513  0.00  0.00     0.274 HD
ENDBRANCH   8   9
ENDBRANCH   7   8
ENDBRANCH   6   7
ENDBRANCH   5   6
BRANCH   5  13
HETATM   13  C           1     -34.488  -1.809 -10.908  0.00  0.00     0.196 C 
HETATM   14  O           1     -35.336  -1.243 -10.186  0.00  0.00    -0.646 OA
HETATM   15  O           1     -33.284  -1.814 -10.573  0.00  0.00    -0.646 OA
ENDBRANCH   5  13
ENDBRANCH   3   5
BRANCH   2  16
HETATM   16  C           1     -35.787   0.116 -14.859  0.00  0.00     0.297 C 
BRANCH  16  17
HETATM   17  C           1     -36.065  -0.608 -16.169  0.00  0.00     0.206 C 
BRANCH  17  18
HETATM   18  O           1     -37.396  -1.048 -16.188  0.00  0.00    -0.398 OA
HETATM   19  H           1     -37.658  -1.088 -17.091  0.00  0.00     0.209 HD
ENDBRANCH  17  18
ENDBRANCH  16  17
BRANCH  16  20
HETATM   20  N           1     -34.400   0.688 -14.890  0.00  0.00    -0.064 N 
HETATM   21  H           1     -33.705  -0.072 -14.711  0.00  0.00     0.275 HD
HETATM   22  H           1     -34.219   1.111 -15.829  0.00  0.00     0.275 HD
HETATM   23  H           1     -34.310   1.424 -14.153  0.00  0.00     0.275 HD
ENDBRANCH  16  20
ENDBRANCH   2  16
TORSDOF 10
ENDMDL
MODEL 5
REMARK VINA RESULT:      -5.3     12.211     13.694
REMARK  10 active torsions:
REMARK  status: ('A' for Active; 'I' for Inactive)
REMARK    1  A    between atoms: C_3  and  C_4 
REMARK    2  A    between atoms: C_3  and  C_18 
REMARK    3  A    between atoms: C_4  and  C_22 
REMARK    4  A    between atoms: C_5  and  C_6 
REMARK    5  A    between atoms: C_5  and  O_10 
REMARK    6  A    between atoms: C_6  and  C_12 
REMARK    7  A    between atoms: C_6  and  N_7 
REMARK    8  A    between atoms: N_9  and  C_22 
REMARK       I    between atoms: C_12  and  N_17 
REMARK    9  A    between atoms: N_17  and  C_18 
REMARK   10  A    between atoms: C_18  and  C_23 
ROOT
HETATM    1  H           1     -22.195  -5.717  -9.071  0.00  0.00     0.163 HD
HETATM    2  C           1     -21.556  -4.403  -7.604  0.00  0.00     0.251 C 
HETATM    3  N           1     -22.138  -4.745  -8.795  0.00  0.00    -0.345 N 
HETATM    4  O           1     -21.489  -3.243  -7.275  0.00  0.00    -0.271 OA
ENDROOT
BRANCH   3   5
HETATM    5  C           1     -22.672  -3.713  -9.663  0.00  0.00     0.185 C 
BRANCH   5   6
HETATM    6  C           1     -22.100  -3.881 -11.063  0.00  0.00     0.038 C 
BRANCH   6   7
HETATM    7  C           1     -22.371  -2.624 -11.878  0.00  0.00     0.030 C 
BRANCH   7   8
HETATM    8  C           1     -22.939  -3.011 -13.237  0.00  0.00     0.230 C 
BRANCH   8   9
HETATM    9  N           1     -23.789  -4.239 -13.094  0.00  0.00    -0.079 N 
HETATM   10  H           1     -24.435  -4.122 -12.281  0.00  0.00     0.274 HD
HETATM   11  H           1     -23.176  -5.071 -12.934  0.00  0.00     0.274 HD
HETATM   12  H           1     -24.347  -4.381 -13.966  0.00  0.00     0.274 HD
ENDBRANCH   8   9
ENDBRANCH   7   8
ENDBRANCH   6   7
ENDBRANCH   5   6
BRANCH   5  13
HETATM   13  C           1     -24.176  -3.830  -9.716  0.00  0.00     0.196 C 
HETATM   14  O           1     -24.889  -2.841  -9.443  0.00  0.00    -0.646 OA
HETATM   15  O           1     -24.707  -4.916 -10.033  0.00  0.00    -0.646 OA
ENDBRANCH   5  13
ENDBRANCH   3   5
BRANCH   2  16
HETATM   16  C           1     -21.000  -5.477  -6.701  0.00  0.00     0.297 C 
BRANCH  16  17
HETATM   17  C           1     -22.068  -5.907  -5.703  0.00  0.00     0.206 C 
BRANCH  17  18
HETATM   18  O           1     -23.284  -5.287  -6.023  0.00  0.00    -0.398 OA
HETATM   19  H           1     -23.075  -4.443  -6.383  0.00  0.00     0.209 HD
ENDBRANCH  17  18
ENDBRANCH  16  17
BRANCH  16  20
HETATM   20  N           1     -19.812  -4.939  -5.960  0.00  0.00    -0.064 N 
HETATM   21  H           1     -19.573  -5.582  -5.170  0.00  0.00     0.275 HD
HETATM   22  H           1     -18.997  -4.872  -6.611  0.00  0.00     0.275 HD
HETATM   23  H           1     -20.037  -3.991  -5.583  0.00  0.00     0.275 HD
ENDBRANCH  16  20
ENDBRANCH   2  16
TORSDOF 10
ENDMDL
MODEL 6
REMARK VINA RESULT:      -5.3      2.812      3.799
REMARK  10 active torsions:
REMARK  status: ('A' for Active; 'I' for Inactive)
REMARK    1  A    between atoms: C_3  and  C_4 
REMARK    2  A    between atoms: C_3  and  C_18 
REMARK    3  A    between atoms: C_4  and  C_22 
REMARK    4  A    between atoms: C_5  and  C_6 
REMARK    5  A    between atoms: C_5  and  O_10 
REMARK    6  A    between atoms: C_6  and  C_12 
REMARK    7  A    between atoms: C_6  and  N_7 
REMARK    8  A    between atoms: N_9  and  C_22 
REMARK       I    between atoms: C_12  and  N_17 
REMARK    9  A    between atoms: N_17  and  C_18 
REMARK   10  A    between atoms: C_18  and  C_23 
ROOT
HETATM    1  H           1     -34.027  -0.144 -12.354  0.00  0.00     0.163 HD
HETATM    2  C           1     -35.782  -0.506 -13.390  0.00  0.00     0.251 C 
HETATM    3  N           1     -34.836  -0.747 -12.431  0.00  0.00    -0.345 N 
HETATM    4  O           1     -36.747  -1.227 -13.482  0.00  0.00    -0.271 OA
ENDROOT
BRANCH   3   5
HETATM    5  C           1     -34.992  -1.869 -11.525  0.00  0.00     0.185 C 
BRANCH   5   6
HETATM    6  C           1     -33.642  -2.217 -10.913  0.00  0.00     0.038 C 
BRANCH   6   7
HETATM    7  C           1     -33.108  -3.492 -11.552  0.00  0.00     0.030 C 
BRANCH   7   8
HETATM    8  C           1     -34.184  -4.107 -12.438  0.00  0.00     0.230 C 
BRANCH   8   9
HETATM    9  N           1     -33.710  -4.129 -13.861  0.00  0.00    -0.079 N 
HETATM   10  H           1     -33.937  -5.055 -14.288  0.00  0.00     0.274 HD
HETATM   11  H           1     -32.677  -3.978 -13.887  0.00  0.00     0.274 HD
HETATM   12  H           1     -34.187  -3.370 -14.399  0.00  0.00     0.274 HD
ENDBRANCH   8   9
ENDBRANCH   7   8
ENDBRANCH   6   7
ENDBRANCH   5   6
BRANCH   5  13
HETATM   13  C           1     -35.961  -1.498 -10.430  0.00  0.00     0.196 C 
HETATM   14  O           1     -37.058  -2.090 -10.340  0.00  0.00    -0.646 OA
HETATM   15  O           1     -35.667  -0.600  -9.612  0.00  0.00    -0.646 OA
ENDBRANCH   5  13
ENDBRANCH   3   5
BRANCH   2  16
HETATM   16  C           1     -35.620   0.661 -14.333  0.00  0.00     0.297 C 
BRANCH  16  17
HETATM   17  C           1     -36.599   0.520 -15.491  0.00  0.00     0.206 C 
BRANCH  17  18
HETATM   18  O           1     -36.898   1.789 -16.008  0.00  0.00    -0.398 OA
HETATM   19  H           1     -37.836   1.846 -16.064  0.00  0.00     0.209 HD
ENDBRANCH  17  18
ENDBRANCH  16  17
BRANCH  16  20
HETATM   20  N           1     -34.218   0.683 -14.865  0.00  0.00    -0.064 N 
HETATM   21  H           1     -33.565   0.297 -14.145  0.00  0.00     0.275 HD
HETATM   22  H           1     -34.166   0.098 -15.731  0.00  0.00     0.275 HD
HETATM   23  H           1     -33.946   1.666 -15.092  0.00  0.00     0.275 HD
ENDBRANCH  16  20
ENDBRANCH   2  16
TORSDOF 10
ENDMDL
MODEL 7
REMARK VINA RESULT:      -5.3      3.005      4.499
REMARK  10 active torsions:
REMARK  status: ('A' for Active; 'I' for Inactive)
REMARK    1  A    between atoms: C_3  and  C_4 
REMARK    2  A    between atoms: C_3  and  C_18 
REMARK    3  A    between atoms: C_4  and  C_22 
REMARK    4  A    between atoms: C_5  and  C_6 
REMARK    5  A    between atoms: C_5  and  O_10 
REMARK    6  A    between atoms: C_6  and  C_12 
REMARK    7  A    between atoms: C_6  and  N_7 
REMARK    8  A    between atoms: N_9  and  C_22 
REMARK       I    between atoms: C_12  and  N_17 
REMARK    9  A    between atoms: N_17  and  C_18 
REMARK   10  A    between atoms: C_18  and  C_23 
ROOT
HETATM    1  H           1     -35.263   0.657 -10.719  0.00  0.00     0.163 HD
HETATM    2  C           1     -37.081  -0.327 -10.636  0.00  0.00     0.251 C 
HETATM    3  N           1     -35.920   0.083 -11.232  0.00  0.00    -0.345 N 
HETATM    4  O           1     -37.866  -1.012 -11.248  0.00  0.00    -0.271 OA
ENDROOT
BRANCH   3   5
HETATM    5  C           1     -35.630  -0.306 -12.599  0.00  0.00     0.185 C 
BRANCH   5   6
HETATM    6  C           1     -34.830   0.795 -13.280  0.00  0.00     0.038 C 
BRANCH   6   7
HETATM    7  C           1     -34.930   0.636 -14.791  0.00  0.00     0.030 C 
BRANCH   7   8
HETATM    8  C           1     -36.397   0.599 -15.202  0.00  0.00     0.230 C 
BRANCH   8   9
HETATM    9  N           1     -36.702   1.781 -16.074  0.00  0.00    -0.079 N 
HETATM   10  H           1     -35.812   2.169 -16.459  0.00  0.00     0.274 HD
HETATM   11  H           1     -37.187   2.515 -15.510  0.00  0.00     0.274 HD
HETATM   12  H           1     -37.322   1.481 -16.862  0.00  0.00     0.274 HD
ENDBRANCH   8   9
ENDBRANCH   7   8
ENDBRANCH   6   7
ENDBRANCH   5   6
BRANCH   5  13
HETATM   13  C           1     -34.829  -1.585 -12.598  0.00  0.00     0.196 C 
HETATM   14  O           1     -34.074  -1.849 -11.638  0.00  0.00    -0.646 OA
HETATM   15  O           1     -34.921  -2.380 -13.558  0.00  0.00    -0.646 OA
ENDBRANCH   5  13
ENDBRANCH   3   5
BRANCH   2  16
HETATM   16  C           1     -37.383   0.077  -9.214  0.00  0.00     0.297 C 
BRANCH  16  17
HETATM   17  C           1     -38.037   1.453  -9.202  0.00  0.00     0.206 C 
BRANCH  17  18
HETATM   18  O           1     -37.451   2.242  -8.202  0.00  0.00    -0.398 OA
HETATM   19  H           1     -36.762   2.734  -8.612  0.00  0.00     0.209 HD
ENDBRANCH  17  18
ENDBRANCH  16  17
BRANCH  16  20
HETATM   20  N           1     -36.107   0.126  -8.427  0.00  0.00    -0.064 N 
HETATM   21  H           1     -35.842  -0.840  -8.129  0.00  0.00     0.275 HD
HETATM   22  H           1     -35.346   0.527  -9.023  0.00  0.00     0.275 HD
HETATM   23  H           1     -36.241   0.727  -7.583  0.00  0.00     0.275 HD
ENDBRANCH  16  20
ENDBRANCH   2  16
TORSDOF 10
ENDMDL
MODEL 8
REMARK VINA RESULT:      -5.3     11.142     12.593
REMARK  10 active torsions:
REMARK  status: ('A' for Active; 'I' for Inactive)
REMARK    1  A    between atoms: C_3  and  C_4 
REMARK    2  A    between atoms: C_3  and  C_18 
REMARK    3  A    between atoms: C_4  and  C_22 
REMARK    4  A    between atoms: C_5  and  C_6 
REMARK    5  A    between atoms: C_5  and  O_10 
REMARK    6  A    between atoms: C_6  and  C_12 
REMARK    7  A    between atoms: C_6  and  N_7 
REMARK    8  A    between atoms: N_9  and  C_22 
REMARK       I    between atoms: C_12  and  N_17 
REMARK    9  A    between atoms: N_17  and  C_18 
REMARK   10  A    between atoms: C_18  and  C_23 
ROOT
HETATM    1  H           1     -22.963  -2.125 -11.648  0.00  0.00     0.163 HD
HETATM    2  C           1     -23.746  -2.894 -13.402  0.00  0.00     0.251 C 
HETATM    3  N           1     -23.482  -2.890 -12.060  0.00  0.00    -0.345 N 
HETATM    4  O           1     -24.366  -3.808 -13.893  0.00  0.00    -0.271 OA
ENDROOT
BRANCH   3   5
HETATM    5  C           1     -23.946  -3.982 -11.226  0.00  0.00     0.185 C 
BRANCH   5   6
HETATM    6  C           1     -22.773  -4.887 -10.878  0.00  0.00     0.038 C 
BRANCH   6   7
HETATM    7  C           1     -21.477  -4.248 -11.359  0.00  0.00     0.030 C 
BRANCH   7   8
HETATM    8  C           1     -20.522  -4.086 -10.183  0.00  0.00     0.230 C 
BRANCH   8   9
HETATM    9  N           1     -21.149  -4.660  -8.946  0.00  0.00    -0.079 N 
HETATM   10  H           1     -22.135  -4.327  -8.870  0.00  0.00     0.274 HD
HETATM   11  H           1     -20.610  -4.349  -8.106  0.00  0.00     0.274 HD
HETATM   12  H           1     -21.135  -5.704  -9.002  0.00  0.00     0.274 HD
ENDBRANCH   8   9
ENDBRANCH   7   8
ENDBRANCH   6   7
ENDBRANCH   5   6
BRANCH   5  13
HETATM   13  C           1     -24.547  -3.425  -9.958  0.00  0.00     0.196 C 
HETATM   14  O           1     -25.739  -3.051  -9.944  0.00  0.00    -0.646 OA
HETATM   15  O           1     -23.852  -3.340  -8.923  0.00  0.00    -0.646 OA
ENDBRANCH   5  13
ENDBRANCH   3   5
BRANCH   2  16
HETATM   16  C           1     -23.264  -1.758 -14.270  0.00  0.00     0.297 C 
BRANCH  16  17
HETATM   17  C           1     -24.455  -0.932 -14.737  0.00  0.00     0.206 C 
BRANCH  17  18
HETATM   18  O           1     -24.010   0.097 -15.579  0.00  0.00    -0.398 OA
HETATM   19  H           1     -23.490  -0.306 -16.252  0.00  0.00     0.209 HD
ENDBRANCH  17  18
ENDBRANCH  16  17
BRANCH  16  20
HETATM   20  N           1     -22.543  -2.312 -15.464  0.00  0.00    -0.064 N 
HETATM   21  H           1     -23.180  -2.300 -16.293  0.00  0.00     0.275 HD
HETATM   22  H           1     -21.701  -1.726 -15.664  0.00  0.00     0.275 HD
HETATM   23  H           1     -22.246  -3.294 -15.266  0.00  0.00     0.275 HD
ENDBRANCH  16  20
ENDBRANCH   2  16
TORSDOF 10
ENDMDL
MODEL 9
REMARK VINA RESULT:      -5.1      1.752      4.899
REMARK  10 active torsions:
REMARK  status: ('A' for Active; 'I' for Inactive)
REMARK    1  A    between atoms: C_3  and  C_4 
REMARK    2  A    between atoms: C_3  and  C_18 
REMARK    3  A    between atoms: C_4  and  C_22 
REMARK    4  A    between atoms: C_5  and  C_6 
REMARK    5  A    between atoms: C_5  and  O_10 
REMARK    6  A    between atoms: C_6  and  C_12 
REMARK    7  A    between atoms: C_6  and  N_7 
REMARK    8  A    between atoms: N_9  and  C_22 
REMARK       I    between atoms: C_12  and  N_17 
REMARK    9  A    between atoms: N_17  and  C_18 
REMARK   10  A    between atoms: C_18  and  C_23 
ROOT
HETATM    1  H           1     -35.078  -1.771 -11.293  0.00  0.00     0.163 HD
HETATM    2  C           1     -34.567  -2.916 -12.939  0.00  0.00     0.251 C 
HETATM    3  N           1     -35.158  -1.862 -12.297  0.00  0.00    -0.345 N 
HETATM    4  O           1     -34.663  -3.024 -14.139  0.00  0.00    -0.271 OA
ENDROOT
BRANCH   3   5
HETATM    5  C           1     -35.899  -0.874 -13.057  0.00  0.00     0.185 C 
BRANCH   5   6
HETATM    6  C           1     -36.996  -0.281 -12.184  0.00  0.00     0.038 C 
BRANCH   6   7
HETATM    7  C           1     -36.845  -0.796 -10.759  0.00  0.00     0.030 C 
BRANCH   7   8
HETATM    8  C           1     -37.475   0.197  -9.790  0.00  0.00     0.230 C 
BRANCH   8   9
HETATM    9  N           1     -36.452   1.214  -9.380  0.00  0.00    -0.079 N 
HETATM   10  H           1     -36.226   1.092  -8.368  0.00  0.00     0.274 HD
HETATM   11  H           1     -36.831   2.175  -9.539  0.00  0.00     0.274 HD
HETATM   12  H           1     -35.584   1.084  -9.949  0.00  0.00     0.274 HD
ENDBRANCH   8   9
ENDBRANCH   7   8
ENDBRANCH   6   7
ENDBRANCH   5   6
BRANCH   5  13
HETATM   13  C           1     -34.963   0.223 -13.504  0.00  0.00     0.196 C 
HETATM   14  O           1     -34.611   0.295 -14.701  0.00  0.00    -0.646 OA
HETATM   15  O           1     -34.540   1.059 -12.676  0.00  0.00    -0.646 OA
ENDBRANCH   5  13
ENDBRANCH   3   5
BRANCH   2  16
HETATM   16  C           1     -33.795  -3.944 -12.149  0.00  0.00     0.297 C 
BRANCH  16  17
HETATM   17  C           1     -34.650  -5.191 -11.963  0.00  0.00     0.206 C 
BRANCH  17  18
HETATM   18  O           1     -35.096  -5.643 -13.213  0.00  0.00    -0.398 OA
HETATM   19  H           1     -35.110  -4.895 -13.785  0.00  0.00     0.209 HD
ENDBRANCH  17  18
ENDBRANCH  16  17
BRANCH  16  20
HETATM   20  N           1     -33.441  -3.378 -10.805  0.00  0.00    -0.064 N 
HETATM   21  H           1     -32.404  -3.264 -10.737  0.00  0.00     0.275 HD
HETATM   22  H           1     -33.902  -2.447 -10.688  0.00  0.00     0.275 HD
HETATM   23  H           1     -33.771  -4.027 -10.056  0.00  0.00     0.275 HD
ENDBRANCH  16  20
ENDBRANCH   2  16
TORSDOF 10
ENDMDL
