MODEL 1
REMARK VINA RESULT:      -7.8      0.000      0.000
REMARK  10 active torsions:
REMARK  status: ('A' for Active; 'I' for Inactive)
REMARK       I    between atoms: C_1  and  N_2 
REMARK    1  A    between atoms: C_1  and  C_21 
REMARK    2  A    between atoms: N_2  and  C_12 
REMARK    3  A    between atoms: N_7  and  C_21 
REMARK    4  A    between atoms: C_9  and  C_19 
REMARK    5  A    between atoms: C_12  and  C_13 
REMARK    6  A    between atoms: C_12  and  C_24 
REMARK    7  A    between atoms: C_13  and  C_18 
REMARK    8  A    between atoms: C_19  and  C_20 
REMARK    9  A    between atoms: C_20  and  C_21 
REMARK   10  A    between atoms: O_22  and  C_23 
ROOT
HETATM    1  C           1     -36.451  -0.368 -14.288  0.00  0.00     0.249 C 
HETATM    2  N           1     -35.416  -0.589 -13.421  0.00  0.00    -0.344 N 
HETATM    3  O           1     -37.544  -0.826 -14.055  0.00  0.00    -0.271 OA
HETATM    4  H           1     -34.500  -0.206 -13.616  0.00  0.00     0.163 HD
ENDROOT
BRANCH   2   5
HETATM    5  C           1     -35.632  -1.375 -12.220  0.00  0.00     0.189 C 
BRANCH   5   6
HETATM    6  C           1     -34.293  -1.658 -11.552  0.00  0.00     0.074 C 
BRANCH   6   7
HETATM    7  C           1     -34.131  -3.134 -11.364  0.00  0.00    -0.056 A 
HETATM    8  C           1     -35.176  -3.888 -10.831  0.00  0.00     0.010 A 
HETATM    9  C           1     -35.024  -5.264 -10.655  0.00  0.00     0.037 A 
HETATM   10  C           1     -33.827  -5.885 -11.012  0.00  0.00     0.065 A 
HETATM   11  C           1     -32.782  -5.130 -11.544  0.00  0.00     0.037 A 
HETATM   12  C           1     -32.933  -3.755 -11.720  0.00  0.00     0.010 A 
BRANCH  10  13
HETATM   13  O           1     -33.680  -7.221 -10.840  0.00  0.00    -0.361 OA
HETATM   14  H           1     -34.017  -7.450  -9.957  0.00  0.00     0.217 HD
ENDBRANCH  10  13
ENDBRANCH   6   7
ENDBRANCH   5   6
BRANCH   5  15
HETATM   15  C           1     -36.516  -0.607 -11.270  0.00  0.00     0.197 C 
HETATM   16  O           1     -37.614  -1.087 -10.912  0.00  0.00    -0.646 OA
HETATM   17  O           1     -36.152   0.509 -10.839  0.00  0.00    -0.646 OA
ENDBRANCH   5  15
ENDBRANCH   2   5
BRANCH   1  18
HETATM   18  C           1     -36.227   0.449 -15.537  0.00  0.00     0.275 C 
BRANCH  18  19
HETATM   19  N           1     -35.800   1.836 -15.156  0.00  0.00    -0.066 N 
HETATM   20  H           1     -34.764   1.925 -15.264  0.00  0.00     0.275 HD
HETATM   21  H           1     -36.276   2.530 -15.776  0.00  0.00     0.275 HD
HETATM   22  H           1     -36.062   2.019 -14.160  0.00  0.00     0.275 HD
ENDBRANCH  18  19
BRANCH  18  23
HETATM   23  C           1     -35.141  -0.200 -16.383  0.00  0.00     0.053 C 
BRANCH  23  24
HETATM   24  C           1     -35.599  -1.584 -16.824  0.00  0.00     0.115 C 
BRANCH  24  25
HETATM   25  C           1     -34.541  -2.602 -16.471  0.00  0.00     0.172 C 
HETATM   26  O           1     -34.595  -3.204 -15.377  0.00  0.00    -0.648 OA
HETATM   27  O           1     -33.614  -2.842 -17.272  0.00  0.00    -0.648 OA
ENDBRANCH  24  25
ENDBRANCH  23  24
ENDBRANCH  18  23
ENDBRANCH   1  18
TORSDOF 10
ENDMDL
MODEL 2
REMARK VINA RESULT:      -7.2     13.432     16.878
REMARK  10 active torsions:
REMARK  status: ('A' for Active; 'I' for Inactive)
REMARK       I    between atoms: C_1  and  N_2 
REMARK    1  A    between atoms: C_1  and  C_21 
REMARK    2  A    between atoms: N_2  and  C_12 
REMARK    3  A    between atoms: N_7  and  C_21 
REMARK    4  A    between atoms: C_9  and  C_19 
REMARK    5  A    between atoms: C_12  and  C_13 
REMARK    6  A    between atoms: C_12  and  C_24 
REMARK    7  A    between atoms: C_13  and  C_18 
REMARK    8  A    between atoms: C_19  and  C_20 
REMARK    9  A    between atoms: C_20  and  C_21 
REMARK   10  A    between atoms: O_22  and  C_23 
ROOT
HETATM    1  C           1     -21.479  -6.779  -5.556  0.00  0.00     0.249 C 
HETATM    2  N           1     -21.510  -5.443  -5.850  0.00  0.00    -0.344 N 
HETATM    3  O           1     -21.045  -7.566  -6.363  0.00  0.00    -0.271 OA
HETATM    4  H           1     -21.874  -4.783  -5.174  0.00  0.00     0.163 HD
ENDROOT
BRANCH   2   5
HETATM    5  C           1     -21.022  -4.971  -7.132  0.00  0.00     0.189 C 
BRANCH   5   6
HETATM    6  C           1     -21.853  -3.778  -7.583  0.00  0.00     0.074 C 
BRANCH   6   7
HETATM    7  C           1     -22.359  -4.018  -8.973  0.00  0.00    -0.056 A 
HETATM    8  C           1     -21.462  -4.084 -10.038  0.00  0.00     0.010 A 
HETATM    9  C           1     -21.933  -4.307 -11.333  0.00  0.00     0.037 A 
HETATM   10  C           1     -23.300  -4.463 -11.561  0.00  0.00     0.065 A 
HETATM   11  C           1     -24.196  -4.395 -10.494  0.00  0.00     0.037 A 
HETATM   12  C           1     -23.726  -4.173  -9.200  0.00  0.00     0.010 A 
BRANCH  10  13
HETATM   13  O           1     -23.757  -4.679 -12.817  0.00  0.00    -0.361 OA
HETATM   14  H           1     -24.550  -5.238 -12.757  0.00  0.00     0.217 HD
ENDBRANCH  10  13
ENDBRANCH   6   7
ENDBRANCH   5   6
BRANCH   5  15
HETATM   15  C           1     -19.578  -4.556  -6.998  0.00  0.00     0.197 C 
HETATM   16  O           1     -18.917  -4.253  -8.015  0.00  0.00    -0.646 OA
HETATM   17  O           1     -19.041  -4.515  -5.869  0.00  0.00    -0.646 OA
ENDBRANCH   5  15
ENDBRANCH   2   5
BRANCH   1  18
HETATM   18  C           1     -21.986  -7.270  -4.222  0.00  0.00     0.275 C 
BRANCH  18  19
HETATM   19  N           1     -21.690  -8.734  -4.084  0.00  0.00    -0.066 N 
HETATM   20  H           1     -21.624  -9.167  -5.033  0.00  0.00     0.275 HD
HETATM   21  H           1     -20.784  -8.860  -3.580  0.00  0.00     0.275 HD
HETATM   22  H           1     -22.458  -9.195  -3.544  0.00  0.00     0.275 HD
ENDBRANCH  18  19
BRANCH  18  23
HETATM   23  C           1     -21.295  -6.505  -3.101  0.00  0.00     0.053 C 
BRANCH  23  24
HETATM   24  C           1     -22.279  -6.273  -1.962  0.00  0.00     0.115 C 
BRANCH  24  25
HETATM   25  C           1     -22.086  -7.333  -0.905  0.00  0.00     0.172 C 
HETATM   26  O           1     -21.069  -8.058  -0.927  0.00  0.00    -0.648 OA
HETATM   27  O           1     -22.943  -7.484  -0.009  0.00  0.00    -0.648 OA
ENDBRANCH  24  25
ENDBRANCH  23  24
ENDBRANCH  18  23
ENDBRANCH   1  18
TORSDOF 10
ENDMDL
MODEL 3
REMARK VINA RESULT:      -7.0     12.850     15.079
REMARK  10 active torsions:
REMARK  status: ('A' for Active; 'I' for Inactive)
REMARK       I    between atoms: C_1  and  N_2 
REMARK    1  A    between atoms: C_1  and  C_21 
REMARK    2  A    between atoms: N_2  and  C_12 
REMARK    3  A    between atoms: N_7  and  C_21 
REMARK    4  A    between atoms: C_9  and  C_19 
REMARK    5  A    between atoms: C_12  and  C_13 
REMARK    6  A    between atoms: C_12  and  C_24 
REMARK    7  A    between atoms: C_13  and  C_18 
REMARK    8  A    between atoms: C_19  and  C_20 
REMARK    9  A    between atoms: C_20  and  C_21 
REMARK   10  A    between atoms: O_22  and  C_23 
ROOT
HETATM    1  C           1     -23.058  -4.525  -8.047  0.00  0.00     0.249 C 
HETATM    2  N           1     -21.752  -4.920  -8.153  0.00  0.00    -0.344 N 
HETATM    3  O           1     -23.557  -4.376  -6.957  0.00  0.00    -0.271 OA
HETATM    4  H           1     -21.334  -5.044  -9.066  0.00  0.00     0.163 HD
ENDROOT
BRANCH   2   5
HETATM    5  C           1     -20.967  -5.161  -6.957  0.00  0.00     0.189 C 
BRANCH   5   6
HETATM    6  C           1     -20.828  -6.660  -6.736  0.00  0.00     0.074 C 
BRANCH   6   7
HETATM    7  C           1     -20.892  -6.958  -5.270  0.00  0.00    -0.056 A 
HETATM    8  C           1     -20.298  -8.115  -4.767  0.00  0.00     0.010 A 
HETATM    9  C           1     -20.359  -8.392  -3.401  0.00  0.00     0.037 A 
HETATM   10  C           1     -21.013  -7.512  -2.539  0.00  0.00     0.065 A 
HETATM   11  C           1     -21.608  -6.356  -3.043  0.00  0.00     0.037 A 
HETATM   12  C           1     -21.547  -6.078  -4.408  0.00  0.00     0.010 A 
BRANCH  10  13
HETATM   13  O           1     -21.072  -7.782  -1.213  0.00  0.00    -0.361 OA
HETATM   14  H           1     -21.299  -8.721  -1.106  0.00  0.00     0.217 HD
ENDBRANCH  10  13
ENDBRANCH   6   7
ENDBRANCH   5   6
BRANCH   5  15
HETATM   15  C           1     -19.599  -4.547  -7.122  0.00  0.00     0.197 C 
HETATM   16  O           1     -19.249  -4.089  -8.232  0.00  0.00    -0.646 OA
HETATM   17  O           1     -18.816  -4.494  -6.150  0.00  0.00    -0.646 OA
ENDBRANCH   5  15
ENDBRANCH   2   5
BRANCH   1  18
HETATM   18  C           1     -23.875  -4.273  -9.291  0.00  0.00     0.275 C 
BRANCH  18  19
HETATM   19  N           1     -24.808  -3.123  -9.051  0.00  0.00    -0.066 N 
HETATM   20  H           1     -24.364  -2.445  -8.392  0.00  0.00     0.275 HD
HETATM   21  H           1     -25.012  -2.645  -9.957  0.00  0.00     0.275 HD
HETATM   22  H           1     -25.699  -3.479  -8.635  0.00  0.00     0.275 HD
ENDBRANCH  18  19
BRANCH  18  23
HETATM   23  C           1     -22.946  -3.939 -10.450  0.00  0.00     0.053 C 
BRANCH  23  24
HETATM   24  C           1     -23.448  -4.622 -11.716  0.00  0.00     0.115 C 
BRANCH  24  25
HETATM   25  C           1     -24.176  -3.617 -12.576  0.00  0.00     0.172 C 
HETATM   26  O           1     -25.120  -2.952 -12.096  0.00  0.00    -0.648 OA
HETATM   27  O           1     -23.836  -3.451 -13.766  0.00  0.00    -0.648 OA
ENDBRANCH  24  25
ENDBRANCH  23  24
ENDBRANCH  18  23
ENDBRANCH   1  18
TORSDOF 10
ENDMDL
MODEL 4
REMARK VINA RESULT:      -6.8      2.591      4.647
REMARK  10 active torsions:
REMARK  status: ('A' for Active; 'I' for Inactive)
REMARK       I    between atoms: C_1  and  N_2 
REMARK    1  A    between atoms: C_1  and  C_21 
REMARK    2  A    between atoms: N_2  and  C_12 
REMARK    3  A    between atoms: N_7  and  C_21 
REMARK    4  A    between atoms: C_9  and  C_19 
REMARK    5  A    between atoms: C_12  and  C_13 
REMARK    6  A    between atoms: C_12  and  C_24 
REMARK    7  A    between atoms: C_13  and  C_18 
REMARK    8  A    between atoms: C_19  and  C_20 
REMARK    9  A    between atoms: C_20  and  C_21 
REMARK   10  A    between atoms: O_22  and  C_23 
ROOT
HETATM    1  C           1     -35.945   0.451 -13.835  0.00  0.00     0.249 C 
HETATM    2  N           1     -36.821  -0.180 -12.994  0.00  0.00    -0.344 N 
HETATM    3  O           1     -34.975   1.014 -13.386  0.00  0.00    -0.271 OA
HETATM    4  H           1     -37.633  -0.652 -13.370  0.00  0.00     0.163 HD
ENDROOT
BRANCH   2   5
HETATM    5  C           1     -36.586  -0.171 -11.562  0.00  0.00     0.189 C 
BRANCH   5   6
HETATM    6  C           1     -37.921  -0.167 -10.830  0.00  0.00     0.074 C 
BRANCH   6   7
HETATM    7  C           1     -37.704   0.214  -9.398  0.00  0.00    -0.056 A 
HETATM    8  C           1     -37.191   1.471  -9.081  0.00  0.00     0.010 A 
HETATM    9  C           1     -36.988   1.825  -7.747  0.00  0.00     0.037 A 
HETATM   10  C           1     -37.298   0.922  -6.730  0.00  0.00     0.065 A 
HETATM   11  C           1     -37.811  -0.335  -7.048  0.00  0.00     0.037 A 
HETATM   12  C           1     -38.013  -0.690  -8.381  0.00  0.00     0.010 A 
BRANCH  10  13
HETATM   13  O           1     -37.101   1.267  -5.435  0.00  0.00    -0.361 OA
HETATM   14  H           1     -37.287   0.486  -4.885  0.00  0.00     0.217 HD
ENDBRANCH  10  13
ENDBRANCH   6   7
ENDBRANCH   5   6
BRANCH   5  15
HETATM   15  C           1     -35.802  -1.401 -11.175  0.00  0.00     0.197 C 
HETATM   16  O           1     -36.388  -2.495 -11.029  0.00  0.00    -0.646 OA
HETATM   17  O           1     -34.567  -1.325 -11.000  0.00  0.00    -0.646 OA
ENDBRANCH   5  15
ENDBRANCH   2   5
BRANCH   1  18
HETATM   18  C           1     -36.189   0.441 -15.324  0.00  0.00     0.275 C 
BRANCH  18  19
HETATM   19  N           1     -36.271   1.853 -15.825  0.00  0.00    -0.066 N 
HETATM   20  H           1     -35.312   2.268 -15.859  0.00  0.00     0.275 HD
HETATM   21  H           1     -36.687   1.860 -16.783  0.00  0.00     0.275 HD
HETATM   22  H           1     -36.870   2.417 -15.179  0.00  0.00     0.275 HD
ENDBRANCH  18  19
BRANCH  18  23
HETATM   23  C           1     -35.044  -0.278 -16.023  0.00  0.00     0.053 C 
BRANCH  23  24
HETATM   24  C           1     -35.561  -1.566 -16.651  0.00  0.00     0.115 C 
BRANCH  24  25
HETATM   25  C           1     -34.492  -2.629 -16.574  0.00  0.00     0.172 C 
HETATM   26  O           1     -34.579  -3.542 -15.724  0.00  0.00    -0.648 OA
HETATM   27  O           1     -33.521  -2.597 -17.359  0.00  0.00    -0.648 OA
ENDBRANCH  24  25
ENDBRANCH  23  24
ENDBRANCH  18  23
ENDBRANCH   1  18
TORSDOF 10
ENDMDL
MODEL 5
REMARK VINA RESULT:      -6.8      3.272      4.419
REMARK  10 active torsions:
REMARK  status: ('A' for Active; 'I' for Inactive)
REMARK       I    between atoms: C_1  and  N_2 
REMARK    1  A    between atoms: C_1  and  C_21 
REMARK    2  A    between atoms: N_2  and  C_12 
REMARK    3  A    between atoms: N_7  and  C_21 
REMARK    4  A    between atoms: C_9  and  C_19 
REMARK    5  A    between atoms: C_12  and  C_13 
REMARK    6  A    between atoms: C_12  and  C_24 
REMARK    7  A    between atoms: C_13  and  C_18 
REMARK    8  A    between atoms: C_19  and  C_20 
REMARK    9  A    between atoms: C_20  and  C_21 
REMARK   10  A    between atoms: O_22  and  C_23 
ROOT
HETATM    1  C           1     -33.953  -4.516 -15.415  0.00  0.00     0.249 C 
HETATM    2  N           1     -33.468  -3.895 -14.296  0.00  0.00    -0.344 N 
HETATM    3  O           1     -35.026  -5.071 -15.382  0.00  0.00    -0.271 OA
HETATM    4  H           1     -32.570  -3.430 -14.324  0.00  0.00     0.163 HD
ENDROOT
BRANCH   2   5
HETATM    5  C           1     -34.243  -3.903 -13.069  0.00  0.00     0.189 C 
BRANCH   5   6
HETATM    6  C           1     -33.308  -4.080 -11.881  0.00  0.00     0.074 C 
BRANCH   6   7
HETATM    7  C           1     -33.626  -5.366 -11.183  0.00  0.00    -0.056 A 
HETATM    8  C           1     -32.695  -6.405 -11.177  0.00  0.00     0.010 A 
HETATM    9  C           1     -32.992  -7.603 -10.527  0.00  0.00     0.037 A 
HETATM   10  C           1     -34.219  -7.762  -9.883  0.00  0.00     0.065 A 
HETATM   11  C           1     -35.150  -6.723  -9.890  0.00  0.00     0.037 A 
HETATM   12  C           1     -34.853  -5.525 -10.539  0.00  0.00     0.010 A 
BRANCH  10  13
HETATM   13  O           1     -34.507  -8.926  -9.252  0.00  0.00    -0.361 OA
HETATM   14  H           1     -34.638  -9.611  -9.930  0.00  0.00     0.217 HD
ENDBRANCH  10  13
ENDBRANCH   6   7
ENDBRANCH   5   6
BRANCH   5  15
HETATM   15  C           1     -34.985  -2.596 -12.936  0.00  0.00     0.197 C 
HETATM   16  O           1     -35.738  -2.402 -11.957  0.00  0.00    -0.646 OA
HETATM   17  O           1     -34.846  -1.707 -13.804  0.00  0.00    -0.646 OA
ENDBRANCH   5  15
ENDBRANCH   2   5
BRANCH   1  18
HETATM   18  C           1     -33.148  -4.508 -16.692  0.00  0.00     0.275 C 
BRANCH  18  19
HETATM   19  N           1     -33.271  -3.166 -17.351  0.00  0.00    -0.066 N 
HETATM   20  H           1     -33.535  -2.450 -16.637  0.00  0.00     0.275 HD
HETATM   21  H           1     -32.357  -2.905 -17.784  0.00  0.00     0.275 HD
HETATM   22  H           1     -34.009  -3.208 -18.090  0.00  0.00     0.275 HD
ENDBRANCH  18  19
BRANCH  18  23
HETATM   23  C           1     -31.685  -4.783 -16.373  0.00  0.00     0.053 C 
BRANCH  23  24
HETATM   24  C           1     -31.203  -5.977 -17.185  0.00  0.00     0.115 C 
BRANCH  24  25
HETATM   25  C           1     -29.849  -6.417 -16.682  0.00  0.00     0.172 C 
HETATM   26  O           1     -29.287  -7.411 -17.190  0.00  0.00    -0.648 OA
HETATM   27  O           1     -29.292  -5.787 -15.758  0.00  0.00    -0.648 OA
ENDBRANCH  24  25
ENDBRANCH  23  24
ENDBRANCH  18  23
ENDBRANCH   1  18
TORSDOF 10
ENDMDL
MODEL 6
REMARK VINA RESULT:      -6.7     14.201     16.924
REMARK  10 active torsions:
REMARK  status: ('A' for Active; 'I' for Inactive)
REMARK       I    between atoms: C_1  and  N_2 
REMARK    1  A    between atoms: C_1  and  C_21 
REMARK    2  A    between atoms: N_2  and  C_12 
REMARK    3  A    between atoms: N_7  and  C_21 
REMARK    4  A    between atoms: C_9  and  C_19 
REMARK    5  A    between atoms: C_12  and  C_13 
REMARK    6  A    between atoms: C_12  and  C_24 
REMARK    7  A    between atoms: C_13  and  C_18 
REMARK    8  A    between atoms: C_19  and  C_20 
REMARK    9  A    between atoms: C_20  and  C_21 
REMARK   10  A    between atoms: O_22  and  C_23 
ROOT
HETATM    1  C           1     -20.557  -5.419  -6.164  0.00  0.00     0.249 C 
HETATM    2  N           1     -20.426  -6.780  -6.205  0.00  0.00    -0.344 N 
HETATM    3  O           1     -20.498  -4.837  -5.107  0.00  0.00    -0.271 OA
HETATM    4  H           1     -20.476  -7.268  -7.090  0.00  0.00     0.163 HD
ENDROOT
BRANCH   2   5
HETATM    5  C           1     -20.218  -7.526  -4.978  0.00  0.00     0.189 C 
BRANCH   5   6
HETATM    6  C           1     -21.513  -8.220  -4.580  0.00  0.00     0.074 C 
BRANCH   6   7
HETATM    7  C           1     -21.718  -8.087  -3.102  0.00  0.00    -0.056 A 
HETATM    8  C           1     -21.696  -9.221  -2.291  0.00  0.00     0.010 A 
HETATM    9  C           1     -21.888  -9.097  -0.915  0.00  0.00     0.037 A 
HETATM   10  C           1     -22.102  -7.840  -0.350  0.00  0.00     0.065 A 
HETATM   11  C           1     -22.125  -6.706  -1.163  0.00  0.00     0.037 A 
HETATM   12  C           1     -21.933  -6.829  -2.539  0.00  0.00     0.010 A 
BRANCH  10  13
HETATM   13  O           1     -22.289  -7.720   0.986  0.00  0.00    -0.361 OA
HETATM   14  H           1     -21.646  -8.297   1.432  0.00  0.00     0.217 HD
ENDBRANCH  10  13
ENDBRANCH   6   7
ENDBRANCH   5   6
BRANCH   5  15
HETATM   15  C           1     -19.139  -8.558  -5.194  0.00  0.00     0.197 C 
HETATM   16  O           1     -18.777  -9.291  -4.249  0.00  0.00    -0.646 OA
HETATM   17  O           1     -18.608  -8.681  -6.319  0.00  0.00    -0.646 OA
ENDBRANCH   5  15
ENDBRANCH   2   5
BRANCH   1  18
HETATM   18  C           1     -20.774  -4.643  -7.441  0.00  0.00     0.275 C 
BRANCH  18  19
HETATM   19  N           1     -20.149  -5.383  -8.586  0.00  0.00    -0.066 N 
HETATM   20  H           1     -19.130  -5.520  -8.399  0.00  0.00     0.275 HD
HETATM   21  H           1     -20.611  -6.314  -8.693  0.00  0.00     0.275 HD
HETATM   22  H           1     -20.269  -4.830  -9.465  0.00  0.00     0.275 HD
ENDBRANCH  18  19
BRANCH  18  23
HETATM   23  C           1     -22.266  -4.485  -7.693  0.00  0.00     0.053 C 
BRANCH  23  24
HETATM   24  C           1     -22.485  -3.610  -8.920  0.00  0.00     0.115 C 
BRANCH  24  25
HETATM   25  C           1     -23.850  -3.888  -9.502  0.00  0.00     0.172 C 
HETATM   26  O           1     -24.086  -4.992 -10.039  0.00  0.00    -0.648 OA
HETATM   27  O           1     -24.742  -3.016  -9.446  0.00  0.00    -0.648 OA
ENDBRANCH  24  25
ENDBRANCH  23  24
ENDBRANCH  18  23
ENDBRANCH   1  18
TORSDOF 10
ENDMDL
MODEL 7
REMARK VINA RESULT:      -6.6     14.583     17.255
REMARK  10 active torsions:
REMARK  status: ('A' for Active; 'I' for Inactive)
REMARK       I    between atoms: C_1  and  N_2 
REMARK    1  A    between atoms: C_1  and  C_21 
REMARK    2  A    between atoms: N_2  and  C_12 
REMARK    3  A    between atoms: N_7  and  C_21 
REMARK    4  A    between atoms: C_9  and  C_19 
REMARK    5  A    between atoms: C_12  and  C_13 
REMARK    6  A    between atoms: C_12  and  C_24 
REMARK    7  A    between atoms: C_13  and  C_18 
REMARK    8  A    between atoms: C_19  and  C_20 
REMARK    9  A    between atoms: C_20  and  C_21 
REMARK   10  A    between atoms: O_22  and  C_23 
ROOT
HETATM    1  C           1     -21.043  -5.841  -6.189  0.00  0.00     0.249 C 
HETATM    2  N           1     -20.820  -7.190  -6.125  0.00  0.00    -0.344 N 
HETATM    3  O           1     -20.897  -5.156  -5.205  0.00  0.00    -0.271 OA
HETATM    4  H           1     -20.943  -7.763  -6.950  0.00  0.00     0.163 HD
ENDROOT
BRANCH   2   5
HETATM    5  C           1     -20.409  -7.798  -4.874  0.00  0.00     0.189 C 
BRANCH   5   6
HETATM    6  C           1     -21.542  -8.657  -4.332  0.00  0.00     0.074 C 
BRANCH   6   7
HETATM    7  C           1     -21.689  -8.420  -2.860  0.00  0.00    -0.056 A 
HETATM    8  C           1     -21.915  -7.130  -2.382  0.00  0.00     0.010 A 
HETATM    9  C           1     -22.051  -6.909  -1.011  0.00  0.00     0.037 A 
HETATM   10  C           1     -21.961  -7.978  -0.119  0.00  0.00     0.065 A 
HETATM   11  C           1     -21.734  -9.268  -0.599  0.00  0.00     0.037 A 
HETATM   12  C           1     -21.598  -9.490  -1.969  0.00  0.00     0.010 A 
BRANCH  10  13
HETATM   13  O           1     -22.093  -7.764   1.212  0.00  0.00    -0.361 OA
HETATM   14  H           1     -22.716  -7.028   1.337  0.00  0.00     0.217 HD
ENDBRANCH  10  13
ENDBRANCH   6   7
ENDBRANCH   5   6
BRANCH   5  15
HETATM   15  C           1     -19.193  -8.659  -5.111  0.00  0.00     0.197 C 
HETATM   16  O           1     -18.685  -8.724  -6.251  0.00  0.00    -0.646 OA
HETATM   17  O           1     -18.691  -9.306  -4.166  0.00  0.00    -0.646 OA
ENDBRANCH   5  15
ENDBRANCH   2   5
BRANCH   1  18
HETATM   18  C           1     -21.471  -5.208  -7.491  0.00  0.00     0.275 C 
BRANCH  18  19
HETATM   19  N           1     -22.629  -4.287  -7.241  0.00  0.00    -0.066 N 
HETATM   20  H           1     -23.367  -4.794  -6.701  0.00  0.00     0.275 HD
HETATM   21  H           1     -22.304  -3.459  -6.693  0.00  0.00     0.275 HD
HETATM   22  H           1     -23.024  -3.969  -8.155  0.00  0.00     0.275 HD
ENDBRANCH  18  19
BRANCH  18  23
HETATM   23  C           1     -20.311  -4.415  -8.077  0.00  0.00     0.053 C 
BRANCH  23  24
HETATM   24  C           1     -20.122  -4.796  -9.540  0.00  0.00     0.115 C 
BRANCH  24  25
HETATM   25  C           1     -20.948  -3.880 -10.410  0.00  0.00     0.172 C 
HETATM   26  O           1     -20.383  -3.052 -11.157  0.00  0.00    -0.648 OA
HETATM   27  O           1     -22.195  -3.950 -10.383  0.00  0.00    -0.648 OA
ENDBRANCH  24  25
ENDBRANCH  23  24
ENDBRANCH  18  23
ENDBRANCH   1  18
TORSDOF 10
ENDMDL
MODEL 8
REMARK VINA RESULT:      -6.6      8.793     11.199
REMARK  10 active torsions:
REMARK  status: ('A' for Active; 'I' for Inactive)
REMARK       I    between atoms: C_1  and  N_2 
REMARK    1  A    between atoms: C_1  and  C_21 
REMARK    2  A    between atoms: N_2  and  C_12 
REMARK    3  A    between atoms: N_7  and  C_21 
REMARK    4  A    between atoms: C_9  and  C_19 
REMARK    5  A    between atoms: C_12  and  C_13 
REMARK    6  A    between atoms: C_12  and  C_24 
REMARK    7  A    between atoms: C_13  and  C_18 
REMARK    8  A    between atoms: C_19  and  C_20 
REMARK    9  A    between atoms: C_20  and  C_21 
REMARK   10  A    between atoms: O_22  and  C_23 
ROOT
HETATM    1  C           1     -28.979  -6.823 -17.138  0.00  0.00     0.249 C 
HETATM    2  N           1     -27.805  -6.504 -16.512  0.00  0.00    -0.344 N 
HETATM    3  O           1     -28.962  -7.428 -18.183  0.00  0.00    -0.271 OA
HETATM    4  H           1     -27.820  -5.997 -15.636  0.00  0.00     0.163 HD
ENDROOT
BRANCH   2   5
HETATM    5  C           1     -26.539  -6.891 -17.104  0.00  0.00     0.189 C 
BRANCH   5   6
HETATM    6  C           1     -26.216  -5.959 -18.263  0.00  0.00     0.074 C 
BRANCH   6   7
HETATM    7  C           1     -25.590  -6.742 -19.376  0.00  0.00    -0.056 A 
HETATM    8  C           1     -26.358  -7.127 -20.474  0.00  0.00     0.010 A 
HETATM    9  C           1     -25.775  -7.858 -21.510  0.00  0.00     0.037 A 
HETATM   10  C           1     -24.426  -8.204 -21.447  0.00  0.00     0.065 A 
HETATM   11  C           1     -23.659  -7.819 -20.347  0.00  0.00     0.037 A 
HETATM   12  C           1     -24.241  -7.089 -19.311  0.00  0.00     0.010 A 
BRANCH  10  13
HETATM   13  O           1     -23.860  -8.913 -22.453  0.00  0.00    -0.361 OA
HETATM   14  H           1     -24.387  -8.767 -23.257  0.00  0.00     0.217 HD
ENDBRANCH  10  13
ENDBRANCH   6   7
ENDBRANCH   5   6
BRANCH   5  15
HETATM   15  C           1     -25.450  -6.799 -16.065  0.00  0.00     0.197 C 
HETATM   16  O           1     -25.251  -5.722 -15.461  0.00  0.00    -0.646 OA
HETATM   17  O           1     -24.746  -7.799 -15.806  0.00  0.00    -0.646 OA
ENDBRANCH   5  15
ENDBRANCH   2   5
BRANCH   1  18
HETATM   18  C           1     -30.297  -6.421 -16.522  0.00  0.00     0.275 C 
BRANCH  18  19
HETATM   19  N           1     -30.043  -5.556 -15.322  0.00  0.00    -0.066 N 
HETATM   20  H           1     -30.754  -4.791 -15.287  0.00  0.00     0.275 HD
HETATM   21  H           1     -30.111  -6.134 -14.455  0.00  0.00     0.275 HD
HETATM   22  H           1     -29.087  -5.139 -15.390  0.00  0.00     0.275 HD
ENDBRANCH  18  19
BRANCH  18  23
HETATM   23  C           1     -31.120  -5.645 -17.541  0.00  0.00     0.053 C 
BRANCH  23  24
HETATM   24  C           1     -32.247  -4.907 -16.829  0.00  0.00     0.115 C 
BRANCH  24  25
HETATM   25  C           1     -32.297  -3.478 -17.312  0.00  0.00     0.172 C 
HETATM   26  O           1     -33.379  -2.852 -17.298  0.00  0.00    -0.648 OA
HETATM   27  O           1     -31.258  -2.921 -17.724  0.00  0.00    -0.648 OA
ENDBRANCH  24  25
ENDBRANCH  23  24
ENDBRANCH  18  23
ENDBRANCH   1  18
TORSDOF 10
ENDMDL
MODEL 9
REMARK VINA RESULT:      -6.5     13.316     15.552
REMARK  10 active torsions:
REMARK  status: ('A' for Active; 'I' for Inactive)
REMARK       I    between atoms: C_1  and  N_2 
REMARK    1  A    between atoms: C_1  and  C_21 
REMARK    2  A    between atoms: N_2  and  C_12 
REMARK    3  A    between atoms: N_7  and  C_21 
REMARK    4  A    between atoms: C_9  and  C_19 
REMARK    5  A    between atoms: C_12  and  C_13 
REMARK    6  A    between atoms: C_12  and  C_24 
REMARK    7  A    between atoms: C_13  and  C_18 
REMARK    8  A    between atoms: C_19  and  C_20 
REMARK    9  A    between atoms: C_20  and  C_21 
REMARK   10  A    between atoms: O_22  and  C_23 
ROOT
HETATM    1  C           1     -22.929  -4.672  -8.391  0.00  0.00     0.249 C 
HETATM    2  N           1     -21.694  -5.251  -8.282  0.00  0.00    -0.344 N 
HETATM    3  O           1     -23.471  -4.216  -7.413  0.00  0.00    -0.271 OA
HETATM    4  H           1     -21.241  -5.634  -9.102  0.00  0.00     0.163 HD
ENDROOT
BRANCH   2   5
HETATM    5  C           1     -21.036  -5.318  -6.991  0.00  0.00     0.189 C 
BRANCH   5   6
HETATM    6  C           1     -20.684  -6.765  -6.676  0.00  0.00     0.074 C 
BRANCH   6   7
HETATM    7  C           1     -20.860  -7.014  -5.210  0.00  0.00    -0.056 A 
HETATM    8  C           1     -21.675  -6.173  -4.453  0.00  0.00     0.010 A 
HETATM    9  C           1     -21.838  -6.405  -3.087  0.00  0.00     0.037 A 
HETATM   10  C           1     -21.186  -7.478  -2.479  0.00  0.00     0.065 A 
HETATM   11  C           1     -20.370  -8.318  -3.236  0.00  0.00     0.037 A 
HETATM   12  C           1     -20.207  -8.086  -4.602  0.00  0.00     0.010 A 
BRANCH  10  13
HETATM   13  O           1     -21.344  -7.703  -1.152  0.00  0.00    -0.361 OA
HETATM   14  H           1     -20.463  -7.831  -0.762  0.00  0.00     0.217 HD
ENDBRANCH  10  13
ENDBRANCH   6   7
ENDBRANCH   5   6
BRANCH   5  15
HETATM   15  C           1     -19.776  -4.489  -7.027  0.00  0.00     0.197 C 
HETATM   16  O           1     -19.534  -3.763  -8.016  0.00  0.00    -0.646 OA
HETATM   17  O           1     -18.974  -4.528  -6.069  0.00  0.00    -0.646 OA
ENDBRANCH   5  15
ENDBRANCH   2   5
BRANCH   1  18
HETATM   18  C           1     -23.615  -4.602  -9.734  0.00  0.00     0.275 C 
BRANCH  18  19
HETATM   19  N           1     -25.094  -4.459  -9.532  0.00  0.00    -0.066 N 
HETATM   20  H           1     -25.319  -3.469  -9.286  0.00  0.00     0.275 HD
HETATM   21  H           1     -25.593  -4.721 -10.412  0.00  0.00     0.275 HD
HETATM   22  H           1     -25.402  -5.088  -8.755  0.00  0.00     0.275 HD
ENDBRANCH  18  19
BRANCH  18  23
HETATM   23  C           1     -23.091  -3.403 -10.511  0.00  0.00     0.053 C 
BRANCH  23  24
HETATM   24  C           1     -22.221  -3.885 -11.665  0.00  0.00     0.115 C 
BRANCH  24  25
HETATM   25  C           1     -20.765  -3.742 -11.292  0.00  0.00     0.172 C 
HETATM   26  O           1     -20.113  -4.744 -10.927  0.00  0.00    -0.648 OA
HETATM   27  O           1     -20.213  -2.623 -11.348  0.00  0.00    -0.648 OA
ENDBRANCH  24  25
ENDBRANCH  23  24
ENDBRANCH  18  23
ENDBRANCH   1  18
TORSDOF 10
ENDMDL
