MODEL 1
REMARK VINA RESULT:      -6.0      0.000      0.000
REMARK  6 active torsions:
REMARK  status: ('A' for Active; 'I' for Inactive)
REMARK       I    between atoms: C_3  and  N_11 
REMARK    1  A    between atoms: C_3  and  C_7 
REMARK    2  A    between atoms: C_7  and  C_8 
REMARK    3  A    between atoms: C_7  and  N_14 
REMARK    4  A    between atoms: C_8  and  C_16 
REMARK    5  A    between atoms: C_10  and  C_13 
REMARK    6  A    between atoms: C_10  and  N_11 
ROOT
HETATM    1  C           1     -22.731  -2.810 -12.348  0.00  0.00     0.284 C 
ENDROOT
BRANCH   1   2
HETATM    2  C           1     -23.300  -3.179 -11.000  0.00  0.00     0.249 C 
HETATM    3  N           1     -22.482  -3.685 -10.026  0.00  0.00    -0.349 N 
HETATM    4  H           1     -21.495  -3.811 -10.210  0.00  0.00     0.163 HD
HETATM    5  O           1     -24.479  -3.028 -10.780  0.00  0.00    -0.271 OA
BRANCH   3   6
HETATM    6  C           1     -23.029  -4.039  -8.731  0.00  0.00     0.235 C 
BRANCH   6   7
HETATM    7  C           1     -21.902  -4.311  -7.765  0.00  0.00     0.191 C 
HETATM    8  O           1     -21.411  -3.376  -7.098  0.00  0.00    -0.647 OA
HETATM    9  O           1     -21.461  -5.473  -7.631  0.00  0.00    -0.647 OA
ENDBRANCH   6   7
ENDBRANCH   3   6
ENDBRANCH   1   2
BRANCH   1  10
HETATM   10  C           1     -23.800  -2.991 -13.418  0.00  0.00     0.155 C 
BRANCH  10  11
HETATM   11  C           1     -23.431  -2.186 -14.640  0.00  0.00     0.175 C 
HETATM   12  O           1     -22.476  -2.548 -15.361  0.00  0.00    -0.648 OA
HETATM   13  O           1     -24.079  -1.158 -14.931  0.00  0.00    -0.648 OA
ENDBRANCH  10  11
ENDBRANCH   1  10
BRANCH   1  14
HETATM   14  N           1     -21.562  -3.696 -12.656  0.00  0.00    -0.066 N 
HETATM   15  H           1     -21.418  -4.369 -11.870  0.00  0.00     0.275 HD
HETATM   16  H           1     -21.749  -4.226 -13.537  0.00  0.00     0.275 HD
HETATM   17  H           1     -20.704  -3.112 -12.776  0.00  0.00     0.275 HD
ENDBRANCH   1  14
TORSDOF 6
ENDMDL
MODEL 2
REMARK VINA RESULT:      -6.0      1.841      5.331
REMARK  6 active torsions:
REMARK  status: ('A' for Active; 'I' for Inactive)
REMARK       I    between atoms: C_3  and  N_11 
REMARK    1  A    between atoms: C_3  and  C_7 
REMARK    2  A    between atoms: C_7  and  C_8 
REMARK    3  A    between atoms: C_7  and  N_14 
REMARK    4  A    between atoms: C_8  and  C_16 
REMARK    5  A    between atoms: C_10  and  C_13 
REMARK    6  A    between atoms: C_10  and  N_11 
ROOT
HETATM    1  C           1     -23.174  -3.593  -9.278  0.00  0.00     0.284 C 
ENDROOT
BRANCH   1   2
HETATM    2  C           1     -24.104  -3.315 -10.434  0.00  0.00     0.249 C 
HETATM    3  N           1     -23.597  -3.134 -11.692  0.00  0.00    -0.349 N 
HETATM    4  H           1     -22.598  -3.187 -11.848  0.00  0.00     0.163 HD
HETATM    5  O           1     -25.296  -3.253 -10.248  0.00  0.00    -0.271 OA
BRANCH   3   6
HETATM    6  C           1     -24.490  -2.867 -12.803  0.00  0.00     0.235 C 
BRANCH   6   7
HETATM    7  C           1     -23.694  -2.363 -13.981  0.00  0.00     0.191 C 
HETATM    8  O           1     -24.140  -1.431 -14.684  0.00  0.00    -0.647 OA
HETATM    9  O           1     -22.588  -2.878 -14.253  0.00  0.00    -0.647 OA
ENDBRANCH   6   7
ENDBRANCH   3   6
ENDBRANCH   1   2
BRANCH   1  10
HETATM   10  C           1     -22.202  -4.702  -9.662  0.00  0.00     0.155 C 
BRANCH  10  11
HETATM   11  C           1     -20.824  -4.119  -9.854  0.00  0.00     0.175 C 
HETATM   12  O           1     -20.556  -3.477 -10.893  0.00  0.00    -0.648 OA
HETATM   13  O           1     -19.951  -4.276  -8.974  0.00  0.00    -0.648 OA
ENDBRANCH  10  11
ENDBRANCH   1  10
BRANCH   1  14
HETATM   14  N           1     -23.975  -4.023  -8.086  0.00  0.00    -0.066 N 
HETATM   15  H           1     -24.145  -5.053  -8.132  0.00  0.00     0.275 HD
HETATM   16  H           1     -23.448  -3.796  -7.212  0.00  0.00     0.275 HD
HETATM   17  H           1     -24.891  -3.519  -8.081  0.00  0.00     0.275 HD
ENDBRANCH   1  14
TORSDOF 6
ENDMDL
MODEL 3
REMARK VINA RESULT:      -5.9     11.996     13.998
REMARK  6 active torsions:
REMARK  status: ('A' for Active; 'I' for Inactive)
REMARK       I    between atoms: C_3  and  N_11 
REMARK    1  A    between atoms: C_3  and  C_7 
REMARK    2  A    between atoms: C_7  and  C_8 
REMARK    3  A    between atoms: C_7  and  N_14 
REMARK    4  A    between atoms: C_8  and  C_16 
REMARK    5  A    between atoms: C_10  and  C_13 
REMARK    6  A    between atoms: C_10  and  N_11 
ROOT
HETATM    1  C           1     -34.521  -1.503 -12.072  0.00  0.00     0.284 C 
ENDROOT
BRANCH   1   2
HETATM    2  C           1     -35.439  -0.948 -13.133  0.00  0.00     0.249 C 
HETATM    3  N           1     -34.917  -0.298 -14.219  0.00  0.00    -0.349 N 
HETATM    4  H           1     -33.915  -0.190 -14.311  0.00  0.00     0.163 HD
HETATM    5  O           1     -36.636  -1.077 -13.025  0.00  0.00    -0.271 OA
BRANCH   3   6
HETATM    6  C           1     -35.800   0.235 -15.239  0.00  0.00     0.235 C 
BRANCH   6   7
HETATM    7  C           1     -35.908  -0.749 -16.377  0.00  0.00     0.191 C 
HETATM    8  O           1     -34.965  -1.532 -16.619  0.00  0.00    -0.647 OA
HETATM    9  O           1     -36.943  -0.781 -17.078  0.00  0.00    -0.647 OA
ENDBRANCH   6   7
ENDBRANCH   3   6
ENDBRANCH   1   2
BRANCH   1  10
HETATM   10  C           1     -34.320  -2.996 -12.304  0.00  0.00     0.155 C 
BRANCH  10  11
HETATM   11  C           1     -34.754  -3.758 -11.076  0.00  0.00     0.175 C 
HETATM   12  O           1     -33.897  -4.179 -10.268  0.00  0.00    -0.648 OA
HETATM   13  O           1     -35.967  -3.968 -10.867  0.00  0.00    -0.648 OA
ENDBRANCH  10  11
ENDBRANCH   1  10
BRANCH   1  14
HETATM   14  N           1     -35.132  -1.286 -10.720  0.00  0.00    -0.066 N 
HETATM   15  H           1     -34.395  -1.380  -9.985  0.00  0.00     0.275 HD
HETATM   16  H           1     -35.547  -0.328 -10.676  0.00  0.00     0.275 HD
HETATM   17  H           1     -35.880  -1.998 -10.557  0.00  0.00     0.275 HD
ENDBRANCH   1  14
TORSDOF 6
ENDMDL
MODEL 4
REMARK VINA RESULT:      -5.8      2.107      2.728
REMARK  6 active torsions:
REMARK  status: ('A' for Active; 'I' for Inactive)
REMARK       I    between atoms: C_3  and  N_11 
REMARK    1  A    between atoms: C_3  and  C_7 
REMARK    2  A    between atoms: C_7  and  C_8 
REMARK    3  A    between atoms: C_7  and  N_14 
REMARK    4  A    between atoms: C_8  and  C_16 
REMARK    5  A    between atoms: C_10  and  C_13 
REMARK    6  A    between atoms: C_10  and  N_11 
ROOT
HETATM    1  C           1     -23.727  -4.082 -10.567  0.00  0.00     0.284 C 
ENDROOT
BRANCH   1   2
HETATM    2  C           1     -22.587  -4.164  -9.581  0.00  0.00     0.249 C 
HETATM    3  N           1     -22.817  -3.948  -8.250  0.00  0.00    -0.349 N 
HETATM    4  H           1     -23.751  -3.733  -7.925  0.00  0.00     0.163 HD
HETATM    5  O           1     -21.471  -4.421  -9.968  0.00  0.00    -0.271 OA
BRANCH   3   6
HETATM    6  C           1     -21.721  -4.028  -7.303  0.00  0.00     0.235 C 
BRANCH   6   7
HETATM    7  C           1     -21.707  -5.393  -6.661  0.00  0.00     0.191 C 
HETATM    8  O           1     -21.002  -6.304  -7.146  0.00  0.00    -0.647 OA
HETATM    9  O           1     -22.400  -5.614  -5.645  0.00  0.00    -0.647 OA
ENDBRANCH   6   7
ENDBRANCH   3   6
ENDBRANCH   1   2
BRANCH   1  10
HETATM   10  C           1     -23.493  -2.915 -11.518  0.00  0.00     0.155 C 
BRANCH  10  11
HETATM   11  C           1     -24.386  -3.064 -12.726  0.00  0.00     0.175 C 
HETATM   12  O           1     -25.614  -2.851 -12.625  0.00  0.00    -0.648 OA
HETATM   13  O           1     -23.898  -3.397 -13.827  0.00  0.00    -0.648 OA
ENDBRANCH  10  11
ENDBRANCH   1  10
BRANCH   1  14
HETATM   14  N           1     -25.013  -3.872  -9.826  0.00  0.00    -0.066 N 
HETATM   15  H           1     -25.742  -3.519 -10.486  0.00  0.00     0.275 HD
HETATM   16  H           1     -25.328  -4.778  -9.412  0.00  0.00     0.275 HD
HETATM   17  H           1     -24.865  -3.172  -9.064  0.00  0.00     0.275 HD
ENDBRANCH   1  14
TORSDOF 6
ENDMDL
MODEL 5
REMARK VINA RESULT:      -5.7      2.283      3.103
REMARK  6 active torsions:
REMARK  status: ('A' for Active; 'I' for Inactive)
REMARK       I    between atoms: C_3  and  N_11 
REMARK    1  A    between atoms: C_3  and  C_7 
REMARK    2  A    between atoms: C_7  and  C_8 
REMARK    3  A    between atoms: C_7  and  N_14 
REMARK    4  A    between atoms: C_8  and  C_16 
REMARK    5  A    between atoms: C_10  and  C_13 
REMARK    6  A    between atoms: C_10  and  N_11 
ROOT
HETATM    1  C           1     -22.165  -3.466 -11.419  0.00  0.00     0.284 C 
ENDROOT
BRANCH   1   2
HETATM    2  C           1     -20.954  -3.983 -10.681  0.00  0.00     0.249 C 
HETATM    3  N           1     -21.037  -4.270  -9.346  0.00  0.00    -0.349 N 
HETATM    4  H           1     -21.910  -4.136  -8.852  0.00  0.00     0.163 HD
HETATM    5  O           1     -19.911  -4.144 -11.270  0.00  0.00    -0.271 OA
BRANCH   3   6
HETATM    6  C           1     -19.873  -4.767  -8.637  0.00  0.00     0.235 C 
BRANCH   6   7
HETATM    7  C           1     -20.315  -5.503  -7.396  0.00  0.00     0.191 C 
HETATM    8  O           1     -21.204  -5.018  -6.665  0.00  0.00    -0.647 OA
HETATM    9  O           1     -19.791  -6.599  -7.100  0.00  0.00    -0.647 OA
ENDBRANCH   6   7
ENDBRANCH   3   6
ENDBRANCH   1   2
BRANCH   1  10
HETATM   10  C           1     -23.392  -4.270 -11.008  0.00  0.00     0.155 C 
BRANCH  10  11
HETATM   11  C           1     -24.623  -3.404 -11.125  0.00  0.00     0.175 C 
HETATM   12  O           1     -25.295  -3.133 -10.106  0.00  0.00    -0.648 OA
HETATM   13  O           1     -24.969  -2.957 -12.240  0.00  0.00    -0.648 OA
ENDBRANCH  10  11
ENDBRANCH   1  10
BRANCH   1  14
HETATM   14  N           1     -21.947  -3.608 -12.896  0.00  0.00    -0.066 N 
HETATM   15  H           1     -20.965  -3.339 -13.132  0.00  0.00     0.275 HD
HETATM   16  H           1     -22.114  -4.600 -13.179  0.00  0.00     0.275 HD
HETATM   17  H           1     -22.611  -2.983 -13.408  0.00  0.00     0.275 HD
ENDBRANCH   1  14
TORSDOF 6
ENDMDL
MODEL 6
REMARK VINA RESULT:      -5.5      2.010      6.297
REMARK  6 active torsions:
REMARK  status: ('A' for Active; 'I' for Inactive)
REMARK       I    between atoms: C_3  and  N_11 
REMARK    1  A    between atoms: C_3  and  C_7 
REMARK    2  A    between atoms: C_7  and  C_8 
REMARK    3  A    between atoms: C_7  and  N_14 
REMARK    4  A    between atoms: C_8  and  C_16 
REMARK    5  A    between atoms: C_10  and  C_13 
REMARK    6  A    between atoms: C_10  and  N_11 
ROOT
HETATM    1  C           1     -21.114  -4.059  -8.500  0.00  0.00     0.284 C 
ENDROOT
BRANCH   1   2
HETATM    2  C           1     -21.435  -3.977  -9.973  0.00  0.00     0.249 C 
HETATM    3  N           1     -22.536  -3.282 -10.396  0.00  0.00    -0.349 N 
HETATM    4  H           1     -23.134  -2.822  -9.722  0.00  0.00     0.163 HD
HETATM    5  O           1     -20.721  -4.526 -10.778  0.00  0.00    -0.271 OA
BRANCH   3   6
HETATM    6  C           1     -22.844  -3.204 -11.811  0.00  0.00     0.235 C 
BRANCH   6   7
HETATM    7  C           1     -24.341  -3.161 -11.999  0.00  0.00     0.191 C 
HETATM    8  O           1     -25.096  -3.153 -11.003  0.00  0.00    -0.647 OA
HETATM    9  O           1     -24.825  -3.134 -13.151  0.00  0.00    -0.647 OA
ENDBRANCH   6   7
ENDBRANCH   3   6
ENDBRANCH   1   2
BRANCH   1  10
HETATM   10  C           1     -20.086  -5.157  -8.264  0.00  0.00     0.155 C 
BRANCH  10  11
HETATM   11  C           1     -20.287  -5.749  -6.891  0.00  0.00     0.175 C 
HETATM   12  O           1     -20.802  -6.882  -6.768  0.00  0.00    -0.648 OA
HETATM   13  O           1     -19.939  -5.107  -5.876  0.00  0.00    -0.648 OA
ENDBRANCH  10  11
ENDBRANCH   1  10
BRANCH   1  14
HETATM   14  N           1     -22.364  -4.372  -7.733  0.00  0.00    -0.066 N 
HETATM   15  H           1     -23.098  -3.664  -7.959  0.00  0.00     0.275 HD
HETATM   16  H           1     -22.705  -5.324  -7.998  0.00  0.00     0.275 HD
HETATM   17  H           1     -22.159  -4.348  -6.708  0.00  0.00     0.275 HD
ENDBRANCH   1  14
TORSDOF 6
ENDMDL
MODEL 7
REMARK VINA RESULT:      -5.5      1.604      1.970
REMARK  6 active torsions:
REMARK  status: ('A' for Active; 'I' for Inactive)
REMARK       I    between atoms: C_3  and  N_11 
REMARK    1  A    between atoms: C_3  and  C_7 
REMARK    2  A    between atoms: C_7  and  C_8 
REMARK    3  A    between atoms: C_7  and  N_14 
REMARK    4  A    between atoms: C_8  and  C_16 
REMARK    5  A    between atoms: C_10  and  C_13 
REMARK    6  A    between atoms: C_10  and  N_11 
ROOT
HETATM    1  C           1     -22.395  -3.777 -12.583  0.00  0.00     0.284 C 
ENDROOT
BRANCH   1   2
HETATM    2  C           1     -21.546  -3.688 -11.338  0.00  0.00     0.249 C 
HETATM    3  N           1     -21.850  -4.455 -10.247  0.00  0.00    -0.349 N 
HETATM    4  H           1     -22.643  -5.083 -10.274  0.00  0.00     0.163 HD
HETATM    5  O           1     -20.598  -2.939 -11.306  0.00  0.00    -0.271 OA
BRANCH   3   6
HETATM    6  C           1     -21.034  -4.370  -9.051  0.00  0.00     0.235 C 
BRANCH   6   7
HETATM    7  C           1     -21.899  -3.981  -7.877  0.00  0.00     0.191 C 
HETATM    8  O           1     -23.115  -4.267  -7.875  0.00  0.00    -0.647 OA
HETATM    9  O           1     -21.398  -3.371  -6.907  0.00  0.00    -0.647 OA
ENDBRANCH   6   7
ENDBRANCH   3   6
ENDBRANCH   1   2
BRANCH   1  10
HETATM   10  C           1     -23.120  -2.455 -12.800  0.00  0.00     0.155 C 
BRANCH  10  11
HETATM   11  C           1     -23.392  -2.265 -14.272  0.00  0.00     0.175 C 
HETATM   12  O           1     -24.258  -1.444 -14.646  0.00  0.00    -0.648 OA
HETATM   13  O           1     -22.752  -2.927 -15.116  0.00  0.00    -0.648 OA
ENDBRANCH  10  11
ENDBRANCH   1  10
BRANCH   1  14
HETATM   14  N           1     -23.401  -4.877 -12.424  0.00  0.00    -0.066 N 
HETATM   15  H           1     -22.920  -5.802 -12.495  0.00  0.00     0.275 HD
HETATM   16  H           1     -23.861  -4.796 -11.489  0.00  0.00     0.275 HD
HETATM   17  H           1     -24.123  -4.801 -13.176  0.00  0.00     0.275 HD
ENDBRANCH   1  14
TORSDOF 6
ENDMDL
MODEL 8
REMARK VINA RESULT:      -5.4      1.695      5.839
REMARK  6 active torsions:
REMARK  status: ('A' for Active; 'I' for Inactive)
REMARK       I    between atoms: C_3  and  N_11 
REMARK    1  A    between atoms: C_3  and  C_7 
REMARK    2  A    between atoms: C_7  and  C_8 
REMARK    3  A    between atoms: C_7  and  N_14 
REMARK    4  A    between atoms: C_8  and  C_16 
REMARK    5  A    between atoms: C_10  and  C_13 
REMARK    6  A    between atoms: C_10  and  N_11 
ROOT
HETATM    1  C           1     -22.815  -3.966  -8.557  0.00  0.00     0.284 C 
ENDROOT
BRANCH   1   2
HETATM    2  C           1     -23.583  -4.202  -9.834  0.00  0.00     0.249 C 
HETATM    3  N           1     -22.933  -4.175 -11.038  0.00  0.00    -0.349 N 
HETATM    4  H           1     -21.937  -3.997 -11.073  0.00  0.00     0.163 HD
HETATM    5  O           1     -24.771  -4.415  -9.794  0.00  0.00    -0.271 OA
BRANCH   3   6
HETATM    6  C           1     -23.671  -4.402 -12.266  0.00  0.00     0.235 C 
BRANCH   6   7
HETATM    7  C           1     -24.202  -3.089 -12.786  0.00  0.00     0.191 C 
HETATM    8  O           1     -25.428  -2.852 -12.748  0.00  0.00    -0.647 OA
HETATM    9  O           1     -23.415  -2.238 -13.254  0.00  0.00    -0.647 OA
ENDBRANCH   6   7
ENDBRANCH   3   6
ENDBRANCH   1   2
BRANCH   1  10
HETATM   10  C           1     -21.558  -4.827  -8.552  0.00  0.00     0.155 C 
BRANCH  10  11
HETATM   11  C           1     -20.527  -4.207  -7.641  0.00  0.00     0.175 C 
HETATM   12  O           1     -19.402  -3.896  -8.091  0.00  0.00    -0.648 OA
HETATM   13  O           1     -20.797  -4.005  -6.438  0.00  0.00    -0.648 OA
ENDBRANCH  10  11
ENDBRANCH   1  10
BRANCH   1  14
HETATM   14  N           1     -23.674  -4.330  -7.383  0.00  0.00    -0.066 N 
HETATM   15  H           1     -23.089  -4.361  -6.518  0.00  0.00     0.275 HD
HETATM   16  H           1     -24.428  -3.615  -7.268  0.00  0.00     0.275 HD
HETATM   17  H           1     -24.105  -5.269  -7.546  0.00  0.00     0.275 HD
ENDBRANCH   1  14
TORSDOF 6
ENDMDL
MODEL 9
REMARK VINA RESULT:      -5.3     11.914     13.614
REMARK  6 active torsions:
REMARK  status: ('A' for Active; 'I' for Inactive)
REMARK       I    between atoms: C_3  and  N_11 
REMARK    1  A    between atoms: C_3  and  C_7 
REMARK    2  A    between atoms: C_7  and  C_8 
REMARK    3  A    between atoms: C_7  and  N_14 
REMARK    4  A    between atoms: C_8  and  C_16 
REMARK    5  A    between atoms: C_10  and  C_13 
REMARK    6  A    between atoms: C_10  and  N_11 
ROOT
HETATM    1  C           1     -33.950  -2.713 -11.413  0.00  0.00     0.284 C 
ENDROOT
BRANCH   1   2
HETATM    2  C           1     -34.681  -1.923 -12.471  0.00  0.00     0.249 C 
HETATM    3  N           1     -35.257  -0.723 -12.154  0.00  0.00    -0.349 N 
HETATM    4  H           1     -35.193  -0.364 -11.209  0.00  0.00     0.163 HD
HETATM    5  O           1     -34.757  -2.350 -13.599  0.00  0.00    -0.271 OA
BRANCH   3   6
HETATM    6  C           1     -35.959   0.037 -13.171  0.00  0.00     0.235 C 
BRANCH   6   7
HETATM    7  C           1     -37.422  -0.332 -13.156  0.00  0.00     0.191 C 
HETATM    8  O           1     -38.075  -0.255 -12.093  0.00  0.00    -0.647 OA
HETATM    9  O           1     -37.980  -0.716 -14.206  0.00  0.00    -0.647 OA
ENDBRANCH   6   7
ENDBRANCH   3   6
ENDBRANCH   1   2
BRANCH   1  10
HETATM   10  C           1     -34.845  -3.839 -10.912  0.00  0.00     0.155 C 
BRANCH  10  11
HETATM   11  C           1     -34.459  -5.130 -11.593  0.00  0.00     0.175 C 
HETATM   12  O           1     -33.533  -5.829 -11.128  0.00  0.00    -0.648 OA
HETATM   13  O           1     -35.066  -5.499 -12.621  0.00  0.00    -0.648 OA
ENDBRANCH  10  11
ENDBRANCH   1  10
BRANCH   1  14
HETATM   14  N           1     -33.598  -1.809 -10.270  0.00  0.00    -0.066 N 
HETATM   15  H           1     -32.727  -1.279 -10.500  0.00  0.00     0.275 HD
HETATM   16  H           1     -34.381  -1.137 -10.103  0.00  0.00     0.275 HD
HETATM   17  H           1     -33.440  -2.381  -9.409  0.00  0.00     0.275 HD
ENDBRANCH   1  14
TORSDOF 6
ENDMDL
