MODEL 1
REMARK VINA RESULT:      -6.1      0.000      0.000
REMARK  6 active torsions:
REMARK  status: ('A' for Active; 'I' for Inactive)
REMARK       I    between atoms: C_1  and  N_3 
REMARK    1  A    between atoms: C_1  and  C_2 
REMARK    2  A    between atoms: C_2  and  C_9 
REMARK    3  A    between atoms: C_2  and  N_6 
REMARK    4  A    between atoms: N_3  and  C_4 
REMARK    5  A    between atoms: C_4  and  C_14 
REMARK    6  A    between atoms: C_9  and  O_11 
ROOT
HETATM    1  C           1     -24.058  -3.427  -9.635  0.00  0.00     0.302 C 
ENDROOT
BRANCH   1   2
HETATM    2  C           1     -23.532  -3.807 -10.997  0.00  0.00     0.251 C 
HETATM    3  N           1     -22.971  -2.854 -11.805  0.00  0.00    -0.349 N 
HETATM    4  H           1     -22.910  -1.895 -11.488  0.00  0.00     0.163 HD
HETATM    5  O           1     -23.605  -4.951 -11.375  0.00  0.00    -0.271 OA
BRANCH   3   6
HETATM    6  C           1     -22.466  -3.219 -13.113  0.00  0.00     0.235 C 
BRANCH   6   7
HETATM    7  C           1     -23.272  -2.518 -14.178  0.00  0.00     0.191 C 
HETATM    8  O           1     -24.403  -2.058 -13.907  0.00  0.00    -0.647 OA
HETATM    9  O           1     -22.809  -2.396 -15.333  0.00  0.00    -0.647 OA
ENDBRANCH   6   7
ENDBRANCH   3   6
ENDBRANCH   1   2
BRANCH   1  10
HETATM   10  C           1     -23.374  -4.274  -8.571  0.00  0.00     0.153 C 
HETATM   11  C           1     -21.928  -3.824  -8.416  0.00  0.00     0.042 C 
BRANCH  10  12
HETATM   12  O           1     -24.043  -4.121  -7.349  0.00  0.00    -0.393 OA
HETATM   13  H           1     -24.600  -4.874  -7.245  0.00  0.00     0.210 HD
ENDBRANCH  10  12
ENDBRANCH   1  10
BRANCH   1  14
HETATM   14  N           1     -25.539  -3.664  -9.587  0.00  0.00    -0.064 N 
HETATM   15  H           1     -25.896  -3.835 -10.553  0.00  0.00     0.275 HD
HETATM   16  H           1     -25.738  -4.498  -8.989  0.00  0.00     0.275 HD
HETATM   17  H           1     -26.013  -2.825  -9.183  0.00  0.00     0.275 HD
ENDBRANCH   1  14
TORSDOF 6
ENDMDL
MODEL 2
REMARK VINA RESULT:      -6.0     11.531     12.444
REMARK  6 active torsions:
REMARK  status: ('A' for Active; 'I' for Inactive)
REMARK       I    between atoms: C_1  and  N_3 
REMARK    1  A    between atoms: C_1  and  C_2 
REMARK    2  A    between atoms: C_2  and  C_9 
REMARK    3  A    between atoms: C_2  and  N_6 
REMARK    4  A    between atoms: N_3  and  C_4 
REMARK    5  A    between atoms: C_4  and  C_14 
REMARK    6  A    between atoms: C_9  and  O_11 
ROOT
HETATM    1  C           1     -34.610  -1.435 -11.904  0.00  0.00     0.302 C 
ENDROOT
BRANCH   1   2
HETATM    2  C           1     -35.494  -0.931 -13.018  0.00  0.00     0.251 C 
HETATM    3  N           1     -34.937  -0.332 -14.116  0.00  0.00    -0.349 N 
HETATM    4  H           1     -33.933  -0.226 -14.180  0.00  0.00     0.163 HD
HETATM    5  O           1     -36.692  -1.057 -12.941  0.00  0.00    -0.271 OA
BRANCH   3   6
HETATM    6  C           1     -35.786   0.152 -15.186  0.00  0.00     0.235 C 
BRANCH   6   7
HETATM    7  C           1     -35.879  -0.895 -16.269  0.00  0.00     0.191 C 
HETATM    8  O           1     -36.709  -0.766 -17.195  0.00  0.00    -0.647 OA
HETATM    9  O           1     -35.126  -1.892 -16.240  0.00  0.00    -0.647 OA
ENDBRANCH   6   7
ENDBRANCH   3   6
ENDBRANCH   1   2
BRANCH   1  10
HETATM   10  C           1     -34.216  -2.879 -12.181  0.00  0.00     0.153 C 
HETATM   11  C           1     -35.035  -3.808 -11.295  0.00  0.00     0.042 C 
BRANCH  10  12
HETATM   12  O           1     -34.463  -3.182 -13.527  0.00  0.00    -0.393 OA
HETATM   13  H           1     -34.638  -2.365 -13.963  0.00  0.00     0.210 HD
ENDBRANCH  10  12
ENDBRANCH   1  10
BRANCH   1  14
HETATM   14  N           1     -35.354  -1.361 -10.603  0.00  0.00    -0.064 N 
HETATM   15  H           1     -35.844  -0.441 -10.533  0.00  0.00     0.275 HD
HETATM   16  H           1     -36.056  -2.134 -10.560  0.00  0.00     0.275 HD
HETATM   17  H           1     -34.679  -1.458  -9.811  0.00  0.00     0.275 HD
ENDBRANCH   1  14
TORSDOF 6
ENDMDL
MODEL 3
REMARK VINA RESULT:      -5.9      1.927      2.309
REMARK  6 active torsions:
REMARK  status: ('A' for Active; 'I' for Inactive)
REMARK       I    between atoms: C_1  and  N_3 
REMARK    1  A    between atoms: C_1  and  C_2 
REMARK    2  A    between atoms: C_2  and  C_9 
REMARK    3  A    between atoms: C_2  and  N_6 
REMARK    4  A    between atoms: N_3  and  C_4 
REMARK    5  A    between atoms: C_4  and  C_14 
REMARK    6  A    between atoms: C_9  and  O_11 
ROOT
HETATM    1  C           1     -21.270  -4.440 -11.063  0.00  0.00     0.302 C 
ENDROOT
BRANCH   1   2
HETATM    2  C           1     -22.550  -4.106 -11.789  0.00  0.00     0.251 C 
HETATM    3  N           1     -22.672  -2.911 -12.447  0.00  0.00    -0.349 N 
HETATM    4  H           1     -21.904  -2.252 -12.446  0.00  0.00     0.163 HD
HETATM    5  O           1     -23.467  -4.891 -11.789  0.00  0.00    -0.271 OA
BRANCH   3   6
HETATM    6  C           1     -23.901  -2.589 -13.143  0.00  0.00     0.235 C 
BRANCH   6   7
HETATM    7  C           1     -23.578  -2.076 -14.525  0.00  0.00     0.191 C 
HETATM    8  O           1     -24.182  -1.079 -14.979  0.00  0.00    -0.647 OA
HETATM    9  O           1     -22.707  -2.647 -15.216  0.00  0.00    -0.647 OA
ENDBRANCH   6   7
ENDBRANCH   3   6
ENDBRANCH   1   2
BRANCH   1  10
HETATM   10  C           1     -21.520  -4.432  -9.561  0.00  0.00     0.153 C 
HETATM   11  C           1     -20.227  -4.093  -8.833  0.00  0.00     0.042 C 
BRANCH  10  12
HETATM   12  O           1     -22.494  -3.472  -9.254  0.00  0.00    -0.393 OA
HETATM   13  H           1     -23.293  -3.939  -9.076  0.00  0.00     0.210 HD
ENDBRANCH  10  12
ENDBRANCH   1  10
BRANCH   1  14
HETATM   14  N           1     -20.224  -3.420 -11.400  0.00  0.00    -0.064 N 
HETATM   15  H           1     -20.556  -2.828 -12.195  0.00  0.00     0.275 HD
HETATM   16  H           1     -20.045  -2.815 -10.567  0.00  0.00     0.275 HD
HETATM   17  H           1     -19.340  -3.906 -11.674  0.00  0.00     0.275 HD
ENDBRANCH   1  14
TORSDOF 6
ENDMDL
MODEL 4
REMARK VINA RESULT:      -5.9      1.658      5.397
REMARK  6 active torsions:
REMARK  status: ('A' for Active; 'I' for Inactive)
REMARK       I    between atoms: C_1  and  N_3 
REMARK    1  A    between atoms: C_1  and  C_2 
REMARK    2  A    between atoms: C_2  and  C_9 
REMARK    3  A    between atoms: C_2  and  N_6 
REMARK    4  A    between atoms: N_3  and  C_4 
REMARK    5  A    between atoms: C_4  and  C_14 
REMARK    6  A    between atoms: C_9  and  O_11 
ROOT
HETATM    1  C           1     -22.855  -2.772 -12.437  0.00  0.00     0.302 C 
ENDROOT
BRANCH   1   2
HETATM    2  C           1     -23.639  -3.196 -11.220  0.00  0.00     0.251 C 
HETATM    3  N           1     -22.982  -3.640 -10.103  0.00  0.00    -0.349 N 
HETATM    4  H           1     -21.971  -3.683 -10.095  0.00  0.00     0.163 HD
HETATM    5  O           1     -24.845  -3.144 -11.229  0.00  0.00    -0.271 OA
BRANCH   3   6
HETATM    6  C           1     -23.734  -4.047  -8.933  0.00  0.00     0.235 C 
BRANCH   6   7
HETATM    7  C           1     -22.780  -4.417  -7.824  0.00  0.00     0.191 C 
HETATM    8  O           1     -21.563  -4.564  -8.069  0.00  0.00    -0.647 OA
HETATM    9  O           1     -23.208  -4.578  -6.661  0.00  0.00    -0.647 OA
ENDBRANCH   6   7
ENDBRANCH   3   6
ENDBRANCH   1   2
BRANCH   1  10
HETATM   10  C           1     -23.731  -2.904 -13.676  0.00  0.00     0.153 C 
HETATM   11  C           1     -22.916  -2.549 -14.913  0.00  0.00     0.042 C 
BRANCH  10  12
HETATM   12  O           1     -24.192  -4.223 -13.785  0.00  0.00    -0.393 OA
HETATM   13  H           1     -23.492  -4.727 -14.164  0.00  0.00     0.210 HD
ENDBRANCH  10  12
ENDBRANCH   1  10
BRANCH   1  14
HETATM   14  N           1     -21.647  -3.649 -12.584  0.00  0.00    -0.064 N 
HETATM   15  H           1     -21.103  -3.646 -11.692  0.00  0.00     0.275 HD
HETATM   16  H           1     -21.950  -4.625 -12.804  0.00  0.00     0.275 HD
HETATM   17  H           1     -21.047  -3.287 -13.360  0.00  0.00     0.275 HD
ENDBRANCH   1  14
TORSDOF 6
ENDMDL
MODEL 5
REMARK VINA RESULT:      -5.6      7.639     10.125
REMARK  6 active torsions:
REMARK  status: ('A' for Active; 'I' for Inactive)
REMARK       I    between atoms: C_1  and  N_3 
REMARK    1  A    between atoms: C_1  and  C_2 
REMARK    2  A    between atoms: C_2  and  C_9 
REMARK    3  A    between atoms: C_2  and  N_6 
REMARK    4  A    between atoms: N_3  and  C_4 
REMARK    5  A    between atoms: C_4  and  C_14 
REMARK    6  A    between atoms: C_9  and  O_11 
ROOT
HETATM    1  C           1     -24.835  -6.828 -20.132  0.00  0.00     0.302 C 
ENDROOT
BRANCH   1   2
HETATM    2  C           1     -26.044  -6.616 -19.255  0.00  0.00     0.251 C 
HETATM    3  N           1     -25.909  -6.611 -17.892  0.00  0.00    -0.349 N 
HETATM    4  H           1     -24.998  -6.750 -17.474  0.00  0.00     0.163 HD
HETATM    5  O           1     -27.131  -6.450 -19.754  0.00  0.00    -0.271 OA
BRANCH   3   6
HETATM    6  C           1     -27.070  -6.407 -17.049  0.00  0.00     0.235 C 
BRANCH   6   7
HETATM    7  C           1     -26.867  -7.114 -15.731  0.00  0.00     0.191 C 
HETATM    8  O           1     -27.855  -7.481 -15.059  0.00  0.00    -0.647 OA
HETATM    9  O           1     -25.710  -7.332 -15.312  0.00  0.00    -0.647 OA
ENDBRANCH   6   7
ENDBRANCH   3   6
ENDBRANCH   1   2
BRANCH   1  10
HETATM   10  C           1     -25.263  -7.489 -21.436  0.00  0.00     0.153 C 
HETATM   11  C           1     -24.028  -7.896 -22.227  0.00  0.00     0.042 C 
BRANCH  10  12
HETATM   12  O           1     -26.032  -8.625 -21.154  0.00  0.00    -0.393 OA
HETATM   13  H           1     -26.936  -8.372 -21.236  0.00  0.00     0.210 HD
ENDBRANCH  10  12
ENDBRANCH   1  10
BRANCH   1  14
HETATM   14  N           1     -23.852  -7.712 -19.423  0.00  0.00    -0.064 N 
HETATM   15  H           1     -22.927  -7.230 -19.366  0.00  0.00     0.275 HD
HETATM   16  H           1     -24.199  -7.915 -18.459  0.00  0.00     0.275 HD
HETATM   17  H           1     -23.747  -8.608 -19.952  0.00  0.00     0.275 HD
ENDBRANCH   1  14
TORSDOF 6
ENDMDL
MODEL 6
REMARK VINA RESULT:      -5.6      2.190      2.764
REMARK  6 active torsions:
REMARK  status: ('A' for Active; 'I' for Inactive)
REMARK       I    between atoms: C_1  and  N_3 
REMARK    1  A    between atoms: C_1  and  C_2 
REMARK    2  A    between atoms: C_2  and  C_9 
REMARK    3  A    between atoms: C_2  and  N_6 
REMARK    4  A    between atoms: N_3  and  C_4 
REMARK    5  A    between atoms: C_4  and  C_14 
REMARK    6  A    between atoms: C_9  and  O_11 
ROOT
HETATM    1  C           1     -21.541  -4.996  -8.957  0.00  0.00     0.302 C 
ENDROOT
BRANCH   1   2
HETATM    2  C           1     -21.828  -4.311 -10.270  0.00  0.00     0.251 C 
HETATM    3  N           1     -22.920  -4.678 -11.010  0.00  0.00    -0.349 N 
HETATM    4  H           1     -23.535  -5.409 -10.675  0.00  0.00     0.163 HD
HETATM    5  O           1     -21.094  -3.439 -10.670  0.00  0.00    -0.271 OA
BRANCH   3   6
HETATM    6  C           1     -23.196  -4.021 -12.272  0.00  0.00     0.235 C 
BRANCH   6   7
HETATM    7  C           1     -24.455  -3.199 -12.148  0.00  0.00     0.191 C 
HETATM    8  O           1     -25.035  -3.106 -11.044  0.00  0.00    -0.647 OA
HETATM    9  O           1     -24.919  -2.612 -13.149  0.00  0.00    -0.647 OA
ENDBRANCH   6   7
ENDBRANCH   3   6
ENDBRANCH   1   2
BRANCH   1  10
HETATM   10  C           1     -22.286  -4.280  -7.838  0.00  0.00     0.153 C 
HETATM   11  C           1     -21.298  -3.470  -7.008  0.00  0.00     0.042 C 
BRANCH  10  12
HETATM   12  O           1     -23.246  -3.422  -8.389  0.00  0.00    -0.393 OA
HETATM   13  H           1     -23.454  -3.757  -9.245  0.00  0.00     0.210 HD
ENDBRANCH  10  12
ENDBRANCH   1  10
BRANCH   1  14
HETATM   14  N           1     -20.067  -4.954  -8.682  0.00  0.00    -0.064 N 
HETATM   15  H           1     -19.906  -4.832  -7.657  0.00  0.00     0.275 HD
HETATM   16  H           1     -19.628  -5.848  -9.000  0.00  0.00     0.275 HD
HETATM   17  H           1     -19.640  -4.152  -9.200  0.00  0.00     0.275 HD
ENDBRANCH   1  14
TORSDOF 6
ENDMDL
MODEL 7
REMARK VINA RESULT:      -5.5      1.683      2.139
REMARK  6 active torsions:
REMARK  status: ('A' for Active; 'I' for Inactive)
REMARK       I    between atoms: C_1  and  N_3 
REMARK    1  A    between atoms: C_1  and  C_2 
REMARK    2  A    between atoms: C_2  and  C_9 
REMARK    3  A    between atoms: C_2  and  N_6 
REMARK    4  A    between atoms: N_3  and  C_4 
REMARK    5  A    between atoms: C_4  and  C_14 
REMARK    6  A    between atoms: C_9  and  O_11 
ROOT
HETATM    1  C           1     -22.639  -3.589  -8.721  0.00  0.00     0.302 C 
ENDROOT
BRANCH   1   2
HETATM    2  C           1     -22.950  -4.006 -10.137  0.00  0.00     0.251 C 
HETATM    3  N           1     -22.685  -3.153 -11.175  0.00  0.00    -0.349 N 
HETATM    4  H           1     -22.281  -2.243 -10.992  0.00  0.00     0.163 HD
HETATM    5  O           1     -23.431  -5.091 -10.355  0.00  0.00    -0.271 OA
BRANCH   3   6
HETATM    6  C           1     -22.982  -3.553 -12.536  0.00  0.00     0.235 C 
BRANCH   6   7
HETATM    7  C           1     -24.172  -2.775 -13.041  0.00  0.00     0.191 C 
HETATM    8  O           1     -24.039  -1.974 -13.992  0.00  0.00    -0.647 OA
HETATM    9  O           1     -25.292  -2.930 -12.508  0.00  0.00    -0.647 OA
ENDBRANCH   6   7
ENDBRANCH   3   6
ENDBRANCH   1   2
BRANCH   1  10
HETATM   10  C           1     -21.263  -4.108  -8.328  0.00  0.00     0.153 C 
HETATM   11  C           1     -21.418  -5.311  -7.407  0.00  0.00     0.042 C 
BRANCH  10  12
HETATM   12  O           1     -20.561  -4.490  -9.479  0.00  0.00    -0.393 OA
HETATM   13  H           1     -21.145  -4.369 -10.209  0.00  0.00     0.210 HD
ENDBRANCH  10  12
ENDBRANCH   1  10
BRANCH   1  14
HETATM   14  N           1     -23.671  -4.161  -7.794  0.00  0.00    -0.064 N 
HETATM   15  H           1     -23.210  -4.482  -6.914  0.00  0.00     0.275 HD
HETATM   16  H           1     -24.381  -3.427  -7.568  0.00  0.00     0.275 HD
HETATM   17  H           1     -24.143  -4.971  -8.257  0.00  0.00     0.275 HD
ENDBRANCH   1  14
TORSDOF 6
ENDMDL
MODEL 8
REMARK VINA RESULT:      -5.5      2.156      2.537
REMARK  6 active torsions:
REMARK  status: ('A' for Active; 'I' for Inactive)
REMARK       I    between atoms: C_1  and  N_3 
REMARK    1  A    between atoms: C_1  and  C_2 
REMARK    2  A    between atoms: C_2  and  C_9 
REMARK    3  A    between atoms: C_2  and  N_6 
REMARK    4  A    between atoms: N_3  and  C_4 
REMARK    5  A    between atoms: C_4  and  C_14 
REMARK    6  A    between atoms: C_9  and  O_11 
ROOT
HETATM    1  C           1     -22.943  -4.112 -11.635  0.00  0.00     0.302 C 
ENDROOT
BRANCH   1   2
HETATM    2  C           1     -23.319  -3.704 -13.038  0.00  0.00     0.251 C 
HETATM    3  N           1     -22.627  -2.705 -13.669  0.00  0.00    -0.349 N 
HETATM    4  H           1     -21.862  -2.242 -13.194  0.00  0.00     0.163 HD
HETATM    5  O           1     -24.231  -4.257 -13.603  0.00  0.00    -0.271 OA
BRANCH   3   6
HETATM    6  C           1     -22.988  -2.312 -15.016  0.00  0.00     0.235 C 
BRANCH   6   7
HETATM    7  C           1     -23.837  -1.066 -14.968  0.00  0.00     0.191 C 
HETATM    8  O           1     -24.960  -1.095 -14.418  0.00  0.00    -0.647 OA
HETATM    9  O           1     -23.418  -0.004 -15.477  0.00  0.00    -0.647 OA
ENDBRANCH   6   7
ENDBRANCH   3   6
ENDBRANCH   1   2
BRANCH   1  10
HETATM   10  C           1     -24.171  -4.042 -10.738  0.00  0.00     0.153 C 
HETATM   11  C           1     -23.743  -3.700  -9.317  0.00  0.00     0.042 C 
BRANCH  10  12
HETATM   12  O           1     -25.042  -3.052 -11.213  0.00  0.00    -0.393 OA
HETATM   13  H           1     -25.908  -3.423 -11.208  0.00  0.00     0.210 HD
ENDBRANCH  10  12
ENDBRANCH   1  10
BRANCH   1  14
HETATM   14  N           1     -21.888  -3.184 -11.110  0.00  0.00    -0.064 N 
HETATM   15  H           1     -22.062  -2.993 -10.098  0.00  0.00     0.275 HD
HETATM   16  H           1     -20.947  -3.626 -11.223  0.00  0.00     0.275 HD
HETATM   17  H           1     -21.918  -2.286 -11.644  0.00  0.00     0.275 HD
ENDBRANCH   1  14
TORSDOF 6
ENDMDL
MODEL 9
REMARK VINA RESULT:      -5.4      2.416      5.330
REMARK  6 active torsions:
REMARK  status: ('A' for Active; 'I' for Inactive)
REMARK       I    between atoms: C_1  and  N_3 
REMARK    1  A    between atoms: C_1  and  C_2 
REMARK    2  A    between atoms: C_2  and  C_9 
REMARK    3  A    between atoms: C_2  and  N_6 
REMARK    4  A    between atoms: N_3  and  C_4 
REMARK    5  A    between atoms: C_4  and  C_14 
REMARK    6  A    between atoms: C_9  and  O_11 
ROOT
HETATM    1  C           1     -22.546  -3.172 -11.263  0.00  0.00     0.302 C 
ENDROOT
BRANCH   1   2
HETATM    2  C           1     -22.764  -4.036 -10.046  0.00  0.00     0.251 C 
HETATM    3  N           1     -22.533  -3.528  -8.795  0.00  0.00    -0.349 N 
HETATM    4  H           1     -22.217  -2.573  -8.688  0.00  0.00     0.163 HD
HETATM    5  O           1     -23.141  -5.176 -10.174  0.00  0.00    -0.271 OA
BRANCH   3   6
HETATM    6  C           1     -22.742  -4.358  -7.626  0.00  0.00     0.235 C 
BRANCH   6   7
HETATM    7  C           1     -21.419  -4.911  -7.157  0.00  0.00     0.191 C 
HETATM    8  O           1     -21.078  -6.071  -7.476  0.00  0.00    -0.647 OA
HETATM    9  O           1     -20.664  -4.210  -6.450  0.00  0.00    -0.647 OA
ENDBRANCH   6   7
ENDBRANCH   3   6
ENDBRANCH   1   2
BRANCH   1  10
HETATM   10  C           1     -23.889  -2.847 -11.903  0.00  0.00     0.153 C 
HETATM   11  C           1     -24.052  -3.657 -13.181  0.00  0.00     0.042 C 
BRANCH  10  12
HETATM   12  O           1     -24.922  -3.169 -11.012  0.00  0.00    -0.393 OA
HETATM   13  H           1     -25.731  -2.933 -11.433  0.00  0.00     0.210 HD
ENDBRANCH  10  12
ENDBRANCH   1  10
BRANCH   1  14
HETATM   14  N           1     -21.688  -3.906 -12.250  0.00  0.00    -0.064 N 
HETATM   15  H           1     -22.223  -4.055 -13.135  0.00  0.00     0.275 HD
HETATM   16  H           1     -20.830  -3.343 -12.453  0.00  0.00     0.275 HD
HETATM   17  H           1     -21.411  -4.831 -11.850  0.00  0.00     0.275 HD
ENDBRANCH   1  14
TORSDOF 6
ENDMDL
