MODEL 1
REMARK VINA RESULT:      -6.4      0.000      0.000
REMARK  11 active torsions:
REMARK  status: ('A' for Active; 'I' for Inactive)
REMARK    1  A    between atoms: C_2  and  C_4 
REMARK    2  A    between atoms: C_2  and  C_25 
REMARK    3  A    between atoms: N_3  and  C_11 
REMARK    4  A    between atoms: C_4  and  C_5 
REMARK    5  A    between atoms: C_5  and  C_11 
REMARK    6  A    between atoms: N_6  and  C_25 
REMARK       I    between atoms: N_6  and  C_9 
REMARK    7  A    between atoms: C_9  and  C_16 
REMARK    8  A    between atoms: O_13  and  C_23 
REMARK    9  A    between atoms: C_16  and  C_23 
REMARK   10  A    between atoms: C_16  and  N_18 
REMARK   11  A    between atoms: C_17  and  C_25 
ROOT
HETATM    1  N           1     -34.855  -1.496 -13.233  0.00  0.00    -0.345 N 
HETATM    2  H           1     -33.977  -1.342 -13.713  0.00  0.00     0.163 HD
HETATM    3  C           1     -35.960  -0.768 -13.579  0.00  0.00     0.251 C 
HETATM    4  O           1     -37.009  -0.951 -13.006  0.00  0.00    -0.271 OA
ENDROOT
BRANCH   1   5
HETATM    5  C           1     -34.940  -2.487 -12.178  0.00  0.00     0.185 C 
BRANCH   5   6
HETATM    6  C           1     -34.060  -3.679 -12.530  0.00  0.00     0.036 C 
BRANCH   6   7
HETATM    7  C           1     -34.709  -4.959 -12.019  0.00  0.00     0.004 C 
BRANCH   7   8
HETATM    8  C           1     -33.850  -5.557 -10.913  0.00  0.00     0.027 C 
BRANCH   8   9
HETATM    9  C           1     -34.655  -6.604 -10.155  0.00  0.00     0.229 C 
BRANCH   9  10
HETATM   10  N           1     -34.791  -7.838 -10.997  0.00  0.00    -0.079 N 
HETATM   11  H           1     -35.099  -8.636 -10.398  0.00  0.00     0.274 HD
HETATM   12  H           1     -33.869  -8.066 -11.433  0.00  0.00     0.274 HD
HETATM   13  H           1     -35.498  -7.670 -11.747  0.00  0.00     0.274 HD
ENDBRANCH   9  10
ENDBRANCH   8   9
ENDBRANCH   7   8
ENDBRANCH   6   7
ENDBRANCH   5   6
BRANCH   5  14
HETATM   14  C           1     -34.469  -1.881 -10.879  0.00  0.00     0.196 C 
HETATM   15  O           1     -35.294  -1.362 -10.095  0.00  0.00    -0.646 OA
HETATM   16  O           1     -33.254  -1.899 -10.585  0.00  0.00    -0.646 OA
ENDBRANCH   5  14
ENDBRANCH   1   5
BRANCH   3  17
HETATM   17  C           1     -35.872   0.263 -14.677  0.00  0.00     0.302 C 
BRANCH  17  18
HETATM   18  C           1     -36.492  -0.295 -15.951  0.00  0.00     0.153 C 
HETATM   19  C           1     -35.511  -1.252 -16.615  0.00  0.00     0.042 C 
BRANCH  18  20
HETATM   20  O           1     -37.673  -0.981 -15.634  0.00  0.00    -0.393 OA
HETATM   21  H           1     -37.883  -0.767 -14.741  0.00  0.00     0.210 HD
ENDBRANCH  18  20
ENDBRANCH  17  18
BRANCH  17  22
HETATM   22  N           1     -34.433   0.602 -14.928  0.00  0.00    -0.064 N 
HETATM   23  H           1     -34.232   1.562 -14.568  0.00  0.00     0.275 HD
HETATM   24  H           1     -33.821  -0.088 -14.436  0.00  0.00     0.275 HD
HETATM   25  H           1     -34.241   0.566 -15.954  0.00  0.00     0.275 HD
ENDBRANCH  17  22
ENDBRANCH   3  17
TORSDOF 11
ENDMDL
MODEL 2
REMARK VINA RESULT:      -6.4      1.993      5.628
REMARK  11 active torsions:
REMARK  status: ('A' for Active; 'I' for Inactive)
REMARK    1  A    between atoms: C_2  and  C_4 
REMARK    2  A    between atoms: C_2  and  C_25 
REMARK    3  A    between atoms: N_3  and  C_11 
REMARK    4  A    between atoms: C_4  and  C_5 
REMARK    5  A    between atoms: C_5  and  C_11 
REMARK    6  A    between atoms: N_6  and  C_25 
REMARK       I    between atoms: N_6  and  C_9 
REMARK    7  A    between atoms: C_9  and  C_16 
REMARK    8  A    between atoms: O_13  and  C_23 
REMARK    9  A    between atoms: C_16  and  C_23 
REMARK   10  A    between atoms: C_16  and  N_18 
REMARK   11  A    between atoms: C_17  and  C_25 
ROOT
HETATM    1  N           1     -34.842  -1.840 -12.648  0.00  0.00    -0.345 N 
HETATM    2  H           1     -35.370  -2.169 -13.447  0.00  0.00     0.163 HD
HETATM    3  C           1     -33.984  -2.686 -11.999  0.00  0.00     0.251 C 
HETATM    4  O           1     -33.354  -2.294 -11.045  0.00  0.00    -0.271 OA
ENDROOT
BRANCH   1   5
HETATM    5  C           1     -34.996  -0.473 -12.190  0.00  0.00     0.185 C 
BRANCH   5   6
HETATM    6  C           1     -35.170   0.447 -13.392  0.00  0.00     0.036 C 
BRANCH   6   7
HETATM    7  C           1     -35.678  -0.358 -14.580  0.00  0.00     0.004 C 
BRANCH   7   8
HETATM    8  C           1     -37.126   0.015 -14.866  0.00  0.00     0.027 C 
BRANCH   8   9
HETATM    9  C           1     -37.546  -0.566 -16.209  0.00  0.00     0.229 C 
BRANCH   9  10
HETATM   10  N           1     -36.345  -0.685 -17.100  0.00  0.00    -0.079 N 
HETATM   11  H           1     -36.413  -1.565 -17.659  0.00  0.00     0.274 HD
HETATM   12  H           1     -35.479  -0.710 -16.516  0.00  0.00     0.274 HD
HETATM   13  H           1     -36.306   0.137 -17.743  0.00  0.00     0.274 HD
ENDBRANCH   9  10
ENDBRANCH   8   9
ENDBRANCH   7   8
ENDBRANCH   6   7
ENDBRANCH   5   6
BRANCH   5  14
HETATM   14  C           1     -36.210  -0.373 -11.301  0.00  0.00     0.196 C 
HETATM   15  O           1     -37.081  -1.270 -11.327  0.00  0.00    -0.646 OA
HETATM   16  O           1     -36.346   0.607 -10.535  0.00  0.00    -0.646 OA
ENDBRANCH   5  14
ENDBRANCH   1   5
BRANCH   3  17
HETATM   17  C           1     -33.825  -4.109 -12.475  0.00  0.00     0.302 C 
BRANCH  17  18
HETATM   18  C           1     -34.833  -5.000 -11.761  0.00  0.00     0.153 C 
HETATM   19  C           1     -34.108  -5.878 -10.750  0.00  0.00     0.042 C 
BRANCH  18  20
HETATM   20  O           1     -35.775  -4.201 -11.096  0.00  0.00    -0.393 OA
HETATM   21  H           1     -35.310  -3.732 -10.425  0.00  0.00     0.210 HD
ENDBRANCH  18  20
ENDBRANCH  17  18
BRANCH  17  22
HETATM   22  N           1     -32.436  -4.584 -12.171  0.00  0.00    -0.064 N 
HETATM   23  H           1     -32.322  -5.568 -12.507  0.00  0.00     0.275 HD
HETATM   24  H           1     -31.743  -3.970 -12.657  0.00  0.00     0.275 HD
HETATM   25  H           1     -32.272  -4.545 -11.140  0.00  0.00     0.275 HD
ENDBRANCH  17  22
ENDBRANCH   3  17
TORSDOF 11
ENDMDL
MODEL 3
REMARK VINA RESULT:      -6.3     12.208     14.844
REMARK  11 active torsions:
REMARK  status: ('A' for Active; 'I' for Inactive)
REMARK    1  A    between atoms: C_2  and  C_4 
REMARK    2  A    between atoms: C_2  and  C_25 
REMARK    3  A    between atoms: N_3  and  C_11 
REMARK    4  A    between atoms: C_4  and  C_5 
REMARK    5  A    between atoms: C_5  and  C_11 
REMARK    6  A    between atoms: N_6  and  C_25 
REMARK       I    between atoms: N_6  and  C_9 
REMARK    7  A    between atoms: C_9  and  C_16 
REMARK    8  A    between atoms: O_13  and  C_23 
REMARK    9  A    between atoms: C_16  and  C_23 
REMARK   10  A    between atoms: C_16  and  N_18 
REMARK   11  A    between atoms: C_17  and  C_25 
ROOT
HETATM    1  N           1     -22.578  -4.629  -7.896  0.00  0.00    -0.345 N 
HETATM    2  H           1     -23.198  -5.412  -7.730  0.00  0.00     0.163 HD
HETATM    3  C           1     -21.571  -4.354  -7.012  0.00  0.00     0.251 C 
HETATM    4  O           1     -20.831  -3.419  -7.210  0.00  0.00    -0.271 OA
ENDROOT
BRANCH   1   5
HETATM    5  C           1     -22.758  -3.799  -9.071  0.00  0.00     0.185 C 
BRANCH   5   6
HETATM    6  C           1     -21.881  -4.323 -10.201  0.00  0.00     0.036 C 
BRANCH   6   7
HETATM    7  C           1     -21.611  -3.202 -11.197  0.00  0.00     0.004 C 
BRANCH   7   8
HETATM    8  C           1     -22.240  -3.552 -12.539  0.00  0.00     0.027 C 
BRANCH   8   9
HETATM    9  C           1     -23.293  -2.512 -12.894  0.00  0.00     0.229 C 
BRANCH   9  10
HETATM   10  N           1     -24.657  -3.059 -12.595  0.00  0.00    -0.079 N 
HETATM   11  H           1     -25.162  -2.405 -11.955  0.00  0.00     0.274 HD
HETATM   12  H           1     -24.566  -3.993 -12.135  0.00  0.00     0.274 HD
HETATM   13  H           1     -25.194  -3.161 -13.485  0.00  0.00     0.274 HD
ENDBRANCH   9  10
ENDBRANCH   8   9
ENDBRANCH   7   8
ENDBRANCH   6   7
ENDBRANCH   5   6
BRANCH   5  14
HETATM   14  C           1     -24.204  -3.837  -9.498  0.00  0.00     0.196 C 
HETATM   15  O           1     -24.907  -2.805  -9.422  0.00  0.00    -0.646 OA
HETATM   16  O           1     -24.701  -4.901  -9.928  0.00  0.00    -0.646 OA
ENDBRANCH   5  14
ENDBRANCH   1   5
BRANCH   3  17
HETATM   17  C           1     -21.384  -5.218  -5.789  0.00  0.00     0.302 C 
BRANCH  17  18
HETATM   18  C           1     -20.275  -6.231  -6.046  0.00  0.00     0.153 C 
HETATM   19  C           1     -20.681  -7.583  -5.475  0.00  0.00     0.042 C 
BRANCH  18  20
HETATM   20  O           1     -20.063  -6.352  -7.427  0.00  0.00    -0.393 OA
HETATM   21  H           1     -20.863  -6.681  -7.799  0.00  0.00     0.210 HD
ENDBRANCH  18  20
ENDBRANCH  17  18
BRANCH  17  22
HETATM   22  N           1     -22.662  -5.943  -5.489  0.00  0.00    -0.064 N 
HETATM   23  H           1     -23.474  -5.353  -5.783  0.00  0.00     0.275 HD
HETATM   24  H           1     -22.681  -6.846  -6.014  0.00  0.00     0.275 HD
HETATM   25  H           1     -22.722  -6.134  -4.464  0.00  0.00     0.275 HD
ENDBRANCH  17  22
ENDBRANCH   3  17
TORSDOF 11
ENDMDL
MODEL 4
REMARK VINA RESULT:      -6.2     11.886     14.531
REMARK  11 active torsions:
REMARK  status: ('A' for Active; 'I' for Inactive)
REMARK    1  A    between atoms: C_2  and  C_4 
REMARK    2  A    between atoms: C_2  and  C_25 
REMARK    3  A    between atoms: N_3  and  C_11 
REMARK    4  A    between atoms: C_4  and  C_5 
REMARK    5  A    between atoms: C_5  and  C_11 
REMARK    6  A    between atoms: N_6  and  C_25 
REMARK       I    between atoms: N_6  and  C_9 
REMARK    7  A    between atoms: C_9  and  C_16 
REMARK    8  A    between atoms: O_13  and  C_23 
REMARK    9  A    between atoms: C_16  and  C_23 
REMARK   10  A    between atoms: C_16  and  N_18 
REMARK   11  A    between atoms: C_17  and  C_25 
ROOT
HETATM    1  N           1     -22.165  -4.766  -9.241  0.00  0.00    -0.345 N 
HETATM    2  H           1     -22.167  -5.718  -9.588  0.00  0.00     0.163 HD
HETATM    3  C           1     -21.529  -4.465  -8.068  0.00  0.00     0.251 C 
HETATM    4  O           1     -21.527  -3.329  -7.655  0.00  0.00    -0.271 OA
ENDROOT
BRANCH   1   5
HETATM    5  C           1     -22.839  -3.722  -9.989  0.00  0.00     0.185 C 
BRANCH   5   6
HETATM    6  C           1     -22.523  -3.876 -11.471  0.00  0.00     0.036 C 
BRANCH   6   7
HETATM    7  C           1     -22.707  -2.537 -12.173  0.00  0.00     0.004 C 
BRANCH   7   8
HETATM    8  C           1     -23.837  -2.645 -13.188  0.00  0.00     0.027 C 
BRANCH   8   9
HETATM    9  C           1     -23.419  -1.972 -14.488  0.00  0.00     0.229 C 
BRANCH   9  10
HETATM   10  N           1     -24.212  -0.714 -14.677  0.00  0.00    -0.079 N 
HETATM   11  H           1     -23.603   0.114 -14.487  0.00  0.00     0.274 HD
HETATM   12  H           1     -25.022  -0.709 -14.017  0.00  0.00     0.274 HD
HETATM   13  H           1     -24.565  -0.669 -15.659  0.00  0.00     0.274 HD
ENDBRANCH   9  10
ENDBRANCH   8   9
ENDBRANCH   7   8
ENDBRANCH   6   7
ENDBRANCH   5   6
BRANCH   5  14
HETATM   14  C           1     -24.328  -3.833  -9.778  0.00  0.00     0.196 C 
HETATM   15  O           1     -24.889  -4.949  -9.850  0.00  0.00    -0.646 OA
HETATM   16  O           1     -25.003  -2.810  -9.531  0.00  0.00    -0.646 OA
ENDBRANCH   5  14
ENDBRANCH   1   5
BRANCH   3  17
HETATM   17  C           1     -20.828  -5.552  -7.290  0.00  0.00     0.302 C 
BRANCH  17  18
HETATM   18  C           1     -21.680  -5.948  -6.091  0.00  0.00     0.153 C 
HETATM   19  C           1     -20.923  -5.636  -4.806  0.00  0.00     0.042 C 
BRANCH  18  20
HETATM   20  O           1     -22.882  -5.226  -6.112  0.00  0.00    -0.393 OA
HETATM   21  H           1     -22.940  -4.815  -6.958  0.00  0.00     0.210 HD
ENDBRANCH  18  20
ENDBRANCH  17  18
BRANCH  17  22
HETATM   22  N           1     -19.499  -5.046  -6.814  0.00  0.00    -0.064 N 
HETATM   23  H           1     -18.904  -5.854  -6.520  0.00  0.00     0.275 HD
HETATM   24  H           1     -19.025  -4.530  -7.588  0.00  0.00     0.275 HD
HETATM   25  H           1     -19.642  -4.404  -6.002  0.00  0.00     0.275 HD
ENDBRANCH  17  22
ENDBRANCH   3  17
TORSDOF 11
ENDMDL
MODEL 5
REMARK VINA RESULT:      -5.8      1.692      2.182
REMARK  11 active torsions:
REMARK  status: ('A' for Active; 'I' for Inactive)
REMARK    1  A    between atoms: C_2  and  C_4 
REMARK    2  A    between atoms: C_2  and  C_25 
REMARK    3  A    between atoms: N_3  and  C_11 
REMARK    4  A    between atoms: C_4  and  C_5 
REMARK    5  A    between atoms: C_5  and  C_11 
REMARK    6  A    between atoms: N_6  and  C_25 
REMARK       I    between atoms: N_6  and  C_9 
REMARK    7  A    between atoms: C_9  and  C_16 
REMARK    8  A    between atoms: O_13  and  C_23 
REMARK    9  A    between atoms: C_16  and  C_23 
REMARK   10  A    between atoms: C_16  and  N_18 
REMARK   11  A    between atoms: C_17  and  C_25 
ROOT
HETATM    1  N           1     -34.794  -1.176 -13.184  0.00  0.00    -0.345 N 
HETATM    2  H           1     -33.824  -0.993 -13.409  0.00  0.00     0.163 HD
HETATM    3  C           1     -35.777  -0.845 -14.076  0.00  0.00     0.251 C 
HETATM    4  O           1     -36.936  -1.063 -13.807  0.00  0.00    -0.271 OA
ENDROOT
BRANCH   1   5
HETATM    5  C           1     -35.141  -1.788 -11.917  0.00  0.00     0.185 C 
BRANCH   5   6
HETATM    6  C           1     -33.875  -2.024 -11.104  0.00  0.00     0.036 C 
BRANCH   6   7
HETATM    7  C           1     -33.452  -3.481 -11.230  0.00  0.00     0.004 C 
BRANCH   7   8
HETATM    8  C           1     -34.596  -4.383 -10.786  0.00  0.00     0.027 C 
BRANCH   8   9
HETATM    9  C           1     -34.500  -5.720 -11.508  0.00  0.00     0.229 C 
BRANCH   9  10
HETATM   10  N           1     -33.186  -6.369 -11.188  0.00  0.00    -0.079 N 
HETATM   11  H           1     -32.882  -6.956 -11.997  0.00  0.00     0.274 HD
HETATM   12  H           1     -33.292  -6.972 -10.341  0.00  0.00     0.274 HD
HETATM   13  H           1     -32.470  -5.632 -11.002  0.00  0.00     0.274 HD
ENDBRANCH   9  10
ENDBRANCH   8   9
ENDBRANCH   7   8
ENDBRANCH   6   7
ENDBRANCH   5   6
BRANCH   5  14
HETATM   14  C           1     -36.066  -0.874 -11.153  0.00  0.00     0.196 C 
HETATM   15  O           1     -37.120  -1.326 -10.653  0.00  0.00    -0.646 OA
HETATM   16  O           1     -35.780   0.335 -11.018  0.00  0.00    -0.646 OA
ENDBRANCH   5  14
ENDBRANCH   1   5
BRANCH   3  17
HETATM   17  C           1     -35.416  -0.207 -15.395  0.00  0.00     0.302 C 
BRANCH  17  18
HETATM   18  C           1     -35.060   1.257 -15.172  0.00  0.00     0.153 C 
HETATM   19  C           1     -36.039   2.139 -15.936  0.00  0.00     0.042 C 
BRANCH  18  20
HETATM   20  O           1     -35.135   1.553 -13.803  0.00  0.00    -0.393 OA
HETATM   21  H           1     -34.258   1.501 -13.463  0.00  0.00     0.210 HD
ENDBRANCH  18  20
ENDBRANCH  17  18
BRANCH  17  22
HETATM   22  N           1     -36.584  -0.300 -16.331  0.00  0.00    -0.064 N 
HETATM   23  H           1     -37.377  -0.785 -15.852  0.00  0.00     0.275 HD
HETATM   24  H           1     -36.884   0.661 -16.611  0.00  0.00     0.275 HD
HETATM   25  H           1     -36.307  -0.840 -17.181  0.00  0.00     0.275 HD
ENDBRANCH  17  22
ENDBRANCH   3  17
TORSDOF 11
ENDMDL
MODEL 6
REMARK VINA RESULT:      -5.7     12.631     14.400
REMARK  11 active torsions:
REMARK  status: ('A' for Active; 'I' for Inactive)
REMARK    1  A    between atoms: C_2  and  C_4 
REMARK    2  A    between atoms: C_2  and  C_25 
REMARK    3  A    between atoms: N_3  and  C_11 
REMARK    4  A    between atoms: C_4  and  C_5 
REMARK    5  A    between atoms: C_5  and  C_11 
REMARK    6  A    between atoms: N_6  and  C_25 
REMARK       I    between atoms: N_6  and  C_9 
REMARK    7  A    between atoms: C_9  and  C_16 
REMARK    8  A    between atoms: O_13  and  C_23 
REMARK    9  A    between atoms: C_16  and  C_23 
REMARK   10  A    between atoms: C_16  and  N_18 
REMARK   11  A    between atoms: C_17  and  C_25 
ROOT
HETATM    1  N           1     -22.204  -5.210  -8.558  0.00  0.00    -0.345 N 
HETATM    2  H           1     -22.279  -6.152  -8.923  0.00  0.00     0.163 HD
HETATM    3  C           1     -23.069  -4.240  -8.984  0.00  0.00     0.251 C 
HETATM    4  O           1     -22.979  -3.116  -8.549  0.00  0.00    -0.271 OA
ENDROOT
BRANCH   1   5
HETATM    5  C           1     -21.179  -4.890  -7.583  0.00  0.00     0.185 C 
BRANCH   5   6
HETATM    6  C           1     -21.043  -6.041  -6.595  0.00  0.00     0.036 C 
BRANCH   6   7
HETATM    7  C           1     -22.226  -6.030  -5.636  0.00  0.00     0.004 C 
BRANCH   7   8
HETATM    8  C           1     -21.950  -6.979  -4.477  0.00  0.00     0.027 C 
BRANCH   8   9
HETATM    9  C           1     -21.301  -6.211  -3.334  0.00  0.00     0.229 C 
BRANCH   9  10
HETATM   10  N           1     -22.325  -5.933  -2.274  0.00  0.00    -0.079 N 
HETATM   11  H           1     -22.605  -4.927  -2.316  0.00  0.00     0.274 HD
HETATM   12  H           1     -21.919  -6.141  -1.333  0.00  0.00     0.274 HD
HETATM   13  H           1     -23.163  -6.536  -2.432  0.00  0.00     0.274 HD
ENDBRANCH   9  10
ENDBRANCH   8   9
ENDBRANCH   7   8
ENDBRANCH   6   7
ENDBRANCH   5   6
BRANCH   5  14
HETATM   14  C           1     -19.863  -4.676  -8.290  0.00  0.00     0.196 C 
HETATM   15  O           1     -19.805  -4.739  -9.537  0.00  0.00    -0.646 OA
HETATM   16  O           1     -18.831  -4.433  -7.627  0.00  0.00    -0.646 OA
ENDBRANCH   5  14
ENDBRANCH   1   5
BRANCH   3  17
HETATM   17  C           1     -24.136  -4.573  -9.999  0.00  0.00     0.302 C 
BRANCH  17  18
HETATM   18  C           1     -23.588  -4.355 -11.403  0.00  0.00     0.153 C 
HETATM   19  C           1     -24.171  -3.073 -11.982  0.00  0.00     0.042 C 
BRANCH  18  20
HETATM   20  O           1     -22.190  -4.250 -11.349  0.00  0.00    -0.393 OA
HETATM   21  H           1     -21.843  -4.897 -11.939  0.00  0.00     0.210 HD
ENDBRANCH  18  20
ENDBRANCH  17  18
BRANCH  17  22
HETATM   22  N           1     -25.324  -3.684  -9.783  0.00  0.00    -0.064 N 
HETATM   23  H           1     -25.519  -3.606  -8.759  0.00  0.00     0.275 HD
HETATM   24  H           1     -25.125  -2.735 -10.172  0.00  0.00     0.275 HD
HETATM   25  H           1     -26.155  -4.091 -10.267  0.00  0.00     0.275 HD
ENDBRANCH  17  22
ENDBRANCH   3  17
TORSDOF 11
ENDMDL
MODEL 7
REMARK VINA RESULT:      -5.7     12.259     13.716
REMARK  11 active torsions:
REMARK  status: ('A' for Active; 'I' for Inactive)
REMARK    1  A    between atoms: C_2  and  C_4 
REMARK    2  A    between atoms: C_2  and  C_25 
REMARK    3  A    between atoms: N_3  and  C_11 
REMARK    4  A    between atoms: C_4  and  C_5 
REMARK    5  A    between atoms: C_5  and  C_11 
REMARK    6  A    between atoms: N_6  and  C_25 
REMARK       I    between atoms: N_6  and  C_9 
REMARK    7  A    between atoms: C_9  and  C_16 
REMARK    8  A    between atoms: O_13  and  C_23 
REMARK    9  A    between atoms: C_16  and  C_23 
REMARK   10  A    between atoms: C_16  and  N_18 
REMARK   11  A    between atoms: C_17  and  C_25 
ROOT
HETATM    1  N           1     -21.992  -3.348  -9.456  0.00  0.00    -0.345 N 
HETATM    2  H           1     -21.824  -2.354  -9.360  0.00  0.00     0.163 HD
HETATM    3  C           1     -22.281  -3.877 -10.685  0.00  0.00     0.251 C 
HETATM    4  O           1     -22.482  -5.063 -10.800  0.00  0.00    -0.271 OA
ENDROOT
BRANCH   1   5
HETATM    5  C           1     -21.927  -4.210  -8.292  0.00  0.00     0.185 C 
BRANCH   5   6
HETATM    6  C           1     -20.959  -3.619  -7.277  0.00  0.00     0.036 C 
BRANCH   6   7
HETATM    7  C           1     -19.994  -4.699  -6.805  0.00  0.00     0.004 C 
BRANCH   7   8
HETATM    8  C           1     -20.161  -4.910  -5.306  0.00  0.00     0.027 C 
BRANCH   8   9
HETATM    9  C           1     -20.729  -6.298  -5.048  0.00  0.00     0.229 C 
BRANCH   9  10
HETATM   10  N           1     -22.063  -6.175  -4.372  0.00  0.00    -0.079 N 
HETATM   11  H           1     -22.083  -5.302  -3.798  0.00  0.00     0.274 HD
HETATM   12  H           1     -22.217  -7.002  -3.752  0.00  0.00     0.274 HD
HETATM   13  H           1     -22.816  -6.136  -5.094  0.00  0.00     0.274 HD
ENDBRANCH   9  10
ENDBRANCH   8   9
ENDBRANCH   7   8
ENDBRANCH   6   7
ENDBRANCH   5   6
BRANCH   5  14
HETATM   14  C           1     -23.299  -4.322  -7.673  0.00  0.00     0.196 C 
HETATM   15  O           1     -23.427  -4.784  -6.518  0.00  0.00    -0.646 OA
HETATM   16  O           1     -24.306  -3.952  -8.314  0.00  0.00    -0.646 OA
ENDBRANCH   5  14
ENDBRANCH   1   5
BRANCH   3  17
HETATM   17  C           1     -22.348  -2.980 -11.896  0.00  0.00     0.302 C 
BRANCH  17  18
HETATM   18  C           1     -23.804  -2.678 -12.226  0.00  0.00     0.153 C 
HETATM   19  C           1     -24.220  -3.470 -13.458  0.00  0.00     0.042 C 
BRANCH  18  20
HETATM   20  O           1     -24.614  -3.043 -11.140  0.00  0.00    -0.393 OA
HETATM   21  H           1     -24.041  -3.368 -10.467  0.00  0.00     0.210 HD
ENDBRANCH  18  20
ENDBRANCH  17  18
BRANCH  17  22
HETATM   22  N           1     -21.704  -3.668 -13.063  0.00  0.00    -0.064 N 
HETATM   23  H           1     -21.963  -3.172 -13.946  0.00  0.00     0.275 HD
HETATM   24  H           1     -20.666  -3.651 -12.947  0.00  0.00     0.275 HD
HETATM   25  H           1     -22.033  -4.658 -13.108  0.00  0.00     0.275 HD
ENDBRANCH  17  22
ENDBRANCH   3  17
TORSDOF 11
ENDMDL
MODEL 8
REMARK VINA RESULT:      -5.6      1.849      2.405
REMARK  11 active torsions:
REMARK  status: ('A' for Active; 'I' for Inactive)
REMARK    1  A    between atoms: C_2  and  C_4 
REMARK    2  A    between atoms: C_2  and  C_25 
REMARK    3  A    between atoms: N_3  and  C_11 
REMARK    4  A    between atoms: C_4  and  C_5 
REMARK    5  A    between atoms: C_5  and  C_11 
REMARK    6  A    between atoms: N_6  and  C_25 
REMARK       I    between atoms: N_6  and  C_9 
REMARK    7  A    between atoms: C_9  and  C_16 
REMARK    8  A    between atoms: O_13  and  C_23 
REMARK    9  A    between atoms: C_16  and  C_23 
REMARK   10  A    between atoms: C_16  and  N_18 
REMARK   11  A    between atoms: C_17  and  C_25 
ROOT
HETATM    1  N           1     -36.068  -0.087 -12.930  0.00  0.00    -0.345 N 
HETATM    2  H           1     -35.220   0.459 -13.016  0.00  0.00     0.163 HD
HETATM    3  C           1     -36.965  -0.127 -13.963  0.00  0.00     0.251 C 
HETATM    4  O           1     -37.977  -0.779 -13.860  0.00  0.00    -0.271 OA
ENDROOT
BRANCH   1   5
HETATM    5  C           1     -36.332  -0.829 -11.712  0.00  0.00     0.185 C 
BRANCH   5   6
HETATM    6  C           1     -35.035  -1.438 -11.198  0.00  0.00     0.036 C 
BRANCH   6   7
HETATM    7  C           1     -35.074  -2.949 -11.380  0.00  0.00     0.004 C 
BRANCH   7   8
HETATM    8  C           1     -34.120  -3.352 -12.497  0.00  0.00     0.027 C 
BRANCH   8   9
HETATM    9  C           1     -32.970  -4.161 -11.915  0.00  0.00     0.229 C 
BRANCH   9  10
HETATM   10  N           1     -33.497  -5.446 -11.349  0.00  0.00    -0.079 N 
HETATM   11  H           1     -33.260  -5.502 -10.333  0.00  0.00     0.274 HD
HETATM   12  H           1     -33.064  -6.253 -11.852  0.00  0.00     0.274 HD
HETATM   13  H           1     -34.534  -5.479 -11.468  0.00  0.00     0.274 HD
ENDBRANCH   9  10
ENDBRANCH   8   9
ENDBRANCH   7   8
ENDBRANCH   6   7
ENDBRANCH   5   6
BRANCH   5  14
HETATM   14  C           1     -36.898   0.103 -10.669  0.00  0.00     0.196 C 
HETATM   15  O           1     -36.198   0.448  -9.692  0.00  0.00    -0.646 OA
HETATM   16  O           1     -38.068   0.532 -10.782  0.00  0.00    -0.646 OA
ENDBRANCH   5  14
ENDBRANCH   1   5
BRANCH   3  17
HETATM   17  C           1     -36.690   0.644 -15.230  0.00  0.00     0.302 C 
BRANCH  17  18
HETATM   18  C           1     -36.519  -0.328 -16.391  0.00  0.00     0.153 C 
HETATM   19  C           1     -35.350  -1.260 -16.103  0.00  0.00     0.042 C 
BRANCH  18  20
HETATM   20  O           1     -37.692  -1.083 -16.544  0.00  0.00    -0.393 OA
HETATM   21  H           1     -37.924  -1.404 -15.690  0.00  0.00     0.210 HD
ENDBRANCH  18  20
ENDBRANCH  17  18
BRANCH  17  22
HETATM   22  N           1     -35.435   1.448 -15.063  0.00  0.00    -0.064 N 
HETATM   23  H           1     -35.682   2.427 -14.793  0.00  0.00     0.275 HD
HETATM   24  H           1     -34.844   1.020 -14.316  0.00  0.00     0.275 HD
HETATM   25  H           1     -34.905   1.457 -15.964  0.00  0.00     0.275 HD
ENDBRANCH  17  22
ENDBRANCH   3  17
TORSDOF 11
ENDMDL
MODEL 9
REMARK VINA RESULT:      -5.4     14.752     17.801
REMARK  11 active torsions:
REMARK  status: ('A' for Active; 'I' for Inactive)
REMARK    1  A    between atoms: C_2  and  C_4 
REMARK    2  A    between atoms: C_2  and  C_25 
REMARK    3  A    between atoms: N_3  and  C_11 
REMARK    4  A    between atoms: C_4  and  C_5 
REMARK    5  A    between atoms: C_5  and  C_11 
REMARK    6  A    between atoms: N_6  and  C_25 
REMARK       I    between atoms: N_6  and  C_9 
REMARK    7  A    between atoms: C_9  and  C_16 
REMARK    8  A    between atoms: O_13  and  C_23 
REMARK    9  A    between atoms: C_16  and  C_23 
REMARK   10  A    between atoms: C_16  and  N_18 
REMARK   11  A    between atoms: C_17  and  C_25 
ROOT
HETATM    1  N           1     -20.715  -8.144  -5.668  0.00  0.00    -0.345 N 
HETATM    2  H           1     -21.287  -8.466  -6.439  0.00  0.00     0.163 HD
HETATM    3  C           1     -19.994  -9.042  -4.928  0.00  0.00     0.251 C 
HETATM    4  O           1     -19.311  -8.657  -4.008  0.00  0.00    -0.271 OA
ENDROOT
BRANCH   1   5
HETATM    5  C           1     -20.660  -6.731  -5.348  0.00  0.00     0.185 C 
BRANCH   5   6
HETATM    6  C           1     -20.605  -5.921  -6.637  0.00  0.00     0.036 C 
BRANCH   6   7
HETATM    7  C           1     -20.397  -4.449  -6.304  0.00  0.00     0.004 C 
BRANCH   7   8
HETATM    8  C           1     -21.229  -3.592  -7.249  0.00  0.00     0.027 C 
BRANCH   8   9
HETATM    9  C           1     -22.235  -4.471  -7.980  0.00  0.00     0.229 C 
BRANCH   9  10
HETATM   10  N           1     -23.601  -4.259  -7.398  0.00  0.00    -0.079 N 
HETATM   11  H           1     -23.543  -4.290  -6.355  0.00  0.00     0.274 HD
HETATM   12  H           1     -24.243  -5.012  -7.732  0.00  0.00     0.274 HD
HETATM   13  H           1     -23.968  -3.329  -7.700  0.00  0.00     0.274 HD
ENDBRANCH   9  10
ENDBRANCH   8   9
ENDBRANCH   7   8
ENDBRANCH   6   7
ENDBRANCH   5   6
BRANCH   5  14
HETATM   14  C           1     -21.889  -6.344  -4.563  0.00  0.00     0.196 C 
HETATM   15  O           1     -21.793  -6.068  -3.347  0.00  0.00    -0.646 OA
HETATM   16  O           1     -23.003  -6.299  -5.128  0.00  0.00    -0.646 OA
ENDBRANCH   5  14
ENDBRANCH   1   5
BRANCH   3  17
HETATM   17  C           1     -20.052 -10.512  -5.261  0.00  0.00     0.302 C 
BRANCH  17  18
HETATM   18  C           1     -18.730 -10.946  -5.882  0.00  0.00     0.153 C 
HETATM   19  C           1     -18.996 -11.976  -6.972  0.00  0.00     0.042 C 
BRANCH  18  20
HETATM   20  O           1     -18.088  -9.830  -6.441  0.00  0.00    -0.393 OA
HETATM   21  H           1     -17.859 -10.061  -7.325  0.00  0.00     0.210 HD
ENDBRANCH  18  20
ENDBRANCH  17  18
BRANCH  17  22
HETATM   22  N           1     -21.166 -10.761  -6.233  0.00  0.00    -0.064 N 
HETATM   23  H           1     -21.407 -11.778  -6.234  0.00  0.00     0.275 HD
HETATM   24  H           1     -22.005 -10.205  -5.951  0.00  0.00     0.275 HD
HETATM   25  H           1     -20.863 -10.472  -7.190  0.00  0.00     0.275 HD
ENDBRANCH  17  22
ENDBRANCH   3  17
TORSDOF 11
ENDMDL
