MODEL 1
REMARK VINA RESULT:      -6.8      0.000      0.000
REMARK  15 active torsions:
REMARK  status: ('A' for Active; 'I' for Inactive)
REMARK    1  A    between atoms: C_2  and  C_4 
REMARK    2  A    between atoms: C_4  and  C_5 
REMARK    3  A    between atoms: C_5  and  C_6 
REMARK    4  A    between atoms: C_5  and  N_9 
REMARK    5  A    between atoms: N_9  and  C_10 
REMARK    6  A    between atoms: C_10  and  C_11 
REMARK    7  A    between atoms: C_11  and  C_12 
REMARK    8  A    between atoms: C_12  and  C_13 
REMARK    9  A    between atoms: C_12  and  N_16 
REMARK       I    between atoms: N_16  and  C_17 
REMARK   10  A    between atoms: C_17  and  C_18 
REMARK   11  A    between atoms: C_18  and  C_19 
REMARK   12  A    between atoms: C_18  and  N_26 
REMARK   13  A    between atoms: C_19  and  C_20 
REMARK   14  A    between atoms: C_20  and  C_21 
REMARK   15  A    between atoms: C_21  and  N_22 
REMARK       I    between atoms: N_22  and  C_23 
REMARK       I    between atoms: C_23  and  N_24 
ROOT
HETATM    1  N           1     -21.100  -5.468  -5.090  0.00  0.00    -0.345 N 
HETATM    2  C           1     -21.496  -6.586  -4.407  0.00  0.00     0.249 C 
HETATM    3  O           1     -21.989  -7.515  -5.001  0.00  0.00    -0.271 OA
HETATM    4  H           1     -20.686  -4.691  -4.592  0.00  0.00     0.163 HD
ENDROOT
BRANCH   2   5
HETATM    5  C           1     -21.315  -6.659  -2.910  0.00  0.00     0.274 C 
BRANCH   5   6
HETATM    6  C           1     -21.499  -8.098  -2.446  0.00  0.00     0.044 C 
BRANCH   6   7
HETATM    7  C           1     -20.185  -8.623  -1.883  0.00  0.00     0.023 C 
BRANCH   7   8
HETATM    8  C           1     -19.281  -9.063  -3.027  0.00  0.00     0.138 C 
BRANCH   8   9
HETATM    9  N           1     -20.009 -10.001  -3.894  0.00  0.00    -0.227 N 
HETATM   10  C           1     -19.871  -9.937  -5.151  0.00  0.00     0.665 C 
HETATM   11  N           1     -20.498 -10.744  -5.899  0.00  0.00    -0.235 N 
HETATM   12  N           1     -19.085  -9.043  -5.674  0.00  0.00    -0.235 N 
HETATM   13  H           1     -20.383 -10.693  -6.940  0.00  0.00     0.174 HD
HETATM   14  H           1     -21.132 -11.467  -5.476  0.00  0.00     0.174 HD
HETATM   15  H           1     -18.972  -8.991  -6.712  0.00  0.00     0.174 HD
HETATM   16  H           1     -18.568  -8.377  -5.058  0.00  0.00     0.174 HD
HETATM   17  H           1     -20.643 -10.723  -3.472  0.00  0.00     0.177 HD
ENDBRANCH   8   9
ENDBRANCH   7   8
ENDBRANCH   6   7
ENDBRANCH   5   6
BRANCH   5  18
HETATM   18  N           1     -22.335  -5.786  -2.242  0.00  0.00    -0.067 N 
HETATM   19  H           1     -21.996  -4.797  -2.233  0.00  0.00     0.275 HD
HETATM   20  H           1     -23.237  -5.840  -2.766  0.00  0.00     0.275 HD
HETATM   21  H           1     -22.482  -6.111  -1.260  0.00  0.00     0.275 HD
ENDBRANCH   5  18
ENDBRANCH   2   5
BRANCH   1  22
HETATM   22  C           1     -21.272  -5.398  -6.528  0.00  0.00     0.187 C 
BRANCH  22  23
HETATM   23  C           1     -21.841  -4.037  -6.905  0.00  0.00     0.066 C 
BRANCH  23  24
HETATM   24  C           1     -22.981  -4.220  -7.899  0.00  0.00     0.273 C 
BRANCH  24  25
HETATM   25  N           1     -22.668  -3.529  -9.120  0.00  0.00     0.099 N 
HETATM   26  H           1     -21.892  -2.887  -8.960  0.00  0.00     0.317 HD
BRANCH  25  27
HETATM   27  C           1     -22.280  -4.516 -10.093  0.00  0.00     0.330 C 
BRANCH  27  28
HETATM   28  C           1     -23.402  -4.697 -11.107  0.00  0.00     0.160 C 
BRANCH  28  29
HETATM   29  C           1     -24.284  -3.472 -11.106  0.00  0.00     0.175 C 
HETATM   30  O           1     -25.247  -3.396 -10.312  0.00  0.00    -0.648 OA
HETATM   31  O           1     -24.052  -2.534 -11.899  0.00  0.00    -0.648 OA
ENDBRANCH  28  29
ENDBRANCH  27  28
BRANCH  27  32
HETATM   32  C           1     -21.029  -4.057 -10.801  0.00  0.00     0.207 C 
HETATM   33  O           1     -20.959  -2.895 -11.257  0.00  0.00    -0.646 OA
HETATM   34  O           1     -20.063  -4.840 -10.933  0.00  0.00    -0.646 OA
ENDBRANCH  27  32
ENDBRANCH  25  27
ENDBRANCH  24  25
ENDBRANCH  23  24
ENDBRANCH  22  23
BRANCH  22  35
HETATM   35  C           1     -19.937  -5.591  -7.204  0.00  0.00     0.196 C 
HETATM   36  O           1     -19.415  -6.726  -7.246  0.00  0.00    -0.646 OA
HETATM   37  O           1     -19.353  -4.616  -7.724  0.00  0.00    -0.646 OA
ENDBRANCH  22  35
ENDBRANCH   1  22
TORSDOF 15
ENDMDL
MODEL 2
REMARK VINA RESULT:      -6.6      1.651      2.306
REMARK  15 active torsions:
REMARK  status: ('A' for Active; 'I' for Inactive)
REMARK    1  A    between atoms: C_2  and  C_4 
REMARK    2  A    between atoms: C_4  and  C_5 
REMARK    3  A    between atoms: C_5  and  C_6 
REMARK    4  A    between atoms: C_5  and  N_9 
REMARK    5  A    between atoms: N_9  and  C_10 
REMARK    6  A    between atoms: C_10  and  C_11 
REMARK    7  A    between atoms: C_11  and  C_12 
REMARK    8  A    between atoms: C_12  and  C_13 
REMARK    9  A    between atoms: C_12  and  N_16 
REMARK       I    between atoms: N_16  and  C_17 
REMARK   10  A    between atoms: C_17  and  C_18 
REMARK   11  A    between atoms: C_18  and  C_19 
REMARK   12  A    between atoms: C_18  and  N_26 
REMARK   13  A    between atoms: C_19  and  C_20 
REMARK   14  A    between atoms: C_20  and  C_21 
REMARK   15  A    between atoms: C_21  and  N_22 
REMARK       I    between atoms: N_22  and  C_23 
REMARK       I    between atoms: C_23  and  N_24 
ROOT
HETATM    1  N           1     -20.985  -5.420  -4.948  0.00  0.00    -0.345 N 
HETATM    2  C           1     -21.480  -6.477  -4.232  0.00  0.00     0.249 C 
HETATM    3  O           1     -22.054  -7.376  -4.799  0.00  0.00    -0.271 OA
HETATM    4  H           1     -20.504  -4.668  -4.472  0.00  0.00     0.163 HD
ENDROOT
BRANCH   2   5
HETATM    5  C           1     -21.306  -6.521  -2.733  0.00  0.00     0.274 C 
BRANCH   5   6
HETATM    6  C           1     -21.334  -7.969  -2.260  0.00  0.00     0.044 C 
BRANCH   6   7
HETATM    7  C           1     -22.051  -8.052  -0.919  0.00  0.00     0.023 C 
BRANCH   7   8
HETATM    8  C           1     -22.385  -9.506  -0.612  0.00  0.00     0.138 C 
BRANCH   8   9
HETATM    9  N           1     -21.336 -10.377  -1.161  0.00  0.00    -0.227 N 
HETATM   10  C           1     -20.696 -11.156  -0.395  0.00  0.00     0.665 C 
HETATM   11  N           1     -19.792 -11.907  -0.867  0.00  0.00    -0.235 N 
HETATM   12  N           1     -20.966 -11.185   0.876  0.00  0.00    -0.235 N 
HETATM   13  H           1     -19.262 -12.553  -0.233  0.00  0.00     0.174 HD
HETATM   14  H           1     -19.574 -11.884  -1.895  0.00  0.00     0.174 HD
HETATM   15  H           1     -20.438 -11.828   1.508  0.00  0.00     0.174 HD
HETATM   16  H           1     -21.712 -10.566   1.266  0.00  0.00     0.174 HD
HETATM   17  H           1     -21.118 -10.354  -2.187  0.00  0.00     0.177 HD
ENDBRANCH   8   9
ENDBRANCH   7   8
ENDBRANCH   6   7
ENDBRANCH   5   6
BRANCH   5  18
HETATM   18  N           1     -22.421  -5.761  -2.079  0.00  0.00    -0.067 N 
HETATM   19  H           1     -23.322  -5.978  -2.563  0.00  0.00     0.275 HD
HETATM   20  H           1     -22.490  -6.039  -1.075  0.00  0.00     0.275 HD
HETATM   21  H           1     -22.230  -4.736  -2.146  0.00  0.00     0.275 HD
ENDBRANCH   5  18
ENDBRANCH   2   5
BRANCH   1  22
HETATM   22  C           1     -21.151  -5.379  -6.387  0.00  0.00     0.187 C 
BRANCH  22  23
HETATM   23  C           1     -21.686  -4.013  -6.797  0.00  0.00     0.066 C 
BRANCH  23  24
HETATM   24  C           1     -22.959  -4.190  -7.615  0.00  0.00     0.273 C 
BRANCH  24  25
HETATM   25  N           1     -22.804  -3.542  -8.889  0.00  0.00     0.099 N 
HETATM   26  H           1     -22.066  -2.841  -8.828  0.00  0.00     0.317 HD
BRANCH  25  27
HETATM   27  C           1     -22.432  -4.546  -9.848  0.00  0.00     0.330 C 
BRANCH  27  28
HETATM   28  C           1     -23.577  -4.760 -10.829  0.00  0.00     0.160 C 
BRANCH  28  29
HETATM   29  C           1     -24.451  -3.530 -10.859  0.00  0.00     0.175 C 
HETATM   30  O           1     -24.244  -2.636 -11.709  0.00  0.00    -0.648 OA
HETATM   31  O           1     -25.382  -3.404 -10.034  0.00  0.00    -0.648 OA
ENDBRANCH  28  29
ENDBRANCH  27  28
BRANCH  27  32
HETATM   32  C           1     -21.204  -4.093 -10.599  0.00  0.00     0.207 C 
HETATM   33  O           1     -21.206  -2.995 -11.197  0.00  0.00    -0.646 OA
HETATM   34  O           1     -20.184  -4.816 -10.623  0.00  0.00    -0.646 OA
ENDBRANCH  27  32
ENDBRANCH  25  27
ENDBRANCH  24  25
ENDBRANCH  23  24
ENDBRANCH  22  23
BRANCH  22  35
HETATM   35  C           1     -19.819  -5.618  -7.054  0.00  0.00     0.196 C 
HETATM   36  O           1     -19.374  -6.781  -7.162  0.00  0.00    -0.646 OA
HETATM   37  O           1     -19.159  -4.653  -7.498  0.00  0.00    -0.646 OA
ENDBRANCH  22  35
ENDBRANCH   1  22
TORSDOF 15
ENDMDL
MODEL 3
REMARK VINA RESULT:      -6.5      2.893      8.799
REMARK  15 active torsions:
REMARK  status: ('A' for Active; 'I' for Inactive)
REMARK    1  A    between atoms: C_2  and  C_4 
REMARK    2  A    between atoms: C_4  and  C_5 
REMARK    3  A    between atoms: C_5  and  C_6 
REMARK    4  A    between atoms: C_5  and  N_9 
REMARK    5  A    between atoms: N_9  and  C_10 
REMARK    6  A    between atoms: C_10  and  C_11 
REMARK    7  A    between atoms: C_11  and  C_12 
REMARK    8  A    between atoms: C_12  and  C_13 
REMARK    9  A    between atoms: C_12  and  N_16 
REMARK       I    between atoms: N_16  and  C_17 
REMARK   10  A    between atoms: C_17  and  C_18 
REMARK   11  A    between atoms: C_18  and  C_19 
REMARK   12  A    between atoms: C_18  and  N_26 
REMARK   13  A    between atoms: C_19  and  C_20 
REMARK   14  A    between atoms: C_20  and  C_21 
REMARK   15  A    between atoms: C_21  and  N_22 
REMARK       I    between atoms: N_22  and  C_23 
REMARK       I    between atoms: C_23  and  N_24 
ROOT
HETATM    1  N           1     -21.539  -6.213  -6.433  0.00  0.00    -0.345 N 
HETATM    2  C           1     -20.996  -5.133  -7.076  0.00  0.00     0.249 C 
HETATM    3  O           1     -20.056  -4.550  -6.590  0.00  0.00    -0.271 OA
HETATM    4  H           1     -22.326  -6.701  -6.841  0.00  0.00     0.163 HD
ENDROOT
BRANCH   2   5
HETATM    5  C           1     -21.570  -4.672  -8.394  0.00  0.00     0.274 C 
BRANCH   5   6
HETATM    6  C           1     -20.449  -4.536  -9.416  0.00  0.00     0.044 C 
BRANCH   6   7
HETATM    7  C           1     -20.882  -3.583 -10.523  0.00  0.00     0.023 C 
BRANCH   7   8
HETATM    8  C           1     -21.849  -4.297 -11.458  0.00  0.00     0.138 C 
BRANCH   8   9
HETATM    9  N           1     -22.982  -3.410 -11.761  0.00  0.00    -0.227 N 
HETATM   10  C           1     -23.127  -2.947 -12.931  0.00  0.00     0.665 C 
HETATM   11  N           1     -24.102  -2.183 -13.193  0.00  0.00    -0.235 N 
HETATM   12  N           1     -22.275  -3.257 -13.863  0.00  0.00    -0.235 N 
HETATM   13  H           1     -24.223  -1.800 -14.162  0.00  0.00     0.174 HD
HETATM   14  H           1     -24.791  -1.933 -12.440  0.00  0.00     0.174 HD
HETATM   15  H           1     -22.395  -2.875 -14.828  0.00  0.00     0.174 HD
HETATM   16  H           1     -21.470  -3.887 -13.647  0.00  0.00     0.174 HD
HETATM   17  H           1     -23.670  -3.160 -11.009  0.00  0.00     0.177 HD
ENDBRANCH   8   9
ENDBRANCH   7   8
ENDBRANCH   6   7
ENDBRANCH   5   6
BRANCH   5  18
HETATM   18  N           1     -22.240  -3.343  -8.208  0.00  0.00    -0.067 N 
HETATM   19  H           1     -23.265  -3.442  -8.382  0.00  0.00     0.275 HD
HETATM   20  H           1     -22.084  -3.008  -7.231  0.00  0.00     0.275 HD
HETATM   21  H           1     -21.838  -2.653  -8.882  0.00  0.00     0.275 HD
ENDBRANCH   5  18
ENDBRANCH   2   5
BRANCH   1  22
HETATM   22  C           1     -20.987  -6.657  -5.168  0.00  0.00     0.187 C 
BRANCH  22  23
HETATM   23  C           1     -22.046  -6.530  -4.081  0.00  0.00     0.066 C 
BRANCH  23  24
HETATM   24  C           1     -21.377  -6.571  -2.713  0.00  0.00     0.273 C 
BRANCH  24  25
HETATM   25  N           1     -21.824  -7.734  -1.995  0.00  0.00     0.099 N 
HETATM   26  H           1     -22.077  -8.467  -2.658  0.00  0.00     0.317 HD
BRANCH  25  27
HETATM   27  C           1     -20.733  -8.186  -1.174  0.00  0.00     0.330 C 
BRANCH  27  28
HETATM   28  C           1     -21.265  -8.605   0.190  0.00  0.00     0.160 C 
BRANCH  28  29
HETATM   29  C           1     -22.774  -8.603   0.165  0.00  0.00     0.175 C 
HETATM   30  O           1     -23.397  -9.658  -0.081  0.00  0.00    -0.648 OA
HETATM   31  O           1     -23.402  -7.544   0.389  0.00  0.00    -0.648 OA
ENDBRANCH  28  29
ENDBRANCH  27  28
BRANCH  27  32
HETATM   32  C           1     -20.061  -9.364  -1.836  0.00  0.00     0.207 C 
HETATM   33  O           1     -20.627 -10.480  -1.851  0.00  0.00    -0.646 OA
HETATM   34  O           1     -18.939  -9.225  -2.369  0.00  0.00    -0.646 OA
ENDBRANCH  27  32
ENDBRANCH  25  27
ENDBRANCH  24  25
ENDBRANCH  23  24
ENDBRANCH  22  23
BRANCH  22  35
HETATM   35  C           1     -20.556  -8.098  -5.286  0.00  0.00     0.196 C 
HETATM   36  O           1     -19.401  -8.375  -5.674  0.00  0.00    -0.646 OA
HETATM   37  O           1     -21.354  -9.015  -4.994  0.00  0.00    -0.646 OA
ENDBRANCH  22  35
ENDBRANCH   1  22
TORSDOF 15
ENDMDL
MODEL 4
REMARK VINA RESULT:      -6.4     13.661     16.480
REMARK  15 active torsions:
REMARK  status: ('A' for Active; 'I' for Inactive)
REMARK    1  A    between atoms: C_2  and  C_4 
REMARK    2  A    between atoms: C_4  and  C_5 
REMARK    3  A    between atoms: C_5  and  C_6 
REMARK    4  A    between atoms: C_5  and  N_9 
REMARK    5  A    between atoms: N_9  and  C_10 
REMARK    6  A    between atoms: C_10  and  C_11 
REMARK    7  A    between atoms: C_11  and  C_12 
REMARK    8  A    between atoms: C_12  and  C_13 
REMARK    9  A    between atoms: C_12  and  N_16 
REMARK       I    between atoms: N_16  and  C_17 
REMARK   10  A    between atoms: C_17  and  C_18 
REMARK   11  A    between atoms: C_18  and  C_19 
REMARK   12  A    between atoms: C_18  and  N_26 
REMARK   13  A    between atoms: C_19  and  C_20 
REMARK   14  A    between atoms: C_20  and  C_21 
REMARK   15  A    between atoms: C_21  and  N_22 
REMARK       I    between atoms: N_22  and  C_23 
REMARK       I    between atoms: C_23  and  N_24 
ROOT
HETATM    1  N           1     -34.737  -1.733 -16.428  0.00  0.00    -0.345 N 
HETATM    2  C           1     -34.275  -2.993 -16.158  0.00  0.00     0.249 C 
HETATM    3  O           1     -34.551  -3.526 -15.110  0.00  0.00    -0.271 OA
HETATM    4  H           1     -34.505  -1.287 -17.305  0.00  0.00     0.163 HD
ENDROOT
BRANCH   2   5
HETATM    5  C           1     -33.421  -3.717 -17.170  0.00  0.00     0.274 C 
BRANCH   5   6
HETATM    6  C           1     -32.926  -5.028 -16.573  0.00  0.00     0.044 C 
BRANCH   6   7
HETATM    7  C           1     -31.408  -5.096 -16.681  0.00  0.00     0.023 C 
BRANCH   7   8
HETATM    8  C           1     -31.004  -6.414 -17.327  0.00  0.00     0.138 C 
BRANCH   8   9
HETATM    9  N           1     -29.837  -6.197 -18.195  0.00  0.00    -0.227 N 
HETATM   10  C           1     -28.711  -6.679 -17.875  0.00  0.00     0.665 C 
HETATM   11  N           1     -27.707  -6.492 -18.623  0.00  0.00    -0.235 N 
HETATM   12  N           1     -28.587  -7.365 -16.778  0.00  0.00    -0.235 N 
HETATM   13  H           1     -26.774  -6.892 -18.358  0.00  0.00     0.174 HD
HETATM   14  H           1     -27.808  -5.938 -19.510  0.00  0.00     0.174 HD
HETATM   15  H           1     -27.657  -7.763 -16.514  0.00  0.00     0.174 HD
HETATM   16  H           1     -29.416  -7.519 -16.161  0.00  0.00     0.174 HD
HETATM   17  H           1     -29.938  -5.644 -19.081  0.00  0.00     0.177 HD
ENDBRANCH   8   9
ENDBRANCH   7   8
ENDBRANCH   6   7
ENDBRANCH   5   6
BRANCH   5  18
HETATM   18  N           1     -32.246  -2.859 -17.535  0.00  0.00    -0.067 N 
HETATM   19  H           1     -32.448  -2.350 -18.425  0.00  0.00     0.275 HD
HETATM   20  H           1     -32.068  -2.169 -16.772  0.00  0.00     0.275 HD
HETATM   21  H           1     -31.402  -3.461 -17.663  0.00  0.00     0.275 HD
ENDBRANCH   5  18
ENDBRANCH   2   5
BRANCH   1  22
HETATM   22  C           1     -35.558  -1.038 -15.456  0.00  0.00     0.187 C 
BRANCH  22  23
HETATM   23  C           1     -34.740   0.066 -14.798  0.00  0.00     0.066 C 
BRANCH  23  24
HETATM   24  C           1     -35.421   0.503 -13.508  0.00  0.00     0.273 C 
BRANCH  24  25
HETATM   25  N           1     -34.939  -0.298 -12.415  0.00  0.00     0.099 N 
HETATM   26  H           1     -34.494   0.304 -11.722  0.00  0.00     0.317 HD
BRANCH  25  27
HETATM   27  C           1     -36.072  -0.955 -11.822  0.00  0.00     0.330 C 
BRANCH  27  28
HETATM   28  C           1     -35.594  -2.133 -10.983  0.00  0.00     0.160 C 
BRANCH  28  29
HETATM   29  C           1     -34.092  -2.243 -11.080  0.00  0.00     0.175 C 
HETATM   30  O           1     -33.365  -1.588 -10.302  0.00  0.00    -0.648 OA
HETATM   31  O           1     -33.574  -2.989 -11.940  0.00  0.00    -0.648 OA
ENDBRANCH  28  29
ENDBRANCH  27  28
BRANCH  27  32
HETATM   32  C           1     -36.815   0.021 -10.942  0.00  0.00     0.207 C 
HETATM   33  O           1     -38.019   0.274 -11.165  0.00  0.00    -0.646 OA
HETATM   34  O           1     -36.226   0.578  -9.990  0.00  0.00    -0.646 OA
ENDBRANCH  27  32
ENDBRANCH  25  27
ENDBRANCH  24  25
ENDBRANCH  23  24
ENDBRANCH  22  23
BRANCH  22  35
HETATM   35  C           1     -36.755  -0.434 -16.148  0.00  0.00     0.196 C 
HETATM   36  O           1     -37.649  -1.175 -16.611  0.00  0.00    -0.646 OA
HETATM   37  O           1     -36.853   0.807 -16.260  0.00  0.00    -0.646 OA
ENDBRANCH  22  35
ENDBRANCH   1  22
TORSDOF 15
ENDMDL
MODEL 5
REMARK VINA RESULT:      -6.3      3.511      8.145
REMARK  15 active torsions:
REMARK  status: ('A' for Active; 'I' for Inactive)
REMARK    1  A    between atoms: C_2  and  C_4 
REMARK    2  A    between atoms: C_4  and  C_5 
REMARK    3  A    between atoms: C_5  and  C_6 
REMARK    4  A    between atoms: C_5  and  N_9 
REMARK    5  A    between atoms: N_9  and  C_10 
REMARK    6  A    between atoms: C_10  and  C_11 
REMARK    7  A    between atoms: C_11  and  C_12 
REMARK    8  A    between atoms: C_12  and  C_13 
REMARK    9  A    between atoms: C_12  and  N_16 
REMARK       I    between atoms: N_16  and  C_17 
REMARK   10  A    between atoms: C_17  and  C_18 
REMARK   11  A    between atoms: C_18  and  C_19 
REMARK   12  A    between atoms: C_18  and  N_26 
REMARK   13  A    between atoms: C_19  and  C_20 
REMARK   14  A    between atoms: C_20  and  C_21 
REMARK   15  A    between atoms: C_21  and  N_22 
REMARK       I    between atoms: N_22  and  C_23 
REMARK       I    between atoms: C_23  and  N_24 
ROOT
HETATM    1  N           1     -20.948  -6.594  -3.623  0.00  0.00    -0.345 N 
HETATM    2  C           1     -20.967  -6.938  -4.948  0.00  0.00     0.249 C 
HETATM    3  O           1     -21.237  -8.069  -5.275  0.00  0.00    -0.271 OA
HETATM    4  H           1     -20.722  -5.647  -3.350  0.00  0.00     0.163 HD
ENDROOT
BRANCH   2   5
HETATM    5  C           1     -20.651  -5.904  -6.001  0.00  0.00     0.274 C 
BRANCH   5   6
HETATM    6  C           1     -21.949  -5.346  -6.570  0.00  0.00     0.044 C 
BRANCH   6   7
HETATM    7  C           1     -21.692  -3.970  -7.170  0.00  0.00     0.023 C 
BRANCH   7   8
HETATM    8  C           1     -22.251  -3.921  -8.586  0.00  0.00     0.138 C 
BRANCH   8   9
HETATM    9  N           1     -23.719  -3.853  -8.531  0.00  0.00    -0.227 N 
HETATM   10  C           1     -24.379  -3.577  -9.576  0.00  0.00     0.665 C 
HETATM   11  N           1     -25.643  -3.518  -9.529  0.00  0.00    -0.235 N 
HETATM   12  N           1     -23.759  -3.354 -10.696  0.00  0.00    -0.235 N 
HETATM   13  H           1     -26.190  -3.291 -10.395  0.00  0.00     0.174 HD
HETATM   14  H           1     -26.144  -3.699  -8.623  0.00  0.00     0.174 HD
HETATM   15  H           1     -24.304  -3.127 -11.558  0.00  0.00     0.174 HD
HETATM   16  H           1     -22.716  -3.403 -10.735  0.00  0.00     0.174 HD
HETATM   17  H           1     -24.220  -4.033  -7.626  0.00  0.00     0.177 HD
ENDBRANCH   8   9
ENDBRANCH   7   8
ENDBRANCH   6   7
ENDBRANCH   5   6
BRANCH   5  18
HETATM   18  N           1     -19.857  -6.540  -7.102  0.00  0.00    -0.067 N 
HETATM   19  H           1     -20.334  -7.415  -7.417  0.00  0.00     0.275 HD
HETATM   20  H           1     -19.782  -5.877  -7.906  0.00  0.00     0.275 HD
HETATM   21  H           1     -18.900  -6.773  -6.753  0.00  0.00     0.275 HD
ENDBRANCH   5  18
ENDBRANCH   2   5
BRANCH   1  22
HETATM   22  C           1     -21.253  -7.587  -2.612  0.00  0.00     0.187 C 
BRANCH  22  23
HETATM   23  C           1     -19.958  -8.077  -1.977  0.00  0.00     0.066 C 
BRANCH  23  24
HETATM   24  C           1     -19.618  -9.460  -2.519  0.00  0.00     0.273 C 
BRANCH  24  25
HETATM   25  N           1     -18.693  -9.332  -3.612  0.00  0.00     0.099 N 
HETATM   26  H           1     -18.146  -8.479  -3.498  0.00  0.00     0.317 HD
BRANCH  25  27
HETATM   27  C           1     -17.815 -10.471  -3.577  0.00  0.00     0.330 C 
BRANCH  27  28
HETATM   28  C           1     -17.312 -10.768  -4.984  0.00  0.00     0.160 C 
BRANCH  28  29
HETATM   29  C           1     -18.268 -10.181  -5.994  0.00  0.00     0.175 C 
HETATM   30  O           1     -19.278 -10.826  -6.348  0.00  0.00    -0.648 OA
HETATM   31  O           1     -18.048  -9.049  -6.478  0.00  0.00    -0.648 OA
ENDBRANCH  28  29
ENDBRANCH  27  28
BRANCH  27  32
HETATM   32  C           1     -16.642 -10.173  -2.675  0.00  0.00     0.207 C 
HETATM   33  O           1     -15.967  -9.136  -2.850  0.00  0.00    -0.646 OA
HETATM   34  O           1     -16.346 -10.964  -1.754  0.00  0.00    -0.646 OA
ENDBRANCH  27  32
ENDBRANCH  25  27
ENDBRANCH  24  25
ENDBRANCH  23  24
ENDBRANCH  22  23
BRANCH  22  35
HETATM   35  C           1     -22.132  -6.971  -1.551  0.00  0.00     0.196 C 
HETATM   36  O           1     -22.338  -7.580  -0.479  0.00  0.00    -0.646 OA
HETATM   37  O           1     -22.655  -5.852  -1.744  0.00  0.00    -0.646 OA
ENDBRANCH  22  35
ENDBRANCH   1  22
TORSDOF 15
ENDMDL
MODEL 6
REMARK VINA RESULT:      -6.3      3.234      8.733
REMARK  15 active torsions:
REMARK  status: ('A' for Active; 'I' for Inactive)
REMARK    1  A    between atoms: C_2  and  C_4 
REMARK    2  A    between atoms: C_4  and  C_5 
REMARK    3  A    between atoms: C_5  and  C_6 
REMARK    4  A    between atoms: C_5  and  N_9 
REMARK    5  A    between atoms: N_9  and  C_10 
REMARK    6  A    between atoms: C_10  and  C_11 
REMARK    7  A    between atoms: C_11  and  C_12 
REMARK    8  A    between atoms: C_12  and  C_13 
REMARK    9  A    between atoms: C_12  and  N_16 
REMARK       I    between atoms: N_16  and  C_17 
REMARK   10  A    between atoms: C_17  and  C_18 
REMARK   11  A    between atoms: C_18  and  C_19 
REMARK   12  A    between atoms: C_18  and  N_26 
REMARK   13  A    between atoms: C_19  and  C_20 
REMARK   14  A    between atoms: C_20  and  C_21 
REMARK   15  A    between atoms: C_21  and  N_22 
REMARK       I    between atoms: N_22  and  C_23 
REMARK       I    between atoms: C_23  and  N_24 
ROOT
HETATM    1  N           1     -20.577  -7.829  -4.508  0.00  0.00    -0.345 N 
HETATM    2  C           1     -20.413  -6.920  -5.519  0.00  0.00     0.249 C 
HETATM    3  O           1     -19.767  -7.214  -6.497  0.00  0.00    -0.271 OA
HETATM    4  H           1     -21.118  -7.583  -3.690  0.00  0.00     0.163 HD
ENDROOT
BRANCH   2   5
HETATM    5  C           1     -21.039  -5.551  -5.411  0.00  0.00     0.274 C 
BRANCH   5   6
HETATM    6  C           1     -21.996  -5.337  -6.577  0.00  0.00     0.044 C 
BRANCH   6   7
HETATM    7  C           1     -21.651  -4.036  -7.288  0.00  0.00     0.023 C 
BRANCH   7   8
HETATM    8  C           1     -22.172  -4.083  -8.718  0.00  0.00     0.138 C 
BRANCH   8   9
HETATM    9  N           1     -23.561  -3.603  -8.750  0.00  0.00    -0.227 N 
HETATM   10  C           1     -24.342  -3.989  -9.669  0.00  0.00     0.665 C 
HETATM   11  N           1     -25.539  -3.575  -9.696  0.00  0.00    -0.235 N 
HETATM   12  N           1     -23.916  -4.808 -10.583  0.00  0.00    -0.235 N 
HETATM   13  H           1     -26.187  -3.895 -10.457  0.00  0.00     0.174 HD
HETATM   14  H           1     -25.883  -2.914  -8.957  0.00  0.00     0.174 HD
HETATM   15  H           1     -24.561  -5.126 -11.341  0.00  0.00     0.174 HD
HETATM   16  H           1     -22.929  -5.149 -10.560  0.00  0.00     0.174 HD
HETATM   17  H           1     -23.905  -2.942  -8.011  0.00  0.00     0.177 HD
ENDBRANCH   8   9
ENDBRANCH   7   8
ENDBRANCH   6   7
ENDBRANCH   5   6
BRANCH   5  18
HETATM   18  N           1     -19.964  -4.506  -5.451  0.00  0.00    -0.067 N 
HETATM   19  H           1     -20.179  -3.812  -6.202  0.00  0.00     0.275 HD
HETATM   20  H           1     -19.919  -4.018  -4.529  0.00  0.00     0.275 HD
HETATM   21  H           1     -19.044  -4.960  -5.651  0.00  0.00     0.275 HD
ENDBRANCH   5  18
ENDBRANCH   2   5
BRANCH   1  22
HETATM   22  C           1     -19.977  -9.145  -4.612  0.00  0.00     0.187 C 
BRANCH  22  23
HETATM   23  C           1     -19.477  -9.583  -3.242  0.00  0.00     0.066 C 
BRANCH  23  24
HETATM   24  C           1     -20.001  -8.625  -2.179  0.00  0.00     0.273 C 
BRANCH  24  25
HETATM   25  N           1     -20.698  -9.368  -1.164  0.00  0.00     0.099 N 
HETATM   26  H           1     -20.303  -9.147  -0.249  0.00  0.00     0.317 HD
BRANCH  25  27
HETATM   27  C           1     -22.078  -8.967  -1.199  0.00  0.00     0.330 C 
BRANCH  27  28
HETATM   28  C           1     -22.943 -10.073  -0.610  0.00  0.00     0.160 C 
BRANCH  28  29
HETATM   29  C           1     -22.101 -11.306  -0.388  0.00  0.00     0.175 C 
HETATM   30  O           1     -21.844 -12.069  -1.344  0.00  0.00    -0.648 OA
HETATM   31  O           1     -21.660 -11.564   0.753  0.00  0.00    -0.648 OA
ENDBRANCH  28  29
ENDBRANCH  27  28
BRANCH  27  32
HETATM   32  C           1     -22.255  -7.705  -0.390  0.00  0.00     0.207 C 
HETATM   33  O           1     -22.017  -7.710   0.837  0.00  0.00    -0.646 OA
HETATM   34  O           1     -22.641  -6.654  -0.947  0.00  0.00    -0.646 OA
ENDBRANCH  27  32
ENDBRANCH  25  27
ENDBRANCH  24  25
ENDBRANCH  23  24
ENDBRANCH  22  23
BRANCH  22  35
HETATM   35  C           1     -21.006 -10.129  -5.111  0.00  0.00     0.196 C 
HETATM   36  O           1     -20.960 -10.535  -6.292  0.00  0.00    -0.646 OA
HETATM   37  O           1     -21.903 -10.539  -4.344  0.00  0.00    -0.646 OA
ENDBRANCH  22  35
ENDBRANCH   1  22
TORSDOF 15
ENDMDL
MODEL 7
REMARK VINA RESULT:      -6.2      3.337      8.366
REMARK  15 active torsions:
REMARK  status: ('A' for Active; 'I' for Inactive)
REMARK    1  A    between atoms: C_2  and  C_4 
REMARK    2  A    between atoms: C_4  and  C_5 
REMARK    3  A    between atoms: C_5  and  C_6 
REMARK    4  A    between atoms: C_5  and  N_9 
REMARK    5  A    between atoms: N_9  and  C_10 
REMARK    6  A    between atoms: C_10  and  C_11 
REMARK    7  A    between atoms: C_11  and  C_12 
REMARK    8  A    between atoms: C_12  and  C_13 
REMARK    9  A    between atoms: C_12  and  N_16 
REMARK       I    between atoms: N_16  and  C_17 
REMARK   10  A    between atoms: C_17  and  C_18 
REMARK   11  A    between atoms: C_18  and  C_19 
REMARK   12  A    between atoms: C_18  and  N_26 
REMARK   13  A    between atoms: C_19  and  C_20 
REMARK   14  A    between atoms: C_20  and  C_21 
REMARK   15  A    between atoms: C_21  and  N_22 
REMARK       I    between atoms: N_22  and  C_23 
REMARK       I    between atoms: C_23  and  N_24 
ROOT
HETATM    1  N           1     -20.997  -6.568  -3.838  0.00  0.00    -0.345 N 
HETATM    2  C           1     -21.205  -6.762  -5.177  0.00  0.00     0.249 C 
HETATM    3  O           1     -21.708  -7.789  -5.568  0.00  0.00    -0.271 OA
HETATM    4  H           1     -20.577  -5.708  -3.511  0.00  0.00     0.163 HD
ENDROOT
BRANCH   2   5
HETATM    5  C           1     -20.808  -5.693  -6.165  0.00  0.00     0.274 C 
BRANCH   5   6
HETATM    6  C           1     -22.060  -5.073  -6.773  0.00  0.00     0.044 C 
BRANCH   6   7
HETATM    7  C           1     -21.696  -3.769  -7.470  0.00  0.00     0.023 C 
BRANCH   7   8
HETATM    8  C           1     -22.340  -3.733  -8.849  0.00  0.00     0.138 C 
BRANCH   8   9
HETATM    9  N           1     -23.803  -3.747  -8.708  0.00  0.00    -0.227 N 
HETATM   10  C           1     -24.537  -3.496  -9.709  0.00  0.00     0.665 C 
HETATM   11  N           1     -25.798  -3.508  -9.588  0.00  0.00    -0.235 N 
HETATM   12  N           1     -23.997  -3.227 -10.860  0.00  0.00    -0.235 N 
HETATM   13  H           1     -26.406  -3.301 -10.417  0.00  0.00     0.174 HD
HETATM   14  H           1     -26.234  -3.726  -8.658  0.00  0.00     0.174 HD
HETATM   15  H           1     -24.603  -3.020 -11.686  0.00  0.00     0.174 HD
HETATM   16  H           1     -22.957  -3.217 -10.960  0.00  0.00     0.174 HD
HETATM   17  H           1     -24.239  -3.965  -7.779  0.00  0.00     0.177 HD
ENDBRANCH   8   9
ENDBRANCH   7   8
ENDBRANCH   6   7
ENDBRANCH   5   6
BRANCH   5  18
HETATM   18  N           1     -19.975  -6.303  -7.253  0.00  0.00    -0.067 N 
HETATM   19  H           1     -19.139  -6.768  -6.833  0.00  0.00     0.275 HD
HETATM   20  H           1     -20.543  -7.011  -7.771  0.00  0.00     0.275 HD
HETATM   21  H           1     -19.663  -5.556  -7.913  0.00  0.00     0.275 HD
ENDBRANCH   5  18
ENDBRANCH   2   5
BRANCH   1  22
HETATM   22  C           1     -21.380  -7.595  -2.888  0.00  0.00     0.187 C 
BRANCH  22  23
HETATM   23  C           1     -20.155  -8.419  -2.513  0.00  0.00     0.066 C 
BRANCH  23  24
HETATM   24  C           1     -20.394  -9.879  -2.877  0.00  0.00     0.273 C 
BRANCH  24  25
HETATM   25  N           1     -19.160 -10.473  -3.314  0.00  0.00     0.099 N 
HETATM   26  H           1     -19.360 -11.261  -3.930  0.00  0.00     0.317 HD
BRANCH  25  27
HETATM   27  C           1     -18.427  -9.471  -4.042  0.00  0.00     0.330 C 
BRANCH  27  28
HETATM   28  C           1     -16.941  -9.610  -3.739  0.00  0.00     0.160 C 
BRANCH  28  29
HETATM   29  C           1     -16.694 -10.911  -3.015  0.00  0.00     0.175 C 
HETATM   30  O           1     -16.581 -11.975  -3.662  0.00  0.00    -0.648 OA
HETATM   31  O           1     -16.602 -10.925  -1.768  0.00  0.00    -0.648 OA
ENDBRANCH  28  29
ENDBRANCH  27  28
BRANCH  27  32
HETATM   32  C           1     -18.659  -9.656  -5.522  0.00  0.00     0.207 C 
HETATM   33  O           1     -19.090 -10.747  -5.956  0.00  0.00    -0.646 OA
HETATM   34  O           1     -18.419  -8.719  -6.313  0.00  0.00    -0.646 OA
ENDBRANCH  27  32
ENDBRANCH  25  27
ENDBRANCH  24  25
ENDBRANCH  23  24
ENDBRANCH  22  23
BRANCH  22  35
HETATM   35  C           1     -21.950  -6.948  -1.651  0.00  0.00     0.196 C 
HETATM   36  O           1     -21.896  -7.543  -0.553  0.00  0.00    -0.646 OA
HETATM   37  O           1     -22.477  -5.817  -1.722  0.00  0.00    -0.646 OA
ENDBRANCH  22  35
ENDBRANCH   1  22
TORSDOF 15
ENDMDL
MODEL 8
REMARK VINA RESULT:      -6.2      3.047      8.821
REMARK  15 active torsions:
REMARK  status: ('A' for Active; 'I' for Inactive)
REMARK    1  A    between atoms: C_2  and  C_4 
REMARK    2  A    between atoms: C_4  and  C_5 
REMARK    3  A    between atoms: C_5  and  C_6 
REMARK    4  A    between atoms: C_5  and  N_9 
REMARK    5  A    between atoms: N_9  and  C_10 
REMARK    6  A    between atoms: C_10  and  C_11 
REMARK    7  A    between atoms: C_11  and  C_12 
REMARK    8  A    between atoms: C_12  and  C_13 
REMARK    9  A    between atoms: C_12  and  N_16 
REMARK       I    between atoms: N_16  and  C_17 
REMARK   10  A    between atoms: C_17  and  C_18 
REMARK   11  A    between atoms: C_18  and  C_19 
REMARK   12  A    between atoms: C_18  and  N_26 
REMARK   13  A    between atoms: C_19  and  C_20 
REMARK   14  A    between atoms: C_20  and  C_21 
REMARK   15  A    between atoms: C_21  and  N_22 
REMARK       I    between atoms: N_22  and  C_23 
REMARK       I    between atoms: C_23  and  N_24 
ROOT
HETATM    1  N           1     -21.424  -6.226  -6.171  0.00  0.00    -0.345 N 
HETATM    2  C           1     -20.768  -5.232  -6.848  0.00  0.00     0.249 C 
HETATM    3  O           1     -19.726  -4.797  -6.420  0.00  0.00    -0.271 OA
HETATM    4  H           1     -22.297  -6.591  -6.529  0.00  0.00     0.163 HD
ENDROOT
BRANCH   2   5
HETATM    5  C           1     -21.347  -4.683  -8.128  0.00  0.00     0.274 C 
BRANCH   5   6
HETATM    6  C           1     -20.225  -4.122  -8.993  0.00  0.00     0.044 C 
BRANCH   6   7
HETATM    7  C           1     -20.446  -4.533 -10.443  0.00  0.00     0.023 C 
BRANCH   7   8
HETATM    8  C           1     -20.615  -3.289 -11.304  0.00  0.00     0.138 C 
BRANCH   8   9
HETATM    9  N           1     -22.027  -2.878 -11.299  0.00  0.00    -0.227 N 
HETATM   10  C           1     -22.705  -2.929 -12.367  0.00  0.00     0.665 C 
HETATM   11  N           1     -23.920  -2.575 -12.362  0.00  0.00    -0.235 N 
HETATM   12  N           1     -22.152  -3.345 -13.468  0.00  0.00    -0.235 N 
HETATM   13  H           1     -24.483  -2.618 -13.247  0.00  0.00     0.174 HD
HETATM   14  H           1     -24.367  -2.239 -11.473  0.00  0.00     0.174 HD
HETATM   15  H           1     -22.712  -3.387 -14.349  0.00  0.00     0.174 HD
HETATM   16  H           1     -21.149  -3.638 -13.471  0.00  0.00     0.174 HD
HETATM   17  H           1     -22.473  -2.543 -10.410  0.00  0.00     0.177 HD
ENDBRANCH   8   9
ENDBRANCH   7   8
ENDBRANCH   6   7
ENDBRANCH   5   6
BRANCH   5  18
HETATM   18  N           1     -22.323  -3.590  -7.806  0.00  0.00    -0.067 N 
HETATM   19  H           1     -21.886  -2.662  -8.008  0.00  0.00     0.275 HD
HETATM   20  H           1     -23.180  -3.706  -8.392  0.00  0.00     0.275 HD
HETATM   21  H           1     -22.581  -3.640  -6.796  0.00  0.00     0.275 HD
ENDBRANCH   5  18
ENDBRANCH   2   5
BRANCH   1  22
HETATM   22  C           1     -20.867  -6.755  -4.941  0.00  0.00     0.187 C 
BRANCH  22  23
HETATM   23  C           1     -21.976  -6.910  -3.909  0.00  0.00     0.066 C 
BRANCH  23  24
HETATM   24  C           1     -21.493  -6.388  -2.561  0.00  0.00     0.273 C 
BRANCH  24  25
HETATM   25  N           1     -20.790  -7.432  -1.866  0.00  0.00     0.099 N 
HETATM   26  H           1     -20.292  -7.036  -1.069  0.00  0.00     0.317 HD
BRANCH  25  27
HETATM   27  C           1     -21.766  -8.378  -1.396  0.00  0.00     0.330 C 
BRANCH  27  28
HETATM   28  C           1     -21.126  -9.756  -1.288  0.00  0.00     0.160 C 
BRANCH  28  29
HETATM   29  C           1     -22.176 -10.818  -1.507  0.00  0.00     0.175 C 
HETATM   30  O           1     -22.902 -10.779  -2.524  0.00  0.00    -0.648 OA
HETATM   31  O           1     -22.320 -11.737  -0.672  0.00  0.00    -0.648 OA
ENDBRANCH  28  29
ENDBRANCH  27  28
BRANCH  27  32
HETATM   32  C           1     -22.270  -7.949  -0.040  0.00  0.00     0.207 C 
HETATM   33  O           1     -23.397  -7.417   0.069  0.00  0.00    -0.646 OA
HETATM   34  O           1     -21.561  -8.124   0.974  0.00  0.00    -0.646 OA
ENDBRANCH  27  32
ENDBRANCH  25  27
ENDBRANCH  24  25
ENDBRANCH  23  24
ENDBRANCH  22  23
BRANCH  22  35
HETATM   35  C           1     -20.239  -8.099  -5.211  0.00  0.00     0.196 C 
HETATM   36  O           1     -20.724  -9.131  -4.699  0.00  0.00    -0.646 OA
HETATM   37  O           1     -19.232  -8.182  -5.948  0.00  0.00    -0.646 OA
ENDBRANCH  22  35
ENDBRANCH   1  22
TORSDOF 15
ENDMDL
MODEL 9
REMARK VINA RESULT:      -6.2      1.872      3.151
REMARK  15 active torsions:
REMARK  status: ('A' for Active; 'I' for Inactive)
REMARK    1  A    between atoms: C_2  and  C_4 
REMARK    2  A    between atoms: C_4  and  C_5 
REMARK    3  A    between atoms: C_5  and  C_6 
REMARK    4  A    between atoms: C_5  and  N_9 
REMARK    5  A    between atoms: N_9  and  C_10 
REMARK    6  A    between atoms: C_10  and  C_11 
REMARK    7  A    between atoms: C_11  and  C_12 
REMARK    8  A    between atoms: C_12  and  C_13 
REMARK    9  A    between atoms: C_12  and  N_16 
REMARK       I    between atoms: N_16  and  C_17 
REMARK   10  A    between atoms: C_17  and  C_18 
REMARK   11  A    between atoms: C_18  and  C_19 
REMARK   12  A    between atoms: C_18  and  N_26 
REMARK   13  A    between atoms: C_19  and  C_20 
REMARK   14  A    between atoms: C_20  and  C_21 
REMARK   15  A    between atoms: C_21  and  N_22 
REMARK       I    between atoms: N_22  and  C_23 
REMARK       I    between atoms: C_23  and  N_24 
ROOT
HETATM    1  N           1     -21.448  -5.719  -4.677  0.00  0.00    -0.345 N 
HETATM    2  C           1     -21.438  -6.894  -3.973  0.00  0.00     0.249 C 
HETATM    3  O           1     -21.480  -7.950  -4.559  0.00  0.00    -0.271 OA
HETATM    4  H           1     -21.413  -4.836  -4.185  0.00  0.00     0.163 HD
ENDROOT
BRANCH   2   5
HETATM    5  C           1     -21.373  -6.870  -2.465  0.00  0.00     0.274 C 
BRANCH   5   6
HETATM    6  C           1     -21.716  -8.251  -1.921  0.00  0.00     0.044 C 
BRANCH   6   7
HETATM    7  C           1     -22.186  -8.127  -0.478  0.00  0.00     0.023 C 
BRANCH   7   8
HETATM    8  C           1     -21.327  -9.012   0.415  0.00  0.00     0.138 C 
BRANCH   8   9
HETATM    9  N           1     -20.628 -10.009  -0.409  0.00  0.00    -0.227 N 
HETATM   10  C           1     -20.822 -11.244  -0.207  0.00  0.00     0.665 C 
HETATM   11  N           1     -20.221 -12.103  -0.917  0.00  0.00    -0.235 N 
HETATM   12  N           1     -21.638 -11.630   0.728  0.00  0.00    -0.235 N 
HETATM   13  H           1     -20.382 -13.127  -0.751  0.00  0.00     0.174 HD
HETATM   14  H           1     -19.562 -11.791  -1.674  0.00  0.00     0.174 HD
HETATM   15  H           1     -21.798 -12.649   0.894  0.00  0.00     0.174 HD
HETATM   16  H           1     -22.134 -10.921   1.313  0.00  0.00     0.174 HD
HETATM   17  H           1     -19.970  -9.698  -1.165  0.00  0.00     0.177 HD
ENDBRANCH   8   9
ENDBRANCH   7   8
ENDBRANCH   6   7
ENDBRANCH   5   6
BRANCH   5  18
HETATM   18  N           1     -22.358  -5.869  -1.940  0.00  0.00    -0.067 N 
HETATM   19  H           1     -21.874  -5.217  -1.280  0.00  0.00     0.275 HD
HETATM   20  H           1     -22.759  -5.324  -2.736  0.00  0.00     0.275 HD
HETATM   21  H           1     -23.126  -6.366  -1.436  0.00  0.00     0.275 HD
ENDBRANCH   5  18
ENDBRANCH   2   5
BRANCH   1  22
HETATM   22  C           1     -21.510  -5.742  -6.125  0.00  0.00     0.187 C 
BRANCH  22  23
HETATM   23  C           1     -22.311  -4.544  -6.617  0.00  0.00     0.066 C 
BRANCH  23  24
HETATM   24  C           1     -22.364  -4.558  -8.139  0.00  0.00     0.273 C 
BRANCH  24  25
HETATM   25  N           1     -23.644  -4.076  -8.580  0.00  0.00     0.099 N 
HETATM   26  H           1     -23.950  -3.317  -7.970  0.00  0.00     0.317 HD
BRANCH  25  27
HETATM   27  C           1     -23.487  -3.579  -9.920  0.00  0.00     0.330 C 
BRANCH  27  28
HETATM   28  C           1     -22.808  -4.640 -10.777  0.00  0.00     0.160 C 
BRANCH  28  29
HETATM   29  C           1     -21.695  -4.005 -11.575  0.00  0.00     0.175 C 
HETATM   30  O           1     -21.935  -3.501 -12.693  0.00  0.00    -0.648 OA
HETATM   31  O           1     -20.531  -3.984 -11.117  0.00  0.00    -0.648 OA
ENDBRANCH  28  29
ENDBRANCH  27  28
BRANCH  27  32
HETATM   32  C           1     -24.843  -3.256 -10.499  0.00  0.00     0.207 C 
HETATM   33  O           1     -25.833  -3.137  -9.744  0.00  0.00    -0.646 OA
HETATM   34  O           1     -24.977  -3.109 -11.732  0.00  0.00    -0.646 OA
ENDBRANCH  27  32
ENDBRANCH  25  27
ENDBRANCH  24  25
ENDBRANCH  23  24
ENDBRANCH  22  23
BRANCH  22  35
HETATM   35  C           1     -20.112  -5.679  -6.688  0.00  0.00     0.196 C 
HETATM   36  O           1     -19.390  -4.684  -6.461  0.00  0.00    -0.646 OA
HETATM   37  O           1     -19.674  -6.622  -7.382  0.00  0.00    -0.646 OA
ENDBRANCH  22  35
ENDBRANCH   1  22
TORSDOF 15
ENDMDL
