MODEL 1
REMARK VINA RESULT:      -5.8      0.000      0.000
REMARK  8 active torsions:
REMARK  status: ('A' for Active; 'I' for Inactive)
REMARK    1  A    between atoms: C_2  and  C_16 
REMARK    2  A    between atoms: C_2  and  C_3 
REMARK    3  A    between atoms: C_2  and  N_19 
REMARK    4  A    between atoms: O_7  and  C_8 
REMARK    5  A    between atoms: C_8  and  C_17 
REMARK    6  A    between atoms: O_11  and  C_16 
REMARK    7  A    between atoms: N_15  and  C_17 
REMARK    8  A    between atoms: C_17  and  C_20 
REMARK       I    between atoms: N_19  and  C_20 
ROOT
HETATM    1  H           1     -22.016  -5.717  -9.676  0.00  0.00     0.163 HD
HETATM    2  O           1     -21.903  -3.554  -7.406  0.00  0.00    -0.271 OA
HETATM    3  N           1     -22.110  -4.807  -9.243  0.00  0.00    -0.342 N 
HETATM    4  C           1     -21.790  -4.641  -7.922  0.00  0.00     0.251 C 
ENDROOT
BRANCH   4   5
HETATM    5  C           1     -21.297  -5.814  -7.112  0.00  0.00     0.302 C 
BRANCH   5   6
HETATM    6  C           1     -21.333  -5.460  -5.631  0.00  0.00     0.153 C 
HETATM    7  C           1     -21.357  -6.739  -4.805  0.00  0.00     0.042 C 
BRANCH   6   8
HETATM    8  O           1     -20.194  -4.713  -5.301  0.00  0.00    -0.393 OA
HETATM    9  H           1     -19.868  -5.056  -4.487  0.00  0.00     0.210 HD
ENDBRANCH   6   8
ENDBRANCH   5   6
BRANCH   5  10
HETATM   10  N           1     -19.889  -6.142  -7.513  0.00  0.00    -0.064 N 
HETATM   11  H           1     -19.280  -5.305  -7.367  0.00  0.00     0.275 HD
HETATM   12  H           1     -19.537  -6.935  -6.931  0.00  0.00     0.275 HD
HETATM   13  H           1     -19.869  -6.415  -8.522  0.00  0.00     0.275 HD
ENDBRANCH   5  10
ENDBRANCH   4   5
BRANCH   3  14
HETATM   14  C           1     -22.584  -3.679 -10.022  0.00  0.00     0.214 C 
BRANCH  14  15
HETATM   15  C           1     -21.815  -3.610 -11.334  0.00  0.00     0.147 C 
HETATM   16  C           1     -20.395  -4.117 -11.117  0.00  0.00     0.042 C 
BRANCH  15  17
HETATM   17  O           1     -22.454  -4.409 -12.293  0.00  0.00    -0.393 OA
HETATM   18  H           1     -21.782  -4.906 -12.728  0.00  0.00     0.210 HD
ENDBRANCH  15  17
ENDBRANCH  14  15
BRANCH  14  19
HETATM   19  C           1     -24.055  -3.850 -10.310  0.00  0.00     0.199 C 
HETATM   20  O           1     -24.642  -4.898  -9.965  0.00  0.00    -0.646 OA
HETATM   21  O           1     -24.688  -2.943 -10.893  0.00  0.00    -0.646 OA
ENDBRANCH  14  19
ENDBRANCH   3  14
TORSDOF 8
ENDMDL
MODEL 2
REMARK VINA RESULT:      -5.3      1.923      2.842
REMARK  8 active torsions:
REMARK  status: ('A' for Active; 'I' for Inactive)
REMARK    1  A    between atoms: C_2  and  C_16 
REMARK    2  A    between atoms: C_2  and  C_3 
REMARK    3  A    between atoms: C_2  and  N_19 
REMARK    4  A    between atoms: O_7  and  C_8 
REMARK    5  A    between atoms: C_8  and  C_17 
REMARK    6  A    between atoms: O_11  and  C_16 
REMARK    7  A    between atoms: N_15  and  C_17 
REMARK    8  A    between atoms: C_17  and  C_20 
REMARK       I    between atoms: N_19  and  C_20 
ROOT
HETATM    1  H           1     -22.682  -3.334  -9.149  0.00  0.00     0.163 HD
HETATM    2  O           1     -20.129  -4.894 -10.093  0.00  0.00    -0.271 OA
HETATM    3  N           1     -22.086  -3.866  -9.769  0.00  0.00    -0.342 N 
HETATM    4  C           1     -20.841  -4.258  -9.352  0.00  0.00     0.251 C 
ENDROOT
BRANCH   4   5
HETATM    5  C           1     -20.361  -3.897  -7.969  0.00  0.00     0.302 C 
BRANCH   5   6
HETATM    6  C           1     -19.986  -5.165  -7.213  0.00  0.00     0.153 C 
HETATM    7  C           1     -20.079  -4.909  -5.715  0.00  0.00     0.042 C 
BRANCH   6   8
HETATM    8  O           1     -20.866  -6.197  -7.567  0.00  0.00    -0.393 OA
HETATM    9  H           1     -21.629  -6.105  -7.021  0.00  0.00     0.210 HD
ENDBRANCH   6   8
ENDBRANCH   5   6
BRANCH   5  10
HETATM   10  N           1     -21.453  -3.180  -7.231  0.00  0.00    -0.064 N 
HETATM   11  H           1     -21.033  -2.467  -6.593  0.00  0.00     0.275 HD
HETATM   12  H           1     -22.083  -2.706  -7.917  0.00  0.00     0.275 HD
HETATM   13  H           1     -22.003  -3.869  -6.670  0.00  0.00     0.275 HD
ENDBRANCH   5  10
ENDBRANCH   4   5
BRANCH   3  14
HETATM   14  C           1     -22.548  -4.214 -11.098  0.00  0.00     0.214 C 
BRANCH  14  15
HETATM   15  C           1     -24.061  -4.382 -11.081  0.00  0.00     0.147 C 
HETATM   16  C           1     -24.521  -4.692  -9.663  0.00  0.00     0.042 C 
BRANCH  15  17
HETATM   17  O           1     -24.667  -3.196 -11.521  0.00  0.00    -0.393 OA
HETATM   18  H           1     -24.372  -3.049 -12.403  0.00  0.00     0.210 HD
ENDBRANCH  15  17
ENDBRANCH  14  15
BRANCH  14  19
HETATM   19  C           1     -22.174  -3.117 -12.063  0.00  0.00     0.199 C 
HETATM   20  O           1     -22.442  -3.235 -13.278  0.00  0.00    -0.646 OA
HETATM   21  O           1     -21.596  -2.089 -11.647  0.00  0.00    -0.646 OA
ENDBRANCH  14  19
ENDBRANCH   3  14
TORSDOF 8
ENDMDL
MODEL 3
REMARK VINA RESULT:      -5.3      1.907      5.292
REMARK  8 active torsions:
REMARK  status: ('A' for Active; 'I' for Inactive)
REMARK    1  A    between atoms: C_2  and  C_16 
REMARK    2  A    between atoms: C_2  and  C_3 
REMARK    3  A    between atoms: C_2  and  N_19 
REMARK    4  A    between atoms: O_7  and  C_8 
REMARK    5  A    between atoms: C_8  and  C_17 
REMARK    6  A    between atoms: O_11  and  C_16 
REMARK    7  A    between atoms: N_15  and  C_17 
REMARK    8  A    between atoms: C_17  and  C_20 
REMARK       I    between atoms: N_19  and  C_20 
ROOT
HETATM    1  H           1     -22.147  -6.135  -8.562  0.00  0.00     0.163 HD
HETATM    2  O           1     -22.841  -3.081  -8.731  0.00  0.00    -0.271 OA
HETATM    3  N           1     -22.069  -5.145  -8.371  0.00  0.00    -0.342 N 
HETATM    4  C           1     -22.935  -4.263  -8.960  0.00  0.00     0.251 C 
ENDROOT
BRANCH   4   5
HETATM    5  C           1     -24.008  -4.769  -9.892  0.00  0.00     0.302 C 
BRANCH   5   6
HETATM    6  C           1     -23.534  -4.632 -11.334  0.00  0.00     0.153 C 
HETATM    7  C           1     -24.158  -3.390 -11.956  0.00  0.00     0.042 C 
BRANCH   6   8
HETATM    8  O           1     -22.138  -4.515 -11.358  0.00  0.00    -0.393 OA
HETATM    9  H           1     -21.877  -4.542 -12.262  0.00  0.00     0.210 HD
ENDBRANCH   6   8
ENDBRANCH   5   6
BRANCH   5  10
HETATM   10  N           1     -25.259  -3.965  -9.699  0.00  0.00    -0.064 N 
HETATM   11  H           1     -25.054  -2.954  -9.867  0.00  0.00     0.275 HD
HETATM   12  H           1     -25.989  -4.288 -10.373  0.00  0.00     0.275 HD
HETATM   13  H           1     -25.607  -4.092  -8.721  0.00  0.00     0.275 HD
ENDBRANCH   5  10
ENDBRANCH   4   5
BRANCH   3  14
HETATM   14  C           1     -21.038  -4.659  -7.474  0.00  0.00     0.214 C 
BRANCH  14  15
HETATM   15  C           1     -20.852  -5.649  -6.332  0.00  0.00     0.147 C 
HETATM   16  C           1     -22.207  -5.976  -5.718  0.00  0.00     0.042 C 
BRANCH  15  17
HETATM   17  O           1     -20.265  -6.824  -6.824  0.00  0.00    -0.393 OA
HETATM   18  H           1     -19.373  -6.832  -6.519  0.00  0.00     0.210 HD
ENDBRANCH  15  17
ENDBRANCH  14  15
BRANCH  14  19
HETATM   19  C           1     -19.741  -4.514  -8.231  0.00  0.00     0.199 C 
HETATM   20  O           1     -18.673  -4.325  -7.610  0.00  0.00    -0.646 OA
HETATM   21  O           1     -19.735  -4.583  -9.479  0.00  0.00    -0.646 OA
ENDBRANCH  14  19
ENDBRANCH   3  14
TORSDOF 8
ENDMDL
MODEL 4
REMARK VINA RESULT:      -4.7      2.554      5.771
REMARK  8 active torsions:
REMARK  status: ('A' for Active; 'I' for Inactive)
REMARK    1  A    between atoms: C_2  and  C_16 
REMARK    2  A    between atoms: C_2  and  C_3 
REMARK    3  A    between atoms: C_2  and  N_19 
REMARK    4  A    between atoms: O_7  and  C_8 
REMARK    5  A    between atoms: C_8  and  C_17 
REMARK    6  A    between atoms: O_11  and  C_16 
REMARK    7  A    between atoms: N_15  and  C_17 
REMARK    8  A    between atoms: C_17  and  C_20 
REMARK       I    between atoms: N_19  and  C_20 
ROOT
HETATM    1  H           1     -21.278  -6.655  -7.238  0.00  0.00     0.163 HD
HETATM    2  O           1     -19.794  -4.426  -5.605  0.00  0.00    -0.271 OA
HETATM    3  N           1     -20.821  -6.222  -6.447  0.00  0.00    -0.342 N 
HETATM    4  C           1     -20.341  -4.943  -6.550  0.00  0.00     0.251 C 
ENDROOT
BRANCH   4   5
HETATM    5  C           1     -20.496  -4.181  -7.842  0.00  0.00     0.302 C 
BRANCH   5   6
HETATM    6  C           1     -21.962  -3.821  -8.048  0.00  0.00     0.153 C 
HETATM    7  C           1     -22.517  -4.608  -9.227  0.00  0.00     0.042 C 
BRANCH   6   8
HETATM    8  O           1     -22.687  -4.138  -6.891  0.00  0.00    -0.393 OA
HETATM    9  H           1     -23.481  -3.632  -6.918  0.00  0.00     0.210 HD
ENDBRANCH   6   8
ENDBRANCH   5   6
BRANCH   5  10
HETATM   10  N           1     -20.027  -5.033  -8.984  0.00  0.00    -0.064 N 
HETATM   11  H           1     -19.153  -4.625  -9.388  0.00  0.00     0.275 HD
HETATM   12  H           1     -19.832  -6.000  -8.640  0.00  0.00     0.275 HD
HETATM   13  H           1     -20.768  -5.067  -9.721  0.00  0.00     0.275 HD
ENDBRANCH   5  10
ENDBRANCH   4   5
BRANCH   3  14
HETATM   14  C           1     -20.672  -6.954  -5.204  0.00  0.00     0.214 C 
BRANCH  14  15
HETATM   15  C           1     -22.000  -6.962  -4.459  0.00  0.00     0.147 C 
HETATM   16  C           1     -21.804  -6.371  -3.069  0.00  0.00     0.042 C 
BRANCH  15  17
HETATM   17  O           1     -22.937  -6.195  -5.166  0.00  0.00    -0.393 OA
HETATM   18  H           1     -23.630  -5.987  -4.564  0.00  0.00     0.210 HD
ENDBRANCH  15  17
ENDBRANCH  14  15
BRANCH  14  19
HETATM   19  C           1     -20.254  -8.372  -5.504  0.00  0.00     0.199 C 
HETATM   20  O           1     -19.043  -8.653  -5.636  0.00  0.00    -0.646 OA
HETATM   21  O           1     -21.119  -9.268  -5.620  0.00  0.00    -0.646 OA
ENDBRANCH  14  19
ENDBRANCH   3  14
TORSDOF 8
ENDMDL
MODEL 5
REMARK VINA RESULT:      -4.7      2.462      3.901
REMARK  8 active torsions:
REMARK  status: ('A' for Active; 'I' for Inactive)
REMARK    1  A    between atoms: C_2  and  C_16 
REMARK    2  A    between atoms: C_2  and  C_3 
REMARK    3  A    between atoms: C_2  and  N_19 
REMARK    4  A    between atoms: O_7  and  C_8 
REMARK    5  A    between atoms: C_8  and  C_17 
REMARK    6  A    between atoms: O_11  and  C_16 
REMARK    7  A    between atoms: N_15  and  C_17 
REMARK    8  A    between atoms: C_17  and  C_20 
REMARK       I    between atoms: N_19  and  C_20 
ROOT
HETATM    1  H           1     -21.600  -4.374  -5.912  0.00  0.00     0.163 HD
HETATM    2  O           1     -21.036  -7.381  -6.606  0.00  0.00    -0.271 OA
HETATM    3  N           1     -21.474  -5.194  -6.491  0.00  0.00    -0.342 N 
HETATM    4  C           1     -21.187  -6.402  -5.914  0.00  0.00     0.251 C 
ENDROOT
BRANCH   4   5
HETATM    5  C           1     -21.060  -6.511  -4.415  0.00  0.00     0.302 C 
BRANCH   5   6
HETATM    6  C           1     -20.719  -7.947  -4.036  0.00  0.00     0.153 C 
HETATM    7  C           1     -20.463  -8.029  -2.537  0.00  0.00     0.042 C 
BRANCH   6   8
HETATM    8  O           1     -21.790  -8.786  -4.374  0.00  0.00    -0.393 OA
HETATM    9  H           1     -21.479  -9.371  -5.043  0.00  0.00     0.210 HD
ENDBRANCH   6   8
ENDBRANCH   5   6
BRANCH   5  10
HETATM   10  N           1     -22.358  -6.120  -3.773  0.00  0.00    -0.064 N 
HETATM   11  H           1     -22.262  -5.175  -3.339  0.00  0.00     0.275 HD
HETATM   12  H           1     -23.111  -6.095  -4.498  0.00  0.00     0.275 HD
HETATM   13  H           1     -22.606  -6.819  -3.037  0.00  0.00     0.275 HD
ENDBRANCH   5  10
ENDBRANCH   4   5
BRANCH   3  14
HETATM   14  C           1     -21.596  -5.089  -7.932  0.00  0.00     0.214 C 
BRANCH  14  15
HETATM   15  C           1     -22.742  -4.147  -8.276  0.00  0.00     0.147 C 
HETATM   16  C           1     -23.302  -4.509  -9.646  0.00  0.00     0.042 C 
BRANCH  15  17
HETATM   17  O           1     -23.752  -4.269  -7.311  0.00  0.00    -0.393 OA
HETATM   18  H           1     -23.670  -3.528  -6.735  0.00  0.00     0.210 HD
ENDBRANCH  15  17
ENDBRANCH  14  15
BRANCH  14  19
HETATM   19  C           1     -20.311  -4.549  -8.508  0.00  0.00     0.199 C 
HETATM   20  O           1     -19.626  -3.735  -7.852  0.00  0.00    -0.646 OA
HETATM   21  O           1     -19.930  -4.917  -9.641  0.00  0.00    -0.646 OA
ENDBRANCH  14  19
ENDBRANCH   3  14
TORSDOF 8
ENDMDL
MODEL 6
REMARK VINA RESULT:      -4.7      5.409      7.175
REMARK  8 active torsions:
REMARK  status: ('A' for Active; 'I' for Inactive)
REMARK    1  A    between atoms: C_2  and  C_16 
REMARK    2  A    between atoms: C_2  and  C_3 
REMARK    3  A    between atoms: C_2  and  N_19 
REMARK    4  A    between atoms: O_7  and  C_8 
REMARK    5  A    between atoms: C_8  and  C_17 
REMARK    6  A    between atoms: O_11  and  C_16 
REMARK    7  A    between atoms: N_15  and  C_17 
REMARK    8  A    between atoms: C_17  and  C_20 
REMARK       I    between atoms: N_19  and  C_20 
ROOT
HETATM    1  H           1     -22.358  -8.689  -3.444  0.00  0.00     0.163 HD
HETATM    2  O           1     -20.033  -7.903  -1.490  0.00  0.00    -0.271 OA
HETATM    3  N           1     -21.487  -8.270  -3.146  0.00  0.00    -0.342 N 
HETATM    4  C           1     -21.074  -8.403  -1.847  0.00  0.00     0.251 C 
ENDROOT
BRANCH   4   5
HETATM    5  C           1     -21.917  -9.174  -0.862  0.00  0.00     0.302 C 
BRANCH   5   6
HETATM    6  C           1     -22.717  -8.201  -0.006  0.00  0.00     0.153 C 
HETATM    7  C           1     -22.019  -8.013   1.335  0.00  0.00     0.042 C 
BRANCH   6   8
HETATM    8  O           1     -22.808  -6.966  -0.662  0.00  0.00    -0.393 OA
HETATM    9  H           1     -22.117  -6.946  -1.303  0.00  0.00     0.210 HD
ENDBRANCH   6   8
ENDBRANCH   5   6
BRANCH   5  10
HETATM   10  N           1     -21.028 -10.000   0.019  0.00  0.00    -0.064 N 
HETATM   11  H           1     -20.975 -10.975  -0.354  0.00  0.00     0.275 HD
HETATM   12  H           1     -20.070  -9.582   0.037  0.00  0.00     0.275 HD
HETATM   13  H           1     -21.418 -10.019   0.988  0.00  0.00     0.275 HD
ENDBRANCH   5  10
ENDBRANCH   4   5
BRANCH   3  14
HETATM   14  C           1     -20.676  -7.529  -4.092  0.00  0.00     0.214 C 
BRANCH  14  15
HETATM   15  C           1     -20.494  -8.355  -5.359  0.00  0.00     0.147 C 
HETATM   16  C           1     -21.084  -9.743  -5.149  0.00  0.00     0.042 C 
BRANCH  15  17
HETATM   17  O           1     -21.150  -7.724  -6.426  0.00  0.00    -0.393 OA
HETATM   18  H           1     -20.487  -7.479  -7.048  0.00  0.00     0.210 HD
ENDBRANCH  15  17
ENDBRANCH  14  15
BRANCH  14  19
HETATM   19  C           1     -21.363  -6.230  -4.433  0.00  0.00     0.199 C 
HETATM   20  O           1     -20.690  -5.246  -4.807  0.00  0.00    -0.646 OA
HETATM   21  O           1     -22.607  -6.137  -4.341  0.00  0.00    -0.646 OA
ENDBRANCH  14  19
ENDBRANCH   3  14
TORSDOF 8
ENDMDL
MODEL 7
REMARK VINA RESULT:      -4.6      2.719      4.526
REMARK  8 active torsions:
REMARK  status: ('A' for Active; 'I' for Inactive)
REMARK    1  A    between atoms: C_2  and  C_16 
REMARK    2  A    between atoms: C_2  and  C_3 
REMARK    3  A    between atoms: C_2  and  N_19 
REMARK    4  A    between atoms: O_7  and  C_8 
REMARK    5  A    between atoms: C_8  and  C_17 
REMARK    6  A    between atoms: O_11  and  C_16 
REMARK    7  A    between atoms: N_15  and  C_17 
REMARK    8  A    between atoms: C_17  and  C_20 
REMARK       I    between atoms: N_19  and  C_20 
ROOT
HETATM    1  H           1     -22.407  -5.271  -5.088  0.00  0.00     0.163 HD
HETATM    2  O           1     -20.931  -7.830  -6.142  0.00  0.00    -0.271 OA
HETATM    3  N           1     -21.883  -5.853  -5.728  0.00  0.00    -0.342 N 
HETATM    4  C           1     -21.557  -7.136  -5.377  0.00  0.00     0.251 C 
ENDROOT
BRANCH   4   5
HETATM    5  C           1     -21.981  -7.681  -4.036  0.00  0.00     0.302 C 
BRANCH   5   6
HETATM    6  C           1     -21.204  -6.976  -2.931  0.00  0.00     0.153 C 
HETATM    7  C           1     -22.180  -6.293  -1.982  0.00  0.00     0.042 C 
BRANCH   6   8
HETATM    8  O           1     -20.443  -7.916  -2.222  0.00  0.00    -0.393 OA
HETATM    9  H           1     -19.560  -7.849  -2.542  0.00  0.00     0.210 HD
ENDBRANCH   6   8
ENDBRANCH   5   6
BRANCH   5  10
HETATM   10  N           1     -21.699  -9.154  -3.983  0.00  0.00    -0.064 N 
HETATM   11  H           1     -21.489  -9.434  -2.998  0.00  0.00     0.275 HD
HETATM   12  H           1     -22.535  -9.681  -4.324  0.00  0.00     0.275 HD
HETATM   13  H           1     -20.877  -9.373  -4.590  0.00  0.00     0.275 HD
ENDBRANCH   5  10
ENDBRANCH   4   5
BRANCH   3  14
HETATM   14  C           1     -21.476  -5.328  -7.017  0.00  0.00     0.214 C 
BRANCH  14  15
HETATM   15  C           1     -22.490  -4.295  -7.487  0.00  0.00     0.147 C 
HETATM   16  C           1     -22.712  -4.447  -8.986  0.00  0.00     0.042 C 
BRANCH  15  17
HETATM   17  O           1     -23.704  -4.491  -6.812  0.00  0.00    -0.393 OA
HETATM   18  H           1     -24.203  -5.107  -7.321  0.00  0.00     0.210 HD
ENDBRANCH  15  17
ENDBRANCH  14  15
BRANCH  14  19
HETATM   19  C           1     -20.119  -4.681  -6.891  0.00  0.00     0.199 C 
HETATM   20  O           1     -19.497  -4.328  -7.915  0.00  0.00    -0.646 OA
HETATM   21  O           1     -19.617  -4.497  -5.760  0.00  0.00    -0.646 OA
ENDBRANCH  14  19
ENDBRANCH   3  14
TORSDOF 8
ENDMDL
MODEL 8
REMARK VINA RESULT:      -4.5      4.741      8.480
REMARK  8 active torsions:
REMARK  status: ('A' for Active; 'I' for Inactive)
REMARK    1  A    between atoms: C_2  and  C_16 
REMARK    2  A    between atoms: C_2  and  C_3 
REMARK    3  A    between atoms: C_2  and  N_19 
REMARK    4  A    between atoms: O_7  and  C_8 
REMARK    5  A    between atoms: C_8  and  C_17 
REMARK    6  A    between atoms: O_11  and  C_16 
REMARK    7  A    between atoms: N_15  and  C_17 
REMARK    8  A    between atoms: C_17  and  C_20 
REMARK       I    between atoms: N_19  and  C_20 
ROOT
HETATM    1  H           1     -22.162  -7.727  -3.006  0.00  0.00     0.163 HD
HETATM    2  O           1     -19.264  -8.825  -3.494  0.00  0.00    -0.271 OA
HETATM    3  N           1     -21.313  -8.244  -2.820  0.00  0.00    -0.342 N 
HETATM    4  C           1     -20.279  -8.207  -3.717  0.00  0.00     0.251 C 
ENDROOT
BRANCH   4   5
HETATM    5  C           1     -20.407  -7.396  -4.982  0.00  0.00     0.302 C 
BRANCH   5   6
HETATM    6  C           1     -21.047  -6.051  -4.662  0.00  0.00     0.153 C 
HETATM    7  C           1     -20.491  -4.988  -5.601  0.00  0.00     0.042 C 
BRANCH   6   8
HETATM    8  O           1     -22.435  -6.143  -4.830  0.00  0.00    -0.393 OA
HETATM    9  H           1     -22.671  -5.524  -5.500  0.00  0.00     0.210 HD
ENDBRANCH   6   8
ENDBRANCH   5   6
BRANCH   5  10
HETATM   10  N           1     -21.264  -8.135  -5.966  0.00  0.00    -0.064 N 
HETATM   11  H           1     -21.879  -7.458  -6.471  0.00  0.00     0.275 HD
HETATM   12  H           1     -20.655  -8.632  -6.655  0.00  0.00     0.275 HD
HETATM   13  H           1     -21.855  -8.831  -5.458  0.00  0.00     0.275 HD
ENDBRANCH   5  10
ENDBRANCH   4   5
BRANCH   3  14
HETATM   14  C           1     -21.190  -9.023  -1.603  0.00  0.00     0.214 C 
BRANCH  14  15
HETATM   15  C           1     -21.917  -8.312  -0.470  0.00  0.00     0.147 C 
HETATM   16  C           1     -22.350  -6.928  -0.935  0.00  0.00     0.042 C 
BRANCH  15  17
HETATM   17  O           1     -23.046  -9.056  -0.100  0.00  0.00    -0.393 OA
HETATM   18  H           1     -22.827  -9.964  -0.222  0.00  0.00     0.210 HD
ENDBRANCH  15  17
ENDBRANCH  14  15
BRANCH  14  19
HETATM   19  C           1     -21.801 -10.386  -1.816  0.00  0.00     0.199 C 
HETATM   20  O           1     -22.668 -10.551  -2.700  0.00  0.00    -0.646 OA
HETATM   21  O           1     -21.439 -11.351  -1.107  0.00  0.00    -0.646 OA
ENDBRANCH  14  19
ENDBRANCH   3  14
TORSDOF 8
ENDMDL
MODEL 9
REMARK VINA RESULT:      -4.4      6.562      8.752
REMARK  8 active torsions:
REMARK  status: ('A' for Active; 'I' for Inactive)
REMARK    1  A    between atoms: C_2  and  C_16 
REMARK    2  A    between atoms: C_2  and  C_3 
REMARK    3  A    between atoms: C_2  and  N_19 
REMARK    4  A    between atoms: O_7  and  C_8 
REMARK    5  A    between atoms: C_8  and  C_17 
REMARK    6  A    between atoms: O_11  and  C_16 
REMARK    7  A    between atoms: N_15  and  C_17 
REMARK    8  A    between atoms: C_17  and  C_20 
REMARK       I    between atoms: N_19  and  C_20 
ROOT
HETATM    1  H           1     -22.690  -9.317  -2.942  0.00  0.00     0.163 HD
HETATM    2  O           1     -20.666  -9.967  -0.635  0.00  0.00    -0.271 OA
HETATM    3  N           1     -21.932  -9.163  -2.290  0.00  0.00    -0.342 N 
HETATM    4  C           1     -21.571 -10.152  -1.414  0.00  0.00     0.251 C 
ENDROOT
BRANCH   4   5
HETATM    5  C           1     -22.303 -11.471  -1.422  0.00  0.00     0.302 C 
BRANCH   5   6
HETATM    6  C           1     -23.578 -11.350  -0.598  0.00  0.00     0.153 C 
HETATM    7  C           1     -23.534 -12.345   0.554  0.00  0.00     0.042 C 
BRANCH   6   8
HETATM    8  O           1     -23.683 -10.049  -0.087  0.00  0.00    -0.393 OA
HETATM    9  H           1     -24.050 -10.123   0.778  0.00  0.00     0.210 HD
ENDBRANCH   6   8
ENDBRANCH   5   6
BRANCH   5  10
HETATM   10  N           1     -21.425 -12.534  -0.831  0.00  0.00    -0.064 N 
HETATM   11  H           1     -20.579 -12.091  -0.406  0.00  0.00     0.275 HD
HETATM   12  H           1     -21.954 -13.052  -0.094  0.00  0.00     0.275 HD
HETATM   13  H           1     -21.131 -13.199  -1.581  0.00  0.00     0.275 HD
ENDBRANCH   5  10
ENDBRANCH   4   5
BRANCH   3  14
HETATM   14  C           1     -21.228  -7.895  -2.282  0.00  0.00     0.214 C 
BRANCH  14  15
HETATM   15  C           1     -20.844  -7.520  -3.707  0.00  0.00     0.147 C 
HETATM   16  C           1     -19.801  -8.502  -4.226  0.00  0.00     0.042 C 
BRANCH  15  17
HETATM   17  O           1     -21.981  -7.570  -4.526  0.00  0.00    -0.393 OA
HETATM   18  H           1     -22.210  -6.679  -4.731  0.00  0.00     0.210 HD
ENDBRANCH  15  17
ENDBRANCH  14  15
BRANCH  14  19
HETATM   19  C           1     -22.123  -6.827  -1.705  0.00  0.00     0.199 C 
HETATM   20  O           1     -22.243  -5.729  -2.289  0.00  0.00    -0.646 OA
HETATM   21  O           1     -22.745  -7.040  -0.641  0.00  0.00    -0.646 OA
ENDBRANCH  14  19
ENDBRANCH   3  14
TORSDOF 8
ENDMDL
