MODEL 1
REMARK VINA RESULT:      -7.0      0.000      0.000
REMARK  10 active torsions:
REMARK  status: ('A' for Active; 'I' for Inactive)
REMARK    1  A    between atoms: N_7  and  C_10 
REMARK    2  A    between atoms: Se_8  and  C_9 
REMARK    3  A    between atoms: C_9  and  C_10 
REMARK    4  A    between atoms: C_10  and  C_11 
REMARK       I    between atoms: C_11  and  N_12 
REMARK    5  A    between atoms: N_12  and  C_16 
REMARK    6  A    between atoms: C_15  and  C_16 
REMARK    7  A    between atoms: C_16  and  C_17 
REMARK    8  A    between atoms: C_17  and  C_18 
REMARK    9  A    between atoms: C_18  and  C_19 
REMARK   10  A    between atoms: C_19  and  N_20 
REMARK       I    between atoms: N_20  and  C_22 
REMARK       I    between atoms: N_21  and  C_22 
ROOT
HETATM    1  C           1     -22.608  -3.757  -9.657  0.00  0.00     0.185 C 
ENDROOT
BRANCH   1   2
HETATM    2  N           1     -22.156  -4.841  -8.806  0.00  0.00    -0.345 N 
HETATM    3  C           1     -21.576  -4.564  -7.598  0.00  0.00     0.249 C 
HETATM    4  O           1     -21.439  -3.419  -7.240  0.00  0.00    -0.271 OA
HETATM    5  H           1     -22.270  -5.800  -9.106  0.00  0.00     0.163 HD
BRANCH   3   6
HETATM    6  C           1     -21.105  -5.692  -6.712  0.00  0.00     0.274 C 
BRANCH   6   7
HETATM    7  N           1     -19.899  -6.340  -7.325  0.00  0.00    -0.067 N 
HETATM    8  H           1     -19.156  -6.453  -6.598  0.00  0.00     0.275 HD
HETATM    9  H           1     -20.162  -7.278  -7.703  0.00  0.00     0.275 HD
HETATM   10  H           1     -19.538  -5.739  -8.102  0.00  0.00     0.275 HD
ENDBRANCH   6   7
BRANCH   6  11
HETATM   11  C           1     -20.743  -5.142  -5.339  0.00  0.00     0.045 C 
BRANCH  11  12
HETATM   12 Se           1     -21.435  -6.331  -3.959  0.00  0.00     0.000 Se
HETATM   13  H           1     -20.155  -6.433  -3.240  0.00  0.00     0.000 HD
ENDBRANCH  11  12
ENDBRANCH   6  11
ENDBRANCH   3   6
ENDBRANCH   1   2
BRANCH   1  14
HETATM   14  C           1     -24.113  -3.792  -9.759  0.00  0.00     0.196 C 
HETATM   15  O           1     -24.690  -4.839 -10.125  0.00  0.00    -0.646 OA
HETATM   16  O           1     -24.783  -2.775  -9.478  0.00  0.00    -0.646 OA
ENDBRANCH   1  14
BRANCH   1  17
HETATM   17  C           1     -22.000  -3.916 -11.045  0.00  0.00     0.038 C 
BRANCH  17  18
HETATM   18  C           1     -22.251  -2.653 -11.858  0.00  0.00     0.023 C 
BRANCH  18  19
HETATM   19  C           1     -23.016  -3.008 -13.127  0.00  0.00     0.138 C 
BRANCH  19  20
HETATM   20  N           1     -23.867  -1.876 -13.521  0.00  0.00    -0.227 N 
HETATM   21  H           1     -24.596  -1.513 -12.859  0.00  0.00     0.177 HD
HETATM   22  C           1     -23.721  -1.340 -14.658  0.00  0.00     0.665 C 
HETATM   23  N           1     -22.841  -1.779 -15.457  0.00  0.00    -0.235 N 
HETATM   24  N           1     -24.473  -0.339 -15.007  0.00  0.00    -0.235 N 
HETATM   25  H           1     -22.720  -1.334 -16.400  0.00  0.00     0.174 HD
HETATM   26  H           1     -22.233  -2.588 -15.175  0.00  0.00     0.174 HD
HETATM   27  H           1     -24.352   0.103 -15.945  0.00  0.00     0.174 HD
HETATM   28  H           1     -25.199   0.023 -14.348  0.00  0.00     0.174 HD
ENDBRANCH  19  20
ENDBRANCH  18  19
ENDBRANCH  17  18
ENDBRANCH   1  17
TORSDOF 10
ENDMDL
MODEL 2
REMARK VINA RESULT:      -6.3      9.780     11.510
REMARK  10 active torsions:
REMARK  status: ('A' for Active; 'I' for Inactive)
REMARK    1  A    between atoms: N_7  and  C_10 
REMARK    2  A    between atoms: Se_8  and  C_9 
REMARK    3  A    between atoms: C_9  and  C_10 
REMARK    4  A    between atoms: C_10  and  C_11 
REMARK       I    between atoms: C_11  and  N_12 
REMARK    5  A    between atoms: N_12  and  C_16 
REMARK    6  A    between atoms: C_15  and  C_16 
REMARK    7  A    between atoms: C_16  and  C_17 
REMARK    8  A    between atoms: C_17  and  C_18 
REMARK    9  A    between atoms: C_18  and  C_19 
REMARK   10  A    between atoms: C_19  and  N_20 
REMARK       I    between atoms: N_20  and  C_22 
REMARK       I    between atoms: N_21  and  C_22 
ROOT
HETATM    1  C           1     -28.640  -6.570 -16.997  0.00  0.00     0.185 C 
ENDROOT
BRANCH   1   2
HETATM    2  N           1     -27.395  -6.802 -17.703  0.00  0.00    -0.345 N 
HETATM    3  C           1     -27.210  -6.278 -18.954  0.00  0.00     0.249 C 
HETATM    4  O           1     -28.084  -5.623 -19.470  0.00  0.00    -0.271 OA
HETATM    5  H           1     -26.663  -7.350 -17.271  0.00  0.00     0.163 HD
BRANCH   3   6
HETATM    6  C           1     -25.915  -6.520 -19.690  0.00  0.00     0.274 C 
BRANCH   6   7
HETATM    7  N           1     -24.884  -7.037 -18.731  0.00  0.00    -0.067 N 
HETATM    8  H           1     -24.119  -6.333 -18.627  0.00  0.00     0.275 HD
HETATM    9  H           1     -25.328  -7.208 -17.801  0.00  0.00     0.275 HD
HETATM   10  H           1     -24.486  -7.932 -19.097  0.00  0.00     0.275 HD
ENDBRANCH   6   7
BRANCH   6  11
HETATM   11  C           1     -26.140  -7.543 -20.794  0.00  0.00     0.045 C 
BRANCH  11  12
HETATM   12 Se           1     -24.459  -7.881 -21.721  0.00  0.00     0.000 Se
HETATM   13  H           1     -25.100  -8.421 -22.931  0.00  0.00     0.000 HD
ENDBRANCH  11  12
ENDBRANCH   6  11
ENDBRANCH   3   6
ENDBRANCH   1   2
BRANCH   1  14
HETATM   14  C           1     -28.374  -6.521 -15.512  0.00  0.00     0.196 C 
HETATM   15  O           1     -28.652  -5.490 -14.862  0.00  0.00    -0.646 OA
HETATM   16  O           1     -27.877  -7.511 -14.933  0.00  0.00    -0.646 OA
ENDBRANCH   1  14
BRANCH   1  17
HETATM   17  C           1     -29.614  -7.700 -17.303  0.00  0.00     0.038 C 
BRANCH  17  18
HETATM   18  C           1     -30.985  -7.118 -17.620  0.00  0.00     0.023 C 
BRANCH  18  19
HETATM   19  C           1     -30.983  -5.622 -17.327  0.00  0.00     0.138 C 
BRANCH  19  20
HETATM   20  N           1     -32.289  -5.228 -16.779  0.00  0.00    -0.227 N 
HETATM   21  H           1     -32.877  -5.930 -16.267  0.00  0.00     0.177 HD
HETATM   22  C           1     -32.704  -4.041 -16.925  0.00  0.00     0.665 C 
HETATM   23  N           1     -31.994  -3.193 -17.543  0.00  0.00    -0.235 N 
HETATM   24  N           1     -33.858  -3.692 -16.440  0.00  0.00    -0.235 N 
HETATM   25  H           1     -32.339  -2.209 -17.664  0.00  0.00     0.174 HD
HETATM   26  H           1     -31.062  -3.475 -17.935  0.00  0.00     0.174 HD
HETATM   27  H           1     -34.201  -2.712 -16.561  0.00  0.00     0.174 HD
HETATM   28  H           1     -34.444  -4.391 -15.930  0.00  0.00     0.174 HD
ENDBRANCH  19  20
ENDBRANCH  18  19
ENDBRANCH  17  18
ENDBRANCH   1  17
TORSDOF 10
ENDMDL
MODEL 3
REMARK VINA RESULT:      -6.0      3.275      4.615
REMARK  10 active torsions:
REMARK  status: ('A' for Active; 'I' for Inactive)
REMARK    1  A    between atoms: N_7  and  C_10 
REMARK    2  A    between atoms: Se_8  and  C_9 
REMARK    3  A    between atoms: C_9  and  C_10 
REMARK    4  A    between atoms: C_10  and  C_11 
REMARK       I    between atoms: C_11  and  N_12 
REMARK    5  A    between atoms: N_12  and  C_16 
REMARK    6  A    between atoms: C_15  and  C_16 
REMARK    7  A    between atoms: C_16  and  C_17 
REMARK    8  A    between atoms: C_17  and  C_18 
REMARK    9  A    between atoms: C_18  and  C_19 
REMARK   10  A    between atoms: C_19  and  N_20 
REMARK       I    between atoms: N_20  and  C_22 
REMARK       I    between atoms: N_21  and  C_22 
ROOT
HETATM    1  C           1     -21.417  -5.439  -6.794  0.00  0.00     0.185 C 
ENDROOT
BRANCH   1   2
HETATM    2  N           1     -21.172  -5.351  -5.367  0.00  0.00    -0.345 N 
HETATM    3  C           1     -21.561  -6.372  -4.542  0.00  0.00     0.249 C 
HETATM    4  O           1     -22.107  -7.346  -5.002  0.00  0.00    -0.271 OA
HETATM    5  H           1     -20.715  -4.535  -4.982  0.00  0.00     0.163 HD
BRANCH   3   6
HETATM    6  C           1     -21.307  -6.281  -3.057  0.00  0.00     0.274 C 
BRANCH   6   7
HETATM    7  N           1     -22.561  -5.840  -2.362  0.00  0.00    -0.067 N 
HETATM    8  H           1     -22.826  -4.884  -2.691  0.00  0.00     0.275 HD
HETATM    9  H           1     -23.334  -6.510  -2.580  0.00  0.00     0.275 HD
HETATM   10  H           1     -22.398  -5.821  -1.329  0.00  0.00     0.275 HD
ENDBRANCH   6   7
BRANCH   6  11
HETATM   11  C           1     -20.885  -7.645  -2.529  0.00  0.00     0.045 C 
BRANCH  11  12
HETATM   12 Se           1     -21.758  -7.977  -0.818  0.00  0.00     0.000 Se
HETATM   13  H           1     -22.407  -6.657  -0.760  0.00  0.00     0.000 HD
ENDBRANCH  11  12
ENDBRANCH   6  11
ENDBRANCH   3   6
ENDBRANCH   1   2
BRANCH   1  14
HETATM   14  C           1     -20.116  -5.705  -7.511  0.00  0.00     0.196 C 
HETATM   15  O           1     -19.446  -6.723  -7.233  0.00  0.00    -0.646 OA
HETATM   16  O           1     -19.709  -4.908  -8.383  0.00  0.00    -0.646 OA
ENDBRANCH   1  14
BRANCH   1  17
HETATM   17  C           1     -22.012  -4.127  -7.288  0.00  0.00     0.038 C 
BRANCH  17  18
HETATM   18  C           1     -23.301  -4.407  -8.047  0.00  0.00     0.023 C 
BRANCH  18  19
HETATM   19  C           1     -23.270  -3.682  -9.388  0.00  0.00     0.138 C 
BRANCH  19  20
HETATM   20  N           1     -21.881  -3.582  -9.859  0.00  0.00    -0.227 N 
HETATM   21  H           1     -21.145  -3.166  -9.238  0.00  0.00     0.177 HD
HETATM   22  C           1     -21.573  -3.997 -11.015  0.00  0.00     0.665 C 
HETATM   23  N           1     -22.462  -4.499 -11.765  0.00  0.00    -0.235 N 
HETATM   24  N           1     -20.345  -3.909 -11.432  0.00  0.00    -0.235 N 
HETATM   25  H           1     -22.207  -4.844 -12.723  0.00  0.00     0.174 HD
HETATM   26  H           1     -23.454  -4.571 -11.428  0.00  0.00     0.174 HD
HETATM   27  H           1     -20.092  -4.251 -12.385  0.00  0.00     0.174 HD
HETATM   28  H           1     -19.613  -3.494 -10.813  0.00  0.00     0.174 HD
ENDBRANCH  19  20
ENDBRANCH  18  19
ENDBRANCH  17  18
ENDBRANCH   1  17
TORSDOF 10
ENDMDL
MODEL 4
REMARK VINA RESULT:      -5.9      2.739      3.613
REMARK  10 active torsions:
REMARK  status: ('A' for Active; 'I' for Inactive)
REMARK    1  A    between atoms: N_7  and  C_10 
REMARK    2  A    between atoms: Se_8  and  C_9 
REMARK    3  A    between atoms: C_9  and  C_10 
REMARK    4  A    between atoms: C_10  and  C_11 
REMARK       I    between atoms: C_11  and  N_12 
REMARK    5  A    between atoms: N_12  and  C_16 
REMARK    6  A    between atoms: C_15  and  C_16 
REMARK    7  A    between atoms: C_16  and  C_17 
REMARK    8  A    between atoms: C_17  and  C_18 
REMARK    9  A    between atoms: C_18  and  C_19 
REMARK   10  A    between atoms: C_19  and  N_20 
REMARK       I    between atoms: N_20  and  C_22 
REMARK       I    between atoms: N_21  and  C_22 
ROOT
HETATM    1  C           1     -21.529  -4.793  -8.075  0.00  0.00     0.185 C 
ENDROOT
BRANCH   1   2
HETATM    2  N           1     -21.292  -4.944  -6.653  0.00  0.00    -0.345 N 
HETATM    3  C           1     -21.134  -6.193  -6.115  0.00  0.00     0.249 C 
HETATM    4  O           1     -21.190  -7.168  -6.824  0.00  0.00    -0.271 OA
HETATM    5  H           1     -21.245  -4.127  -6.058  0.00  0.00     0.163 HD
BRANCH   3   6
HETATM    6  C           1     -20.888  -6.351  -4.634  0.00  0.00     0.274 C 
BRANCH   6   7
HETATM    7  N           1     -22.193  -6.270  -3.899  0.00  0.00    -0.067 N 
HETATM    8  H           1     -22.375  -7.176  -3.410  0.00  0.00     0.275 HD
HETATM    9  H           1     -22.150  -5.498  -3.196  0.00  0.00     0.275 HD
HETATM   10  H           1     -22.964  -6.080  -4.579  0.00  0.00     0.275 HD
ENDBRANCH   6   7
BRANCH   6  11
HETATM   11  C           1     -20.237  -7.701  -4.367  0.00  0.00     0.045 C 
BRANCH  11  12
HETATM   12 Se           1     -21.548  -8.910  -3.580  0.00  0.00     0.000 Se
HETATM   13  H           1     -22.551  -7.858  -3.347  0.00  0.00     0.000 HD
ENDBRANCH  11  12
ENDBRANCH   6  11
ENDBRANCH   3   6
ENDBRANCH   1   2
BRANCH   1  14
HETATM   14  C           1     -20.235  -4.436  -8.765  0.00  0.00     0.196 C 
HETATM   15  O           1     -19.230  -4.130  -8.087  0.00  0.00    -0.646 OA
HETATM   16  O           1     -20.168  -4.445 -10.013  0.00  0.00    -0.646 OA
ENDBRANCH   1  14
BRANCH   1  17
HETATM   17  C           1     -22.550  -3.687  -8.304  0.00  0.00     0.038 C 
BRANCH  17  18
HETATM   18  C           1     -23.776  -4.262  -9.001  0.00  0.00     0.023 C 
BRANCH  18  19
HETATM   19  C           1     -24.101  -3.425 -10.232  0.00  0.00     0.138 C 
BRANCH  19  20
HETATM   20  N           1     -22.877  -3.208 -11.016  0.00  0.00    -0.227 N 
HETATM   21  H           1     -22.135  -2.555 -10.662  0.00  0.00     0.177 HD
HETATM   22  C           1     -22.716  -3.809 -12.118  0.00  0.00     0.665 C 
HETATM   23  N           1     -23.611  -4.597 -12.546  0.00  0.00    -0.235 N 
HETATM   24  N           1     -21.633  -3.618 -12.812  0.00  0.00    -0.235 N 
HETATM   25  H           1     -23.478  -5.096 -13.460  0.00  0.00     0.174 HD
HETATM   26  H           1     -24.485  -4.752 -11.986  0.00  0.00     0.174 HD
HETATM   27  H           1     -21.501  -4.114 -13.722  0.00  0.00     0.174 HD
HETATM   28  H           1     -20.895  -2.968 -12.459  0.00  0.00     0.174 HD
ENDBRANCH  19  20
ENDBRANCH  18  19
ENDBRANCH  17  18
ENDBRANCH   1  17
TORSDOF 10
ENDMDL
MODEL 5
REMARK VINA RESULT:      -5.8      3.572      7.127
REMARK  10 active torsions:
REMARK  status: ('A' for Active; 'I' for Inactive)
REMARK    1  A    between atoms: N_7  and  C_10 
REMARK    2  A    between atoms: Se_8  and  C_9 
REMARK    3  A    between atoms: C_9  and  C_10 
REMARK    4  A    between atoms: C_10  and  C_11 
REMARK       I    between atoms: C_11  and  N_12 
REMARK    5  A    between atoms: N_12  and  C_16 
REMARK    6  A    between atoms: C_15  and  C_16 
REMARK    7  A    between atoms: C_16  and  C_17 
REMARK    8  A    between atoms: C_17  and  C_18 
REMARK    9  A    between atoms: C_18  and  C_19 
REMARK   10  A    between atoms: C_19  and  N_20 
REMARK       I    between atoms: N_20  and  C_22 
REMARK       I    between atoms: N_21  and  C_22 
ROOT
HETATM    1  C           1     -23.717  -4.276 -10.760  0.00  0.00     0.185 C 
ENDROOT
BRANCH   1   2
HETATM    2  N           1     -23.219  -3.275 -11.682  0.00  0.00    -0.345 N 
HETATM    3  C           1     -23.684  -3.239 -12.969  0.00  0.00     0.249 C 
HETATM    4  O           1     -24.510  -4.041 -13.337  0.00  0.00    -0.271 OA
HETATM    5  H           1     -22.528  -2.603 -11.375  0.00  0.00     0.163 HD
BRANCH   3   6
HETATM    6  C           1     -23.166  -2.197 -13.930  0.00  0.00     0.274 C 
BRANCH   6   7
HETATM    7  N           1     -22.414  -2.870 -15.040  0.00  0.00    -0.067 N 
HETATM    8  H           1     -22.861  -3.789 -15.258  0.00  0.00     0.275 HD
HETATM    9  H           1     -22.431  -2.263 -15.891  0.00  0.00     0.275 HD
HETATM   10  H           1     -21.423  -3.026 -14.743  0.00  0.00     0.275 HD
ENDBRANCH   6   7
BRANCH   6  11
HETATM   11  C           1     -24.336  -1.415 -14.512  0.00  0.00     0.045 C 
BRANCH  11  12
HETATM   12 Se           1     -23.667  -0.081 -15.766  0.00  0.00     0.000 Se
HETATM   13  H           1     -22.255  -0.461 -15.597  0.00  0.00     0.000 HD
ENDBRANCH  11  12
ENDBRANCH   6  11
ENDBRANCH   3   6
ENDBRANCH   1   2
BRANCH   1  14
HETATM   14  C           1     -24.563  -3.610  -9.703  0.00  0.00     0.196 C 
HETATM   15  O           1     -25.674  -3.124 -10.007  0.00  0.00    -0.646 OA
HETATM   16  O           1     -24.153  -3.544  -8.524  0.00  0.00    -0.646 OA
ENDBRANCH   1  14
BRANCH   1  17
HETATM   17  C           1     -22.542  -4.986 -10.100  0.00  0.00     0.038 C 
BRANCH  17  18
HETATM   18  C           1     -21.311  -4.092 -10.155  0.00  0.00     0.023 C 
BRANCH  18  19
HETATM   19  C           1     -20.484  -4.286  -8.890  0.00  0.00     0.138 C 
BRANCH  19  20
HETATM   20  N           1     -21.378  -4.374  -7.727  0.00  0.00    -0.227 N 
HETATM   21  H           1     -22.076  -3.611  -7.542  0.00  0.00     0.177 HD
HETATM   22  C           1     -21.307  -5.369  -6.948  0.00  0.00     0.665 C 
HETATM   23  N           1     -20.466  -6.289  -7.170  0.00  0.00    -0.235 N 
HETATM   24  N           1     -22.099  -5.446  -5.919  0.00  0.00    -0.235 N 
HETATM   25  H           1     -20.407  -7.114  -6.523  0.00  0.00     0.174 HD
HETATM   26  H           1     -19.827  -6.226  -8.001  0.00  0.00     0.174 HD
HETATM   27  H           1     -22.040  -6.267  -5.276  0.00  0.00     0.174 HD
HETATM   28  H           1     -22.793  -4.687  -5.736  0.00  0.00     0.174 HD
ENDBRANCH  19  20
ENDBRANCH  18  19
ENDBRANCH  17  18
ENDBRANCH   1  17
TORSDOF 10
ENDMDL
MODEL 6
REMARK VINA RESULT:      -5.7      3.933      5.147
REMARK  10 active torsions:
REMARK  status: ('A' for Active; 'I' for Inactive)
REMARK    1  A    between atoms: N_7  and  C_10 
REMARK    2  A    between atoms: Se_8  and  C_9 
REMARK    3  A    between atoms: C_9  and  C_10 
REMARK    4  A    between atoms: C_10  and  C_11 
REMARK       I    between atoms: C_11  and  N_12 
REMARK    5  A    between atoms: N_12  and  C_16 
REMARK    6  A    between atoms: C_15  and  C_16 
REMARK    7  A    between atoms: C_16  and  C_17 
REMARK    8  A    between atoms: C_17  and  C_18 
REMARK    9  A    between atoms: C_18  and  C_19 
REMARK   10  A    between atoms: C_19  and  N_20 
REMARK       I    between atoms: N_20  and  C_22 
REMARK       I    between atoms: N_21  and  C_22 
ROOT
HETATM    1  C           1     -21.030  -5.322  -6.313  0.00  0.00     0.185 C 
ENDROOT
BRANCH   1   2
HETATM    2  N           1     -20.816  -5.480  -4.888  0.00  0.00    -0.345 N 
HETATM    3  C           1     -21.586  -6.359  -4.174  0.00  0.00     0.249 C 
HETATM    4  O           1     -22.443  -7.002  -4.731  0.00  0.00    -0.271 OA
HETATM    5  H           1     -20.098  -4.941  -4.421  0.00  0.00     0.163 HD
BRANCH   3   6
HETATM    6  C           1     -21.363  -6.523  -2.690  0.00  0.00     0.274 C 
BRANCH   6   7
HETATM    7  N           1     -22.384  -5.720  -1.940  0.00  0.00    -0.067 N 
HETATM    8  H           1     -21.952  -4.828  -1.610  0.00  0.00     0.275 HD
HETATM    9  H           1     -23.190  -5.505  -2.569  0.00  0.00     0.275 HD
HETATM   10  H           1     -22.722  -6.269  -1.116  0.00  0.00     0.275 HD
ENDBRANCH   6   7
BRANCH   6  11
HETATM   11  C           1     -21.498  -7.993  -2.316  0.00  0.00     0.045 C 
BRANCH  11  12
HETATM   12 Se           1     -22.149  -8.140  -0.485  0.00  0.00     0.000 Se
HETATM   13  H           1     -22.679  -6.768  -0.439  0.00  0.00     0.000 HD
ENDBRANCH  11  12
ENDBRANCH   6  11
ENDBRANCH   3   6
ENDBRANCH   1   2
BRANCH   1  14
HETATM   14  C           1     -20.026  -6.159  -7.068  0.00  0.00     0.196 C 
HETATM   15  O           1     -19.699  -5.842  -8.233  0.00  0.00    -0.646 OA
HETATM   16  O           1     -19.523  -7.168  -6.530  0.00  0.00    -0.646 OA
ENDBRANCH   1  14
BRANCH   1  17
HETATM   17  C           1     -20.859  -3.857  -6.692  0.00  0.00     0.038 C 
BRANCH  17  18
HETATM   18  C           1     -21.787  -3.519  -7.851  0.00  0.00     0.023 C 
BRANCH  18  19
HETATM   19  C           1     -22.976  -4.473  -7.845  0.00  0.00     0.138 C 
BRANCH  19  20
HETATM   20  N           1     -24.166  -3.777  -8.356  0.00  0.00    -0.227 N 
HETATM   21  H           1     -24.649  -3.059  -7.762  0.00  0.00     0.177 HD
HETATM   22  C           1     -24.608  -4.044  -9.512  0.00  0.00     0.665 C 
HETATM   23  N           1     -24.025  -4.910 -10.228  0.00  0.00    -0.235 N 
HETATM   24  N           1     -25.660  -3.429  -9.963  0.00  0.00    -0.235 N 
HETATM   25  H           1     -24.391  -5.131 -11.187  0.00  0.00     0.174 HD
HETATM   26  H           1     -23.175  -5.407  -9.864  0.00  0.00     0.174 HD
HETATM   27  H           1     -26.025  -3.649 -10.917  0.00  0.00     0.174 HD
HETATM   28  H           1     -26.141  -2.714  -9.372  0.00  0.00     0.174 HD
ENDBRANCH  19  20
ENDBRANCH  18  19
ENDBRANCH  17  18
ENDBRANCH   1  17
TORSDOF 10
ENDMDL
MODEL 7
REMARK VINA RESULT:      -5.7      4.376      6.135
REMARK  10 active torsions:
REMARK  status: ('A' for Active; 'I' for Inactive)
REMARK    1  A    between atoms: N_7  and  C_10 
REMARK    2  A    between atoms: Se_8  and  C_9 
REMARK    3  A    between atoms: C_9  and  C_10 
REMARK    4  A    between atoms: C_10  and  C_11 
REMARK       I    between atoms: C_11  and  N_12 
REMARK    5  A    between atoms: N_12  and  C_16 
REMARK    6  A    between atoms: C_15  and  C_16 
REMARK    7  A    between atoms: C_16  and  C_17 
REMARK    8  A    between atoms: C_17  and  C_18 
REMARK    9  A    between atoms: C_18  and  C_19 
REMARK   10  A    between atoms: C_19  and  N_20 
REMARK       I    between atoms: N_20  and  C_22 
REMARK       I    between atoms: N_21  and  C_22 
ROOT
HETATM    1  C           1     -20.658  -6.810  -5.411  0.00  0.00     0.185 C 
ENDROOT
BRANCH   1   2
HETATM    2  N           1     -20.791  -8.233  -5.657  0.00  0.00    -0.345 N 
HETATM    3  C           1     -20.032  -9.124  -4.946  0.00  0.00     0.249 C 
HETATM    4  O           1     -19.253  -8.725  -4.114  0.00  0.00    -0.271 OA
HETATM    5  H           1     -21.443  -8.567  -6.355  0.00  0.00     0.163 HD
BRANCH   3   6
HETATM    6  C           1     -20.170 -10.605  -5.203  0.00  0.00     0.274 C 
BRANCH   6   7
HETATM    7  N           1     -21.173 -10.833  -6.294  0.00  0.00    -0.067 N 
HETATM    8  H           1     -21.814 -10.010  -6.356  0.00  0.00     0.275 HD
HETATM    9  H           1     -20.675 -10.955  -7.205  0.00  0.00     0.275 HD
HETATM   10  H           1     -21.729 -11.693  -6.082  0.00  0.00     0.275 HD
ENDBRANCH   6   7
BRANCH   6  11
HETATM   11  C           1     -18.822 -11.175  -5.624  0.00  0.00     0.045 C 
BRANCH  11  12
HETATM   12 Se           1     -19.040 -12.219  -7.256  0.00  0.00     0.000 Se
HETATM   13  H           1     -20.497 -12.366  -7.106  0.00  0.00     0.000 HD
ENDBRANCH  11  12
ENDBRANCH   6  11
ENDBRANCH   3   6
ENDBRANCH   1   2
BRANCH   1  14
HETATM   14  C           1     -21.917  -6.293  -4.760  0.00  0.00     0.196 C 
HETATM   15  O           1     -21.967  -6.156  -3.518  0.00  0.00    -0.646 OA
HETATM   16  O           1     -22.910  -6.002  -5.461  0.00  0.00    -0.646 OA
ENDBRANCH   1  14
BRANCH   1  17
HETATM   17  C           1     -20.433  -6.086  -6.732  0.00  0.00     0.038 C 
BRANCH  17  18
HETATM   18  C           1     -20.063  -4.634  -6.460  0.00  0.00     0.023 C 
BRANCH  18  19
HETATM   19  C           1     -20.617  -3.751  -7.572  0.00  0.00     0.138 C 
BRANCH  19  20
HETATM   20  N           1     -22.082  -3.686  -7.464  0.00  0.00    -0.227 N 
HETATM   21  H           1     -22.528  -3.380  -6.565  0.00  0.00     0.177 HD
HETATM   22  C           1     -22.804  -3.999  -8.455  0.00  0.00     0.665 C 
HETATM   23  N           1     -22.266  -4.369  -9.540  0.00  0.00    -0.235 N 
HETATM   24  N           1     -24.099  -3.941  -8.359  0.00  0.00    -0.235 N 
HETATM   25  H           1     -22.865  -4.628 -10.362  0.00  0.00     0.174 HD
HETATM   26  H           1     -21.220  -4.415  -9.617  0.00  0.00     0.174 HD
HETATM   27  H           1     -24.695  -4.199  -9.177  0.00  0.00     0.174 HD
HETATM   28  H           1     -24.544  -3.636  -7.464  0.00  0.00     0.174 HD
ENDBRANCH  19  20
ENDBRANCH  18  19
ENDBRANCH  17  18
ENDBRANCH   1  17
TORSDOF 10
ENDMDL
MODEL 8
REMARK VINA RESULT:      -5.5     10.376     12.134
REMARK  10 active torsions:
REMARK  status: ('A' for Active; 'I' for Inactive)
REMARK    1  A    between atoms: N_7  and  C_10 
REMARK    2  A    between atoms: Se_8  and  C_9 
REMARK    3  A    between atoms: C_9  and  C_10 
REMARK    4  A    between atoms: C_10  and  C_11 
REMARK       I    between atoms: C_11  and  N_12 
REMARK    5  A    between atoms: N_12  and  C_16 
REMARK    6  A    between atoms: C_15  and  C_16 
REMARK    7  A    between atoms: C_16  and  C_17 
REMARK    8  A    between atoms: C_17  and  C_18 
REMARK    9  A    between atoms: C_18  and  C_19 
REMARK   10  A    between atoms: C_19  and  N_20 
REMARK       I    between atoms: N_20  and  C_22 
REMARK       I    between atoms: N_21  and  C_22 
ROOT
HETATM    1  C           1     -29.226  -6.915 -18.096  0.00  0.00     0.185 C 
ENDROOT
BRANCH   1   2
HETATM    2  N           1     -27.982  -6.898 -18.841  0.00  0.00    -0.345 N 
HETATM    3  C           1     -26.841  -6.418 -18.257  0.00  0.00     0.249 C 
HETATM    4  O           1     -26.870  -6.007 -17.121  0.00  0.00    -0.271 OA
HETATM    5  H           1     -27.958  -7.242 -19.792  0.00  0.00     0.163 HD
BRANCH   3   6
HETATM    6  C           1     -25.546  -6.399 -19.032  0.00  0.00     0.274 C 
BRANCH   6   7
HETATM    7  N           1     -24.581  -7.368 -18.416  0.00  0.00    -0.067 N 
HETATM    8  H           1     -25.028  -8.310 -18.346  0.00  0.00     0.275 HD
HETATM    9  H           1     -23.724  -7.432 -19.011  0.00  0.00     0.275 HD
HETATM   10  H           1     -24.317  -7.036 -17.460  0.00  0.00     0.275 HD
ENDBRANCH   6   7
BRANCH   6  11
HETATM   11  C           1     -25.813  -6.798 -20.477  0.00  0.00     0.045 C 
BRANCH  11  12
HETATM   12 Se           1     -24.373  -7.949 -21.110  0.00  0.00     0.000 Se
HETATM   13  H           1     -25.207  -8.641 -22.106  0.00  0.00     0.000 HD
ENDBRANCH  11  12
ENDBRANCH   6  11
ENDBRANCH   3   6
ENDBRANCH   1   2
BRANCH   1  14
HETATM   14  C           1     -30.169  -7.917 -18.715  0.00  0.00     0.196 C 
HETATM   15  O           1     -31.404  -7.730 -18.658  0.00  0.00    -0.646 OA
HETATM   16  O           1     -29.717  -8.934 -19.283  0.00  0.00    -0.646 OA
ENDBRANCH   1  14
BRANCH   1  17
HETATM   17  C           1     -29.858  -5.530 -18.134  0.00  0.00     0.038 C 
BRANCH  17  18
HETATM   18  C           1     -30.540  -5.245 -16.803  0.00  0.00     0.023 C 
BRANCH  18  19
HETATM   19  C           1     -31.858  -4.521 -17.051  0.00  0.00     0.138 C 
BRANCH  19  20
HETATM   20  N           1     -32.977  -5.393 -16.668  0.00  0.00    -0.227 N 
HETATM   21  H           1     -32.903  -6.432 -16.801  0.00  0.00     0.177 HD
HETATM   22  C           1     -34.031  -4.893 -16.177  0.00  0.00     0.665 C 
HETATM   23  N           1     -34.121  -3.640 -16.016  0.00  0.00    -0.235 N 
HETATM   24  N           1     -35.021  -5.664 -15.838  0.00  0.00    -0.235 N 
HETATM   25  H           1     -34.995  -3.224 -15.609  0.00  0.00     0.174 HD
HETATM   26  H           1     -33.321  -3.016 -16.289  0.00  0.00     0.174 HD
HETATM   27  H           1     -35.890  -5.250 -15.433  0.00  0.00     0.174 HD
HETATM   28  H           1     -34.946  -6.698 -15.971  0.00  0.00     0.174 HD
ENDBRANCH  19  20
ENDBRANCH  18  19
ENDBRANCH  17  18
ENDBRANCH   1  17
TORSDOF 10
ENDMDL
MODEL 9
REMARK VINA RESULT:      -5.5      4.878      9.781
REMARK  10 active torsions:
REMARK  status: ('A' for Active; 'I' for Inactive)
REMARK    1  A    between atoms: N_7  and  C_10 
REMARK    2  A    between atoms: Se_8  and  C_9 
REMARK    3  A    between atoms: C_9  and  C_10 
REMARK    4  A    between atoms: C_10  and  C_11 
REMARK       I    between atoms: C_11  and  N_12 
REMARK    5  A    between atoms: N_12  and  C_16 
REMARK    6  A    between atoms: C_15  and  C_16 
REMARK    7  A    between atoms: C_16  and  C_17 
REMARK    8  A    between atoms: C_17  and  C_18 
REMARK    9  A    between atoms: C_18  and  C_19 
REMARK   10  A    between atoms: C_19  and  N_20 
REMARK       I    between atoms: N_20  and  C_22 
REMARK       I    between atoms: N_21  and  C_22 
ROOT
HETATM    1  C           1     -20.853  -6.847  -4.775  0.00  0.00     0.185 C 
ENDROOT
BRANCH   1   2
HETATM    2  N           1     -21.271  -6.456  -6.107  0.00  0.00    -0.345 N 
HETATM    3  C           1     -20.964  -5.209  -6.582  0.00  0.00     0.249 C 
HETATM    4  O           1     -20.346  -4.435  -5.891  0.00  0.00    -0.271 OA
HETATM    5  H           1     -21.788  -7.105  -6.686  0.00  0.00     0.163 HD
BRANCH   3   6
HETATM    6  C           1     -21.398  -4.802  -7.968  0.00  0.00     0.274 C 
BRANCH   6   7
HETATM    7  N           1     -22.266  -3.581  -7.882  0.00  0.00    -0.067 N 
HETATM    8  H           1     -21.742  -2.813  -7.404  0.00  0.00     0.275 HD
HETATM    9  H           1     -22.532  -3.274  -8.845  0.00  0.00     0.275 HD
HETATM   10  H           1     -23.130  -3.806  -7.337  0.00  0.00     0.275 HD
ENDBRANCH   6   7
BRANCH   6  11
HETATM   11  C           1     -20.171  -4.493  -8.815  0.00  0.00     0.045 C 
BRANCH  11  12
HETATM   12 Se           1     -20.715  -4.196 -10.663  0.00  0.00     0.000 Se
HETATM   13  H           1     -19.515  -3.419 -11.014  0.00  0.00     0.000 HD
ENDBRANCH  11  12
ENDBRANCH   6  11
ENDBRANCH   3   6
ENDBRANCH   1   2
BRANCH   1  14
HETATM   14  C           1     -20.429  -8.296  -4.786  0.00  0.00     0.196 C 
HETATM   15  O           1     -19.585  -8.693  -5.617  0.00  0.00    -0.646 OA
HETATM   16  O           1     -20.923  -9.098  -3.964  0.00  0.00    -0.646 OA
ENDBRANCH   1  14
BRANCH   1  17
HETATM   17  C           1     -22.014  -6.664  -3.806  0.00  0.00     0.038 C 
BRANCH  17  18
HETATM   18  C           1     -21.501  -6.062  -2.505  0.00  0.00     0.023 C 
BRANCH  18  19
HETATM   19  C           1     -22.331  -6.587  -1.340  0.00  0.00     0.138 C 
BRANCH  19  20
HETATM   20  N           1     -22.053  -8.017  -1.143  0.00  0.00    -0.227 N 
HETATM   21  H           1     -21.373  -8.511  -1.771  0.00  0.00     0.177 HD
HETATM   22  C           1     -22.634  -8.653  -0.216  0.00  0.00     0.665 C 
HETATM   23  N           1     -23.455  -8.058   0.543  0.00  0.00    -0.235 N 
HETATM   24  N           1     -22.388  -9.918  -0.042  0.00  0.00    -0.235 N 
HETATM   25  H           1     -23.937  -8.585   1.312  0.00  0.00     0.174 HD
HETATM   26  H           1     -23.654  -7.036   0.402  0.00  0.00     0.174 HD
HETATM   27  H           1     -22.868 -10.442   0.724  0.00  0.00     0.174 HD
HETATM   28  H           1     -21.711 -10.408  -0.668  0.00  0.00     0.174 HD
ENDBRANCH  19  20
ENDBRANCH  18  19
ENDBRANCH  17  18
ENDBRANCH   1  17
TORSDOF 10
ENDMDL
