MODEL 1
REMARK VINA RESULT:      -6.9      0.000      0.000
REMARK  7 active torsions:
REMARK  status: ('A' for Active; 'I' for Inactive)
REMARK    1  A    between atoms: N_4  and  C_14 
REMARK    2  A    between atoms: N_5  and  C_12 
REMARK       I    between atoms: N_5  and  C_6 
REMARK    3  A    between atoms: C_6  and  C_14 
REMARK    4  A    between atoms: C_9  and  C_12 
REMARK    5  A    between atoms: C_9  and  C_16 
REMARK    6  A    between atoms: C_12  and  C_23 
REMARK    7  A    between atoms: C_14  and  C_17 
ROOT
HETATM    1  N           1     -35.418  -1.344 -10.184  0.00  0.00    -0.344 N 
HETATM    2  C           1     -34.326  -2.021 -10.656  0.00  0.00     0.249 C 
HETATM    3  O           1     -33.213  -1.628 -10.396  0.00  0.00    -0.271 OA
HETATM    4  H           1     -35.816  -1.589  -9.287  0.00  0.00     0.163 HD
ENDROOT
BRANCH   1   5
HETATM    5  C           1     -36.005  -0.277 -10.972  0.00  0.00     0.191 C 
BRANCH   5   6
HETATM    6  C           1     -36.811  -0.875 -12.116  0.00  0.00     0.094 C 
BRANCH   6   7
HETATM    7  C           1     -36.511  -0.133 -13.381  0.00  0.00     0.028 A 
HETATM    8  N           1     -35.300   0.437 -13.681  0.00  0.00    -0.354 N 
HETATM    9  C           1     -35.458   0.981 -14.866  0.00  0.00     0.180 A 
ATOM     10  HN          1     -34.457   0.438 -13.107  1.00  0.00     0.166 HD
HETATM   11  N           1     -36.723   0.784 -15.342  0.00  0.00    -0.360 N 
HETATM   12  H           1     -37.099   1.119 -16.264  0.00  0.00     0.166 HD
HETATM   13  C           1     -37.411   0.071 -14.400  0.00  0.00     0.114 A 
ENDBRANCH   6   7
ENDBRANCH   5   6
BRANCH   5  14
HETATM   14  C           1     -36.912   0.553 -10.096  0.00  0.00     0.197 C 
HETATM   15  O           1     -36.500   0.979  -8.995  0.00  0.00    -0.646 OA
HETATM   16  O           1     -38.075   0.814 -10.472  0.00  0.00    -0.646 OA
ENDBRANCH   5  14
ENDBRANCH   1   5
BRANCH   2  17
HETATM   17  C           1     -34.511  -3.257 -11.501  0.00  0.00     0.278 C 
BRANCH  17  18
HETATM   18  N           1     -34.211  -2.932 -12.934  0.00  0.00    -0.066 N 
HETATM   19  H           1     -35.081  -2.593 -13.404  0.00  0.00     0.275 HD
HETATM   20  H           1     -33.480  -2.188 -12.977  0.00  0.00     0.275 HD
HETATM   21  H           1     -33.866  -3.791 -13.420  0.00  0.00     0.275 HD
ENDBRANCH  17  18
BRANCH  17  22
HETATM   22  C           1     -33.564  -4.349 -11.020  0.00  0.00     0.017 C 
HETATM   23  C           1     -32.448  -4.537 -12.038  0.00  0.00     0.012 C 
HETATM   24  C           1     -34.332  -5.654 -10.862  0.00  0.00     0.012 C 
ENDBRANCH  17  22
ENDBRANCH   2  17
TORSDOF 7
ENDMDL
MODEL 2
REMARK VINA RESULT:      -6.5      1.447      1.891
REMARK  7 active torsions:
REMARK  status: ('A' for Active; 'I' for Inactive)
REMARK    1  A    between atoms: N_4  and  C_14 
REMARK    2  A    between atoms: N_5  and  C_12 
REMARK       I    between atoms: N_5  and  C_6 
REMARK    3  A    between atoms: C_6  and  C_14 
REMARK    4  A    between atoms: C_9  and  C_12 
REMARK    5  A    between atoms: C_9  and  C_16 
REMARK    6  A    between atoms: C_12  and  C_23 
REMARK    7  A    between atoms: C_14  and  C_17 
ROOT
HETATM    1  N           1     -34.674  -0.928 -12.026  0.00  0.00    -0.344 N 
HETATM    2  C           1     -34.657  -2.267 -12.310  0.00  0.00     0.249 C 
HETATM    3  O           1     -34.667  -2.641 -13.460  0.00  0.00    -0.271 OA
HETATM    4  H           1     -33.804  -0.420 -11.933  0.00  0.00     0.163 HD
ENDROOT
BRANCH   1   5
HETATM    5  C           1     -35.939  -0.239 -11.858  0.00  0.00     0.191 C 
BRANCH   5   6
HETATM    6  C           1     -36.876  -0.612 -12.999  0.00  0.00     0.094 C 
BRANCH   6   7
HETATM    7  C           1     -36.604   0.269 -14.178  0.00  0.00     0.028 A 
HETATM    8  N           1     -35.517   1.096 -14.299  0.00  0.00    -0.354 N 
HETATM    9  C           1     -35.658   1.683 -15.465  0.00  0.00     0.180 A 
ATOM     10  HN          1     -34.761   1.226 -13.627  1.00  0.00     0.166 HD
HETATM   11  N           1     -36.793   1.269 -16.101  0.00  0.00    -0.360 N 
HETATM   12  H           1     -37.130   1.588 -17.043  0.00  0.00     0.166 HD
HETATM   13  C           1     -37.412   0.361 -15.287  0.00  0.00     0.114 A 
ENDBRANCH   6   7
ENDBRANCH   5   6
BRANCH   5  14
HETATM   14  C           1     -36.559  -0.641 -10.543  0.00  0.00     0.197 C 
HETATM   15  O           1     -37.722  -1.099 -10.514  0.00  0.00    -0.646 OA
HETATM   16  O           1     -35.910  -0.516  -9.482  0.00  0.00    -0.646 OA
ENDBRANCH   5  14
ENDBRANCH   1   5
BRANCH   2  17
HETATM   17  C           1     -34.627  -3.276 -11.189  0.00  0.00     0.278 C 
BRANCH  17  18
HETATM   18  N           1     -36.030  -3.596 -10.767  0.00  0.00    -0.066 N 
HETATM   19  H           1     -36.299  -4.537 -11.135  0.00  0.00     0.275 HD
HETATM   20  H           1     -36.087  -3.602  -9.724  0.00  0.00     0.275 HD
HETATM   21  H           1     -36.682  -2.874 -11.149  0.00  0.00     0.275 HD
ENDBRANCH  17  18
BRANCH  17  22
HETATM   22  C           1     -33.938  -4.547 -11.667  0.00  0.00     0.017 C 
HETATM   23  C           1     -34.118  -5.644 -10.625  0.00  0.00     0.012 C 
HETATM   24  C           1     -32.453  -4.276 -11.866  0.00  0.00     0.012 C 
ENDBRANCH  17  22
ENDBRANCH   2  17
TORSDOF 7
ENDMDL
MODEL 3
REMARK VINA RESULT:      -6.5      1.965      5.489
REMARK  7 active torsions:
REMARK  status: ('A' for Active; 'I' for Inactive)
REMARK    1  A    between atoms: N_4  and  C_14 
REMARK    2  A    between atoms: N_5  and  C_12 
REMARK       I    between atoms: N_5  and  C_6 
REMARK    3  A    between atoms: C_6  and  C_14 
REMARK    4  A    between atoms: C_9  and  C_12 
REMARK    5  A    between atoms: C_9  and  C_16 
REMARK    6  A    between atoms: C_12  and  C_23 
REMARK    7  A    between atoms: C_14  and  C_17 
ROOT
HETATM    1  N           1     -34.540  -1.426 -12.490  0.00  0.00    -0.344 N 
HETATM    2  C           1     -35.206  -0.342 -12.996  0.00  0.00     0.249 C 
HETATM    3  O           1     -35.038   0.751 -12.508  0.00  0.00    -0.271 OA
HETATM    4  H           1     -33.633  -1.680 -12.859  0.00  0.00     0.163 HD
ENDROOT
BRANCH   1   5
HETATM    5  C           1     -35.135  -2.211 -11.426  0.00  0.00     0.191 C 
BRANCH   5   6
HETATM    6  C           1     -34.041  -2.726 -10.502  0.00  0.00     0.094 C 
BRANCH   6   7
HETATM    7  C           1     -33.783  -4.172 -10.790  0.00  0.00     0.028 A 
HETATM    8  N           1     -34.494  -5.213 -10.251  0.00  0.00    -0.354 N 
HETATM    9  C           1     -33.953  -6.299 -10.755  0.00  0.00     0.180 A 
ATOM     10  HN          1     -35.277  -5.156  -9.599  1.00  0.00     0.166 HD
HETATM   11  N           1     -32.920  -5.999 -11.596  0.00  0.00    -0.360 N 
HETATM   12  H           1     -32.328  -6.688 -12.123  0.00  0.00     0.166 HD
HETATM   13  C           1     -32.799  -4.638 -11.629  0.00  0.00     0.114 A 
ENDBRANCH   6   7
ENDBRANCH   5   6
BRANCH   5  14
HETATM   14  C           1     -36.093  -1.348 -10.642  0.00  0.00     0.197 C 
HETATM   15  O           1     -37.293  -1.275 -10.984  0.00  0.00    -0.646 OA
HETATM   16  O           1     -35.686  -0.706  -9.649  0.00  0.00    -0.646 OA
ENDBRANCH   5  14
ENDBRANCH   1   5
BRANCH   2  17
HETATM   17  C           1     -36.148  -0.512 -14.161  0.00  0.00     0.278 C 
BRANCH  17  18
HETATM   18  N           1     -37.408   0.259 -13.901  0.00  0.00    -0.066 N 
HETATM   19  H           1     -37.345   1.196 -14.360  0.00  0.00     0.275 HD
HETATM   20  H           1     -38.224  -0.265 -14.291  0.00  0.00     0.275 HD
HETATM   21  H           1     -37.533   0.384 -12.871  0.00  0.00     0.275 HD
ENDBRANCH  17  18
BRANCH  17  22
HETATM   22  C           1     -35.488   0.009 -15.430  0.00  0.00     0.017 C 
HETATM   23  C           1     -36.023   1.399 -15.747  0.00  0.00     0.012 C 
HETATM   24  C           1     -35.801  -0.930 -16.588  0.00  0.00     0.012 C 
ENDBRANCH  17  22
ENDBRANCH   2  17
TORSDOF 7
ENDMDL
MODEL 4
REMARK VINA RESULT:      -6.3      2.570      3.755
REMARK  7 active torsions:
REMARK  status: ('A' for Active; 'I' for Inactive)
REMARK    1  A    between atoms: N_4  and  C_14 
REMARK    2  A    between atoms: N_5  and  C_12 
REMARK       I    between atoms: N_5  and  C_6 
REMARK    3  A    between atoms: C_6  and  C_14 
REMARK    4  A    between atoms: C_9  and  C_12 
REMARK    5  A    between atoms: C_9  and  C_16 
REMARK    6  A    between atoms: C_12  and  C_23 
REMARK    7  A    between atoms: C_14  and  C_17 
ROOT
HETATM    1  N           1     -34.544  -1.765 -13.048  0.00  0.00    -0.344 N 
HETATM    2  C           1     -34.617  -3.062 -12.617  0.00  0.00     0.249 C 
HETATM    3  O           1     -34.736  -3.959 -13.418  0.00  0.00    -0.271 OA
HETATM    4  H           1     -33.646  -1.352 -13.262  0.00  0.00     0.163 HD
ENDROOT
BRANCH   1   5
HETATM    5  C           1     -35.756  -0.982 -13.198  0.00  0.00     0.191 C 
BRANCH   5   6
HETATM    6  C           1     -35.674   0.254 -12.313  0.00  0.00     0.094 C 
BRANCH   6   7
HETATM    7  C           1     -36.435   0.014 -11.046  0.00  0.00     0.028 A 
HETATM    8  N           1     -35.881  -0.449  -9.881  0.00  0.00    -0.354 N 
HETATM    9  C           1     -36.877  -0.519  -9.028  0.00  0.00     0.180 A 
ATOM     10  HN          1     -34.903  -0.689  -9.713  1.00  0.00     0.166 HD
HETATM   11  N           1     -38.052  -0.119  -9.597  0.00  0.00    -0.360 N 
HETATM   12  H           1     -38.990  -0.082  -9.126  0.00  0.00     0.166 HD
HETATM   13  C           1     -37.784   0.226 -10.893  0.00  0.00     0.114 A 
ENDBRANCH   6   7
ENDBRANCH   5   6
BRANCH   5  14
HETATM   14  C           1     -35.908  -0.561 -14.639  0.00  0.00     0.197 C 
HETATM   15  O           1     -37.047  -0.413 -15.131  0.00  0.00    -0.646 OA
HETATM   16  O           1     -34.893  -0.363 -15.342  0.00  0.00    -0.646 OA
ENDBRANCH   5  14
ENDBRANCH   1   5
BRANCH   2  17
HETATM   17  C           1     -34.549  -3.371 -11.142  0.00  0.00     0.278 C 
BRANCH  17  18
HETATM   18  N           1     -35.853  -3.962 -10.695  0.00  0.00    -0.066 N 
HETATM   19  H           1     -36.260  -4.535 -11.469  0.00  0.00     0.275 HD
HETATM   20  H           1     -35.693  -4.568  -9.860  0.00  0.00     0.275 HD
HETATM   21  H           1     -36.516  -3.193 -10.447  0.00  0.00     0.275 HD
ENDBRANCH  17  18
BRANCH  17  22
HETATM   22  C           1     -33.426  -4.366 -10.882  0.00  0.00     0.017 C 
HETATM   23  C           1     -32.401  -4.279 -12.005  0.00  0.00     0.012 C 
HETATM   24  C           1     -34.000  -5.777 -10.828  0.00  0.00     0.012 C 
ENDBRANCH  17  22
ENDBRANCH   2  17
TORSDOF 7
ENDMDL
MODEL 5
REMARK VINA RESULT:      -5.8     13.276     15.924
REMARK  7 active torsions:
REMARK  status: ('A' for Active; 'I' for Inactive)
REMARK    1  A    between atoms: N_4  and  C_14 
REMARK    2  A    between atoms: N_5  and  C_12 
REMARK       I    between atoms: N_5  and  C_6 
REMARK    3  A    between atoms: C_6  and  C_14 
REMARK    4  A    between atoms: C_9  and  C_12 
REMARK    5  A    between atoms: C_9  and  C_16 
REMARK    6  A    between atoms: C_12  and  C_23 
REMARK    7  A    between atoms: C_14  and  C_17 
ROOT
HETATM    1  N           1     -21.828  -6.928  -6.309  0.00  0.00    -0.344 N 
HETATM    2  C           1     -22.220  -6.556  -5.051  0.00  0.00     0.249 C 
HETATM    3  O           1     -23.349  -6.168  -4.861  0.00  0.00    -0.271 OA
HETATM    4  H           1     -21.937  -7.888  -6.610  0.00  0.00     0.163 HD
ENDROOT
BRANCH   1   5
HETATM    5  C           1     -21.254  -5.946  -7.209  0.00  0.00     0.191 C 
BRANCH   5   6
HETATM    6  C           1     -21.895  -4.589  -6.956  0.00  0.00     0.094 C 
BRANCH   6   7
HETATM    7  C           1     -22.637  -4.150  -8.179  0.00  0.00     0.028 A 
HETATM    8  N           1     -23.990  -3.931  -8.233  0.00  0.00    -0.354 N 
HETATM    9  C           1     -24.232  -3.565  -9.471  0.00  0.00     0.180 A 
ATOM     10  HN          1     -24.664  -4.032  -7.474  1.00  0.00     0.166 HD
HETATM   11  N           1     -23.088  -3.538 -10.218  0.00  0.00    -0.360 N 
HETATM   12  H           1     -23.015  -3.278 -11.232  0.00  0.00     0.166 HD
HETATM   13  C           1     -22.056  -3.912  -9.402  0.00  0.00     0.114 A 
ENDBRANCH   6   7
ENDBRANCH   5   6
BRANCH   5  14
HETATM   14  C           1     -19.767  -5.854  -6.970  0.00  0.00     0.197 C 
HETATM   15  O           1     -19.088  -6.896  -6.844  0.00  0.00    -0.646 OA
HETATM   16  O           1     -19.214  -4.735  -6.898  0.00  0.00    -0.646 OA
ENDBRANCH   5  14
ENDBRANCH   1   5
BRANCH   2  17
HETATM   17  C           1     -21.244  -6.630  -3.903  0.00  0.00     0.278 C 
BRANCH  17  18
HETATM   18  N           1     -21.750  -5.796  -2.764  0.00  0.00    -0.066 N 
HETATM   19  H           1     -21.024  -5.757  -2.012  0.00  0.00     0.275 HD
HETATM   20  H           1     -21.952  -4.829  -3.103  0.00  0.00     0.275 HD
HETATM   21  H           1     -22.623  -6.224  -2.381  0.00  0.00     0.275 HD
ENDBRANCH  17  18
BRANCH  17  22
HETATM   22  C           1     -21.101  -8.076  -3.450  0.00  0.00     0.017 C 
HETATM   23  C           1     -21.200  -8.144  -1.932  0.00  0.00     0.012 C 
HETATM   24  C           1     -19.747  -8.617  -3.893  0.00  0.00     0.012 C 
ENDBRANCH  17  22
ENDBRANCH   2  17
TORSDOF 7
ENDMDL
MODEL 6
REMARK VINA RESULT:      -5.8     12.861     15.464
REMARK  7 active torsions:
REMARK  status: ('A' for Active; 'I' for Inactive)
REMARK    1  A    between atoms: N_4  and  C_14 
REMARK    2  A    between atoms: N_5  and  C_12 
REMARK       I    between atoms: N_5  and  C_6 
REMARK    3  A    between atoms: C_6  and  C_14 
REMARK    4  A    between atoms: C_9  and  C_12 
REMARK    5  A    between atoms: C_9  and  C_16 
REMARK    6  A    between atoms: C_12  and  C_23 
REMARK    7  A    between atoms: C_14  and  C_17 
ROOT
HETATM    1  N           1     -20.595  -5.336  -6.591  0.00  0.00    -0.344 N 
HETATM    2  C           1     -20.314  -6.620  -6.208  0.00  0.00     0.249 C 
HETATM    3  O           1     -19.237  -7.104  -6.465  0.00  0.00    -0.271 OA
HETATM    4  H           1     -20.384  -4.565  -5.970  0.00  0.00     0.163 HD
ENDROOT
BRANCH   1   5
HETATM    5  C           1     -21.197  -5.082  -7.886  0.00  0.00     0.191 C 
BRANCH   5   6
HETATM    6  C           1     -22.396  -4.158  -7.715  0.00  0.00     0.094 C 
BRANCH   6   7
HETATM    7  C           1     -23.220  -4.172  -8.965  0.00  0.00     0.028 A 
HETATM    8  N           1     -23.031  -5.036 -10.013  0.00  0.00    -0.354 N 
HETATM    9  C           1     -23.951  -4.716 -10.894  0.00  0.00     0.180 A 
ATOM     10  HN          1     -22.327  -5.770 -10.091  1.00  0.00     0.166 HD
HETATM   11  N           1     -24.725  -3.680 -10.456  0.00  0.00    -0.360 N 
HETATM   12  H           1     -25.526  -3.240 -10.974  0.00  0.00     0.166 HD
HETATM   13  C           1     -24.268  -3.320  -9.219  0.00  0.00     0.114 A 
ENDBRANCH   6   7
ENDBRANCH   5   6
BRANCH   5  14
HETATM   14  C           1     -20.183  -4.430  -8.792  0.00  0.00     0.197 C 
HETATM   15  O           1     -20.076  -4.800  -9.981  0.00  0.00    -0.646 OA
HETATM   16  O           1     -19.448  -3.519  -8.353  0.00  0.00    -0.646 OA
ENDBRANCH   5  14
ENDBRANCH   1   5
BRANCH   2  17
HETATM   17  C           1     -21.347  -7.430  -5.465  0.00  0.00     0.278 C 
BRANCH  17  18
HETATM   18  N           1     -21.320  -8.847  -5.958  0.00  0.00    -0.066 N 
HETATM   19  H           1     -21.024  -8.861  -6.960  0.00  0.00     0.275 HD
HETATM   20  H           1     -20.643  -9.401  -5.387  0.00  0.00     0.275 HD
HETATM   21  H           1     -22.274  -9.263  -5.871  0.00  0.00     0.275 HD
ENDBRANCH  17  18
BRANCH  17  22
HETATM   22  C           1     -21.038  -7.406  -3.975  0.00  0.00     0.017 C 
HETATM   23  C           1     -21.353  -8.767  -3.368  0.00  0.00     0.012 C 
HETATM   24  C           1     -21.888  -6.339  -3.297  0.00  0.00     0.012 C 
ENDBRANCH  17  22
ENDBRANCH   2  17
TORSDOF 7
ENDMDL
MODEL 7
REMARK VINA RESULT:      -5.8      9.624     12.711
REMARK  7 active torsions:
REMARK  status: ('A' for Active; 'I' for Inactive)
REMARK    1  A    between atoms: N_4  and  C_14 
REMARK    2  A    between atoms: N_5  and  C_12 
REMARK       I    between atoms: N_5  and  C_6 
REMARK    3  A    between atoms: C_6  and  C_14 
REMARK    4  A    between atoms: C_9  and  C_12 
REMARK    5  A    between atoms: C_9  and  C_16 
REMARK    6  A    between atoms: C_12  and  C_23 
REMARK    7  A    between atoms: C_14  and  C_17 
ROOT
HETATM    1  N           1     -26.972  -6.137 -16.854  0.00  0.00    -0.344 N 
HETATM    2  C           1     -28.207  -6.624 -16.523  0.00  0.00     0.249 C 
HETATM    3  O           1     -28.450  -6.929 -15.379  0.00  0.00    -0.271 OA
HETATM    4  H           1     -26.794  -5.141 -16.819  0.00  0.00     0.163 HD
ENDROOT
BRANCH   1   5
HETATM    5  C           1     -25.917  -7.047 -17.257  0.00  0.00     0.191 C 
BRANCH   5   6
HETATM    6  C           1     -25.101  -6.416 -18.376  0.00  0.00     0.094 C 
BRANCH   6   7
HETATM    7  C           1     -25.286  -7.202 -19.636  0.00  0.00     0.028 A 
HETATM    8  N           1     -26.501  -7.508 -20.193  0.00  0.00    -0.354 N 
HETATM    9  C           1     -26.223  -8.200 -21.273  0.00  0.00     0.180 A 
ATOM     10  HN          1     -27.425  -7.252 -19.842  1.00  0.00     0.166 HD
HETATM   11  N           1     -24.875  -8.353 -21.436  0.00  0.00    -0.360 N 
HETATM   12  H           1     -24.398  -8.865 -22.219  0.00  0.00     0.166 HD
HETATM   13  C           1     -24.261  -7.719 -20.393  0.00  0.00     0.114 A 
ENDBRANCH   6   7
ENDBRANCH   5   6
BRANCH   5  14
HETATM   14  C           1     -25.021  -7.331 -16.077  0.00  0.00     0.197 C 
HETATM   15  O           1     -25.107  -6.633 -15.044  0.00  0.00    -0.646 OA
HETATM   16  O           1     -24.192  -8.266 -16.133  0.00  0.00    -0.646 OA
ENDBRANCH   5  14
ENDBRANCH   1   5
BRANCH   2  17
HETATM   17  C           1     -29.266  -6.781 -17.586  0.00  0.00     0.278 C 
BRANCH  17  18
HETATM   18  N           1     -29.303  -8.208 -18.048  0.00  0.00    -0.066 N 
HETATM   19  H           1     -29.432  -8.236 -19.085  0.00  0.00     0.275 HD
HETATM   20  H           1     -28.405  -8.678 -17.796  0.00  0.00     0.275 HD
HETATM   21  H           1     -30.099  -8.703 -17.586  0.00  0.00     0.275 HD
ENDBRANCH  17  18
BRANCH  17  22
HETATM   22  C           1     -30.624  -6.399 -17.012  0.00  0.00     0.017 C 
HETATM   23  C           1     -31.715  -7.194 -17.717  0.00  0.00     0.012 C 
HETATM   24  C           1     -30.865  -4.910 -17.226  0.00  0.00     0.012 C 
ENDBRANCH  17  22
ENDBRANCH   2  17
TORSDOF 7
ENDMDL
MODEL 8
REMARK VINA RESULT:      -5.8     13.664     16.801
REMARK  7 active torsions:
REMARK  status: ('A' for Active; 'I' for Inactive)
REMARK    1  A    between atoms: N_4  and  C_14 
REMARK    2  A    between atoms: N_5  and  C_12 
REMARK       I    between atoms: N_5  and  C_6 
REMARK    3  A    between atoms: C_6  and  C_14 
REMARK    4  A    between atoms: C_9  and  C_12 
REMARK    5  A    between atoms: C_9  and  C_16 
REMARK    6  A    between atoms: C_12  and  C_23 
REMARK    7  A    between atoms: C_14  and  C_17 
ROOT
HETATM    1  N           1     -20.697  -6.257  -6.893  0.00  0.00    -0.344 N 
HETATM    2  C           1     -21.198  -5.011  -7.159  0.00  0.00     0.249 C 
HETATM    3  O           1     -20.846  -4.065  -6.494  0.00  0.00    -0.271 OA
HETATM    4  H           1     -19.852  -6.572  -7.352  0.00  0.00     0.163 HD
ENDROOT
BRANCH   1   5
HETATM    5  C           1     -21.379  -7.127  -5.954  0.00  0.00     0.191 C 
BRANCH   5   6
HETATM    6  C           1     -20.359  -8.000  -5.237  0.00  0.00     0.094 C 
BRANCH   6   7
HETATM    7  C           1     -20.913  -9.380  -5.065  0.00  0.00     0.028 A 
HETATM    8  N           1     -20.802 -10.385  -5.990  0.00  0.00    -0.354 N 
HETATM    9  C           1     -21.416 -11.416  -5.456  0.00  0.00     0.180 A 
ATOM     10  HN          1     -20.341 -10.341  -6.900  1.00  0.00     0.166 HD
HETATM   11  N           1     -21.919 -11.115  -4.223  0.00  0.00    -0.360 N 
HETATM   12  H           1     -22.450 -11.766  -3.593  0.00  0.00     0.166 HD
HETATM   13  C           1     -21.604  -9.811  -3.958  0.00  0.00     0.114 A 
ENDBRANCH   6   7
ENDBRANCH   5   6
BRANCH   5  14
HETATM   14  C           1     -22.125  -6.289  -4.944  0.00  0.00     0.197 C 
HETATM   15  O           1     -23.330  -6.013  -5.128  0.00  0.00    -0.646 OA
HETATM   16  O           1     -21.536  -5.871  -3.924  0.00  0.00    -0.646 OA
ENDBRANCH   5  14
ENDBRANCH   1   5
BRANCH   2  17
HETATM   17  C           1     -22.188  -4.819  -8.281  0.00  0.00     0.278 C 
BRANCH  17  18
HETATM   18  N           1     -23.459  -4.241  -7.732  0.00  0.00    -0.066 N 
HETATM   19  H           1     -23.892  -3.612  -8.445  0.00  0.00     0.275 HD
HETATM   20  H           1     -24.122  -5.015  -7.502  0.00  0.00     0.275 HD
HETATM   21  H           1     -23.247  -3.693  -6.868  0.00  0.00     0.275 HD
ENDBRANCH  17  18
BRANCH  17  22
HETATM   22  C           1     -21.604  -3.868  -9.317  0.00  0.00     0.017 C 
HETATM   23  C           1     -22.651  -3.577 -10.385  0.00  0.00     0.012 C 
HETATM   24  C           1     -20.384  -4.510  -9.965  0.00  0.00     0.012 C 
ENDBRANCH  17  22
ENDBRANCH   2  17
TORSDOF 7
ENDMDL
MODEL 9
REMARK VINA RESULT:      -5.7      1.613      2.079
REMARK  7 active torsions:
REMARK  status: ('A' for Active; 'I' for Inactive)
REMARK    1  A    between atoms: N_4  and  C_14 
REMARK    2  A    between atoms: N_5  and  C_12 
REMARK       I    between atoms: N_5  and  C_6 
REMARK    3  A    between atoms: C_6  and  C_14 
REMARK    4  A    between atoms: C_9  and  C_12 
REMARK    5  A    between atoms: C_9  and  C_16 
REMARK    6  A    between atoms: C_12  and  C_23 
REMARK    7  A    between atoms: C_14  and  C_17 
ROOT
HETATM    1  N           1     -35.516  -2.308 -12.351  0.00  0.00    -0.344 N 
HETATM    2  C           1     -35.409  -3.555 -11.796  0.00  0.00     0.249 C 
HETATM    3  O           1     -36.072  -3.843 -10.827  0.00  0.00    -0.271 OA
HETATM    4  H           1     -36.196  -2.136 -13.080  0.00  0.00     0.163 HD
ENDROOT
BRANCH   1   5
HETATM    5  C           1     -34.654  -1.235 -11.895  0.00  0.00     0.191 C 
BRANCH   5   6
HETATM    6  C           1     -35.172   0.093 -12.427  0.00  0.00     0.094 C 
BRANCH   6   7
HETATM    7  C           1     -35.704  -0.096 -13.814  0.00  0.00     0.028 A 
HETATM    8  N           1     -34.935  -0.399 -14.908  0.00  0.00    -0.354 N 
HETATM    9  C           1     -35.779  -0.477 -15.912  0.00  0.00     0.180 A 
ATOM     10  HN          1     -33.925  -0.535 -14.937  1.00  0.00     0.166 HD
HETATM   11  N           1     -37.061  -0.236 -15.508  0.00  0.00    -0.360 N 
HETATM   12  H           1     -37.916  -0.239 -16.118  0.00  0.00     0.166 HD
HETATM   13  C           1     -37.029   0.010 -14.164  0.00  0.00     0.114 A 
ENDBRANCH   6   7
ENDBRANCH   5   6
BRANCH   5  14
HETATM   14  C           1     -34.645  -1.205 -10.386  0.00  0.00     0.197 C 
HETATM   15  O           1     -33.651  -1.629  -9.758  0.00  0.00    -0.646 OA
HETATM   16  O           1     -35.632  -0.757  -9.765  0.00  0.00    -0.646 OA
ENDBRANCH   5  14
ENDBRANCH   1   5
BRANCH   2  17
HETATM   17  C           1     -34.465  -4.569 -12.392  0.00  0.00     0.278 C 
BRANCH  17  18
HETATM   18  N           1     -33.884  -4.023 -13.663  0.00  0.00    -0.066 N 
HETATM   19  H           1     -32.865  -3.832 -13.526  0.00  0.00     0.275 HD
HETATM   20  H           1     -34.007  -4.721 -14.430  0.00  0.00     0.275 HD
HETATM   21  H           1     -34.372  -3.134 -13.915  0.00  0.00     0.275 HD
ENDBRANCH  17  18
BRANCH  17  22
HETATM   22  C           1     -33.343  -4.861 -11.406  0.00  0.00     0.017 C 
HETATM   23  C           1     -32.000  -4.742 -12.114  0.00  0.00     0.012 C 
HETATM   24  C           1     -33.503  -6.274 -10.858  0.00  0.00     0.012 C 
ENDBRANCH  17  22
ENDBRANCH   2  17
TORSDOF 7
ENDMDL
