MODEL 1
REMARK VINA RESULT:      -6.2      0.000      0.000
REMARK  8 active torsions:
REMARK  status: ('A' for Active; 'I' for Inactive)
REMARK    1  A    between atoms: C_1  and  C_3 
REMARK    2  A    between atoms: C_1  and  C_15 
REMARK    3  A    between atoms: C_1  and  N_7 
REMARK    4  A    between atoms: C_2  and  C_14 
REMARK    5  A    between atoms: C_2  and  C_16 
REMARK    6  A    between atoms: C_2  and  N_4 
REMARK       I    between atoms: C_3  and  N_4 
REMARK    7  A    between atoms: C_6  and  C_14 
REMARK    8  A    between atoms: C_15  and  O_20 
ROOT
HETATM    1  C           1     -23.664  -3.150 -13.076  0.00  0.00     0.251 C 
HETATM    2  N           1     -23.196  -3.214 -11.791  0.00  0.00    -0.345 N 
HETATM    3  H           1     -22.477  -2.571 -11.482  0.00  0.00     0.163 HD
HETATM    4  O           1     -24.522  -3.916 -13.445  0.00  0.00    -0.271 OA
ENDROOT
BRANCH   1   5
HETATM    5  C           1     -23.107  -2.123 -14.032  0.00  0.00     0.297 C 
BRANCH   5   6
HETATM    6  C           1     -24.247  -1.291 -14.604  0.00  0.00     0.206 C 
BRANCH   6   7
HETATM    7  O           1     -23.728  -0.313 -15.463  0.00  0.00    -0.398 OA
HETATM    8  H           1     -24.417  -0.082 -16.063  0.00  0.00     0.209 HD
ENDBRANCH   6   7
ENDBRANCH   5   6
BRANCH   5   9
HETATM    9  N           1     -22.389  -2.820 -15.149  0.00  0.00    -0.064 N 
HETATM   10  H           1     -21.619  -3.408 -14.756  0.00  0.00     0.275 HD
HETATM   11  H           1     -23.061  -3.429 -15.668  0.00  0.00     0.275 HD
HETATM   12  H           1     -21.986  -2.110 -15.801  0.00  0.00     0.275 HD
ENDBRANCH   5   9
ENDBRANCH   1   5
BRANCH   2  13
HETATM   13  C           1     -23.731  -4.199 -10.872  0.00  0.00     0.185 C 
BRANCH  13  14
HETATM   14  C           1     -22.585  -4.900 -10.156  0.00  0.00     0.040 C 
BRANCH  14  15
HETATM   15  C           1     -21.388  -3.964 -10.073  0.00  0.00    -0.020 C 
HETATM   16  C           1     -20.311  -4.431 -11.044  0.00  0.00     0.009 C 
HETATM   17  C           1     -20.833  -3.974  -8.655  0.00  0.00     0.009 C 
ENDBRANCH  14  15
ENDBRANCH  13  14
BRANCH  13  18
HETATM   18  C           1     -24.615  -3.514  -9.859  0.00  0.00     0.196 C 
HETATM   19  O           1     -25.764  -3.141 -10.182  0.00  0.00    -0.646 OA
HETATM   20  O           1     -24.199  -3.320  -8.697  0.00  0.00    -0.646 OA
ENDBRANCH  13  18
ENDBRANCH   2  13
TORSDOF 8
ENDMDL
MODEL 2
REMARK VINA RESULT:      -6.2      2.218      2.986
REMARK  8 active torsions:
REMARK  status: ('A' for Active; 'I' for Inactive)
REMARK    1  A    between atoms: C_1  and  C_3 
REMARK    2  A    between atoms: C_1  and  C_15 
REMARK    3  A    between atoms: C_1  and  N_7 
REMARK    4  A    between atoms: C_2  and  C_14 
REMARK    5  A    between atoms: C_2  and  C_16 
REMARK    6  A    between atoms: C_2  and  N_4 
REMARK       I    between atoms: C_3  and  N_4 
REMARK    7  A    between atoms: C_6  and  C_14 
REMARK    8  A    between atoms: C_15  and  O_20 
ROOT
HETATM    1  C           1     -22.417  -3.758 -10.926  0.00  0.00     0.251 C 
HETATM    2  N           1     -22.312  -3.211  -9.675  0.00  0.00    -0.345 N 
HETATM    3  H           1     -22.412  -2.211  -9.551  0.00  0.00     0.163 HD
HETATM    4  O           1     -22.299  -4.951 -11.075  0.00  0.00    -0.271 OA
ENDROOT
BRANCH   1   5
HETATM    5  C           1     -22.680  -2.871 -12.118  0.00  0.00     0.297 C 
BRANCH   5   6
HETATM    6  C           1     -24.175  -2.844 -12.411  0.00  0.00     0.206 C 
BRANCH   6   7
HETATM    7  O           1     -24.885  -3.174 -11.249  0.00  0.00    -0.398 OA
HETATM    8  H           1     -24.878  -2.409 -10.697  0.00  0.00     0.209 HD
ENDBRANCH   6   7
ENDBRANCH   5   6
BRANCH   5   9
HETATM    9  N           1     -21.948  -3.409 -13.312  0.00  0.00    -0.064 N 
HETATM   10  H           1     -21.852  -4.446 -13.224  0.00  0.00     0.275 HD
HETATM   11  H           1     -22.484  -3.182 -14.179  0.00  0.00     0.275 HD
HETATM   12  H           1     -20.999  -2.975 -13.364  0.00  0.00     0.275 HD
ENDBRANCH   5   9
ENDBRANCH   1   5
BRANCH   2  13
HETATM   13  C           1     -22.060  -4.063  -8.530  0.00  0.00     0.185 C 
BRANCH  13  14
HETATM   14  C           1     -21.085  -3.371  -7.587  0.00  0.00     0.040 C 
BRANCH  14  15
HETATM   15  C           1     -19.912  -4.298  -7.298  0.00  0.00    -0.020 C 
HETATM   16  C           1     -19.994  -5.517  -8.207  0.00  0.00     0.009 C 
HETATM   17  C           1     -19.966  -4.744  -5.843  0.00  0.00     0.009 C 
ENDBRANCH  14  15
ENDBRANCH  13  14
BRANCH  13  18
HETATM   18  C           1     -23.357  -4.329  -7.806  0.00  0.00     0.196 C 
HETATM   19  O           1     -24.448  -4.142  -8.388  0.00  0.00    -0.646 OA
HETATM   20  O           1     -23.341  -4.736  -6.625  0.00  0.00    -0.646 OA
ENDBRANCH  13  18
ENDBRANCH   2  13
TORSDOF 8
ENDMDL
MODEL 3
REMARK VINA RESULT:      -6.1      3.275      5.986
REMARK  8 active torsions:
REMARK  status: ('A' for Active; 'I' for Inactive)
REMARK    1  A    between atoms: C_1  and  C_3 
REMARK    2  A    between atoms: C_1  and  C_15 
REMARK    3  A    between atoms: C_1  and  N_7 
REMARK    4  A    between atoms: C_2  and  C_14 
REMARK    5  A    between atoms: C_2  and  C_16 
REMARK    6  A    between atoms: C_2  and  N_4 
REMARK       I    between atoms: C_3  and  N_4 
REMARK    7  A    between atoms: C_6  and  C_14 
REMARK    8  A    between atoms: C_15  and  O_20 
ROOT
HETATM    1  C           1     -21.630  -4.345  -7.157  0.00  0.00     0.251 C 
HETATM    2  N           1     -22.754  -4.556  -7.910  0.00  0.00    -0.345 N 
HETATM    3  H           1     -23.432  -5.252  -7.624  0.00  0.00     0.163 HD
HETATM    4  O           1     -20.822  -3.515  -7.498  0.00  0.00    -0.271 OA
ENDROOT
BRANCH   1   5
HETATM    5  C           1     -21.400  -5.153  -5.903  0.00  0.00     0.297 C 
BRANCH   5   6
HETATM    6  C           1     -20.310  -6.186  -6.157  0.00  0.00     0.206 C 
BRANCH   6   7
HETATM    7  O           1     -20.083  -6.298  -7.536  0.00  0.00    -0.398 OA
HETATM    8  H           1     -19.155  -6.417  -7.652  0.00  0.00     0.209 HD
ENDBRANCH   6   7
ENDBRANCH   5   6
BRANCH   5   9
HETATM    9  N           1     -22.670  -5.852  -5.520  0.00  0.00    -0.064 N 
HETATM   10  H           1     -22.684  -6.807  -5.945  0.00  0.00     0.275 HD
HETATM   11  H           1     -22.720  -5.935  -4.479  0.00  0.00     0.275 HD
HETATM   12  H           1     -23.489  -5.304  -5.867  0.00  0.00     0.275 HD
ENDBRANCH   5   9
ENDBRANCH   1   5
BRANCH   2  13
HETATM   13  C           1     -22.976  -3.781  -9.115  0.00  0.00     0.185 C 
BRANCH  13  14
HETATM   14  C           1     -22.184  -4.390 -10.264  0.00  0.00     0.040 C 
BRANCH  14  15
HETATM   15  C           1     -21.664  -3.280 -11.168  0.00  0.00    -0.020 C 
HETATM   16  C           1     -22.403  -3.323 -12.499  0.00  0.00     0.009 C 
HETATM   17  C           1     -20.173  -3.477 -11.407  0.00  0.00     0.009 C 
ENDBRANCH  14  15
ENDBRANCH  13  14
BRANCH  13  18
HETATM   18  C           1     -24.446  -3.790  -9.455  0.00  0.00     0.196 C 
HETATM   19  O           1     -25.107  -2.730  -9.407  0.00  0.00    -0.646 OA
HETATM   20  O           1     -25.003  -4.859  -9.786  0.00  0.00    -0.646 OA
ENDBRANCH  13  18
ENDBRANCH   2  13
TORSDOF 8
ENDMDL
MODEL 4
REMARK VINA RESULT:      -5.6      2.367      3.213
REMARK  8 active torsions:
REMARK  status: ('A' for Active; 'I' for Inactive)
REMARK    1  A    between atoms: C_1  and  C_3 
REMARK    2  A    between atoms: C_1  and  C_15 
REMARK    3  A    between atoms: C_1  and  N_7 
REMARK    4  A    between atoms: C_2  and  C_14 
REMARK    5  A    between atoms: C_2  and  C_16 
REMARK    6  A    between atoms: C_2  and  N_4 
REMARK       I    between atoms: C_3  and  N_4 
REMARK    7  A    between atoms: C_6  and  C_14 
REMARK    8  A    between atoms: C_15  and  O_20 
ROOT
HETATM    1  C           1     -22.615  -2.975 -12.710  0.00  0.00     0.251 C 
HETATM    2  N           1     -22.052  -4.033 -12.047  0.00  0.00    -0.345 N 
HETATM    3  H           1     -21.865  -4.897 -12.540  0.00  0.00     0.163 HD
HETATM    4  O           1     -22.838  -1.944 -12.122  0.00  0.00    -0.271 OA
ENDROOT
BRANCH   1   5
HETATM    5  C           1     -22.958  -3.099 -14.174  0.00  0.00     0.297 C 
BRANCH   5   6
HETATM    6  C           1     -23.452  -1.755 -14.694  0.00  0.00     0.206 C 
BRANCH   6   7
HETATM    7  O           1     -24.722  -1.487 -14.167  0.00  0.00    -0.398 OA
HETATM    8  H           1     -25.348  -1.682 -14.845  0.00  0.00     0.209 HD
ENDBRANCH   6   7
ENDBRANCH   5   6
BRANCH   5   9
HETATM    9  N           1     -24.034  -4.128 -14.350  0.00  0.00    -0.064 N 
HETATM   10  H           1     -24.964  -3.654 -14.408  0.00  0.00     0.275 HD
HETATM   11  H           1     -23.862  -4.665 -15.230  0.00  0.00     0.275 HD
HETATM   12  H           1     -24.028  -4.782 -13.535  0.00  0.00     0.275 HD
ENDBRANCH   5   9
ENDBRANCH   1   5
BRANCH   2  13
HETATM   13  C           1     -21.722  -3.915 -10.640  0.00  0.00     0.185 C 
BRANCH  13  14
HETATM   14  C           1     -22.737  -4.693  -9.813  0.00  0.00     0.040 C 
BRANCH  14  15
HETATM   15  C           1     -23.443  -3.746  -8.852  0.00  0.00    -0.020 C 
HETATM   16  C           1     -23.554  -4.404  -7.483  0.00  0.00     0.009 C 
HETATM   17  C           1     -24.837  -3.434  -9.380  0.00  0.00     0.009 C 
ENDBRANCH  14  15
ENDBRANCH  13  14
BRANCH  13  18
HETATM   18  C           1     -20.342  -4.474 -10.399  0.00  0.00     0.196 C 
HETATM   19  O           1     -19.509  -4.507 -11.331  0.00  0.00    -0.646 OA
HETATM   20  O           1     -20.031  -4.904  -9.268  0.00  0.00    -0.646 OA
ENDBRANCH  13  18
ENDBRANCH   2  13
TORSDOF 8
ENDMDL
MODEL 5
REMARK VINA RESULT:      -5.5      3.191      5.053
REMARK  8 active torsions:
REMARK  status: ('A' for Active; 'I' for Inactive)
REMARK    1  A    between atoms: C_1  and  C_3 
REMARK    2  A    between atoms: C_1  and  C_15 
REMARK    3  A    between atoms: C_1  and  N_7 
REMARK    4  A    between atoms: C_2  and  C_14 
REMARK    5  A    between atoms: C_2  and  C_16 
REMARK    6  A    between atoms: C_2  and  N_4 
REMARK       I    between atoms: C_3  and  N_4 
REMARK    7  A    between atoms: C_6  and  C_14 
REMARK    8  A    between atoms: C_15  and  O_20 
ROOT
HETATM    1  C           1     -23.205  -4.179  -9.033  0.00  0.00     0.251 C 
HETATM    2  N           1     -22.203  -5.095  -8.857  0.00  0.00    -0.345 N 
HETATM    3  H           1     -22.151  -5.910  -9.456  0.00  0.00     0.163 HD
HETATM    4  O           1     -23.266  -3.206  -8.319  0.00  0.00    -0.271 OA
ENDROOT
BRANCH   1   5
HETATM    5  C           1     -24.233  -4.384 -10.119  0.00  0.00     0.297 C 
BRANCH   5   6
HETATM    6  C           1     -23.714  -3.801 -11.426  0.00  0.00     0.206 C 
BRANCH   6   7
HETATM    7  O           1     -22.437  -3.260 -11.223  0.00  0.00    -0.398 OA
HETATM    8  H           1     -22.372  -2.498 -11.775  0.00  0.00     0.209 HD
ENDBRANCH   6   7
ENDBRANCH   5   6
BRANCH   5   9
HETATM    9  N           1     -25.508  -3.693  -9.736  0.00  0.00    -0.064 N 
HETATM   10  H           1     -25.352  -3.128  -8.870  0.00  0.00     0.275 HD
HETATM   11  H           1     -25.808  -3.062 -10.513  0.00  0.00     0.275 HD
HETATM   12  H           1     -26.251  -4.405  -9.557  0.00  0.00     0.275 HD
ENDBRANCH   5   9
ENDBRANCH   1   5
BRANCH   2  13
HETATM   13  C           1     -21.214  -4.898  -7.815  0.00  0.00     0.185 C 
BRANCH  13  14
HETATM   14  C           1     -20.911  -6.231  -7.144  0.00  0.00     0.040 C 
BRANCH  14  15
HETATM   15  C           1     -21.511  -6.245  -5.745  0.00  0.00    -0.020 C 
HETATM   16  C           1     -20.682  -5.354  -4.828  0.00  0.00     0.009 C 
HETATM   17  C           1     -21.509  -7.669  -5.207  0.00  0.00     0.009 C 
ENDBRANCH  14  15
ENDBRANCH  13  14
BRANCH  13  18
HETATM   18  C           1     -19.951  -4.339  -8.420  0.00  0.00     0.196 C 
HETATM   19  O           1     -18.906  -4.272  -7.736  0.00  0.00    -0.646 OA
HETATM   20  O           1     -19.947  -3.943  -9.605  0.00  0.00    -0.646 OA
ENDBRANCH  13  18
ENDBRANCH   2  13
TORSDOF 8
ENDMDL
MODEL 6
REMARK VINA RESULT:      -5.4     15.336     17.173
REMARK  8 active torsions:
REMARK  status: ('A' for Active; 'I' for Inactive)
REMARK    1  A    between atoms: C_1  and  C_3 
REMARK    2  A    between atoms: C_1  and  C_15 
REMARK    3  A    between atoms: C_1  and  N_7 
REMARK    4  A    between atoms: C_2  and  C_14 
REMARK    5  A    between atoms: C_2  and  C_16 
REMARK    6  A    between atoms: C_2  and  N_4 
REMARK       I    between atoms: C_3  and  N_4 
REMARK    7  A    between atoms: C_6  and  C_14 
REMARK    8  A    between atoms: C_15  and  O_20 
ROOT
HETATM    1  C           1     -12.163   7.917 -20.655  0.00  0.00     0.251 C 
HETATM    2  N           1     -12.576   6.839 -19.919  0.00  0.00    -0.345 N 
HETATM    3  H           1     -12.637   6.909 -18.911  0.00  0.00     0.163 HD
HETATM    4  O           1     -12.091   7.835 -21.858  0.00  0.00    -0.271 OA
ENDROOT
BRANCH   1   5
HETATM    5  C           1     -11.796   9.208 -19.964  0.00  0.00     0.297 C 
BRANCH   5   6
HETATM    6  C           1     -10.354   9.131 -19.478  0.00  0.00     0.206 C 
BRANCH   6   7
HETATM    7  O           1     -10.287   8.320 -18.338  0.00  0.00    -0.398 OA
HETATM    8  H           1     -11.003   8.573 -17.778  0.00  0.00     0.209 HD
ENDBRANCH   6   7
ENDBRANCH   5   6
BRANCH   5   9
HETATM    9  N           1     -12.707   9.421 -18.791  0.00  0.00    -0.064 N 
HETATM   10  H           1     -13.561   8.830 -18.901  0.00  0.00     0.275 HD
HETATM   11  H           1     -12.209   9.153 -17.912  0.00  0.00     0.275 HD
HETATM   12  H           1     -12.984  10.427 -18.743  0.00  0.00     0.275 HD
ENDBRANCH   5   9
ENDBRANCH   1   5
BRANCH   2  13
HETATM   13  C           1     -12.929   5.600 -20.583  0.00  0.00     0.185 C 
BRANCH  13  14
HETATM   14  C           1     -12.256   4.434 -19.872  0.00  0.00     0.040 C 
BRANCH  14  15
HETATM   15  C           1     -11.071   3.951 -20.697  0.00  0.00    -0.020 C 
HETATM   16  C           1     -11.246   4.394 -22.144  0.00  0.00     0.009 C 
HETATM   17  C           1     -10.997   2.431 -20.637  0.00  0.00     0.009 C 
ENDBRANCH  14  15
ENDBRANCH  13  14
BRANCH  13  18
HETATM   18  C           1     -14.426   5.417 -20.544  0.00  0.00     0.196 C 
HETATM   19  O           1     -15.082   5.398 -21.608  0.00  0.00    -0.646 OA
HETATM   20  O           1     -15.011   5.285 -19.447  0.00  0.00    -0.646 OA
ENDBRANCH  13  18
ENDBRANCH   2  13
TORSDOF 8
ENDMDL
MODEL 7
REMARK VINA RESULT:      -5.4      4.425      6.414
REMARK  8 active torsions:
REMARK  status: ('A' for Active; 'I' for Inactive)
REMARK    1  A    between atoms: C_1  and  C_3 
REMARK    2  A    between atoms: C_1  and  C_15 
REMARK    3  A    between atoms: C_1  and  N_7 
REMARK    4  A    between atoms: C_2  and  C_14 
REMARK    5  A    between atoms: C_2  and  C_16 
REMARK    6  A    between atoms: C_2  and  N_4 
REMARK       I    between atoms: C_3  and  N_4 
REMARK    7  A    between atoms: C_6  and  C_14 
REMARK    8  A    between atoms: C_15  and  O_20 
ROOT
HETATM    1  C           1     -22.506  -4.291  -7.789  0.00  0.00     0.251 C 
HETATM    2  N           1     -22.382  -5.446  -7.063  0.00  0.00    -0.345 N 
HETATM    3  H           1     -22.856  -6.287  -7.367  0.00  0.00     0.163 HD
HETATM    4  O           1     -21.940  -3.287  -7.427  0.00  0.00    -0.271 OA
ENDROOT
BRANCH   1   5
HETATM    5  C           1     -23.350  -4.273  -9.040  0.00  0.00     0.297 C 
BRANCH   5   6
HETATM    6  C           1     -22.471  -3.946 -10.240  0.00  0.00     0.206 C 
BRANCH   6   7
HETATM    7  O           1     -21.172  -4.422 -10.014  0.00  0.00    -0.398 OA
HETATM    8  H           1     -20.597  -3.927 -10.573  0.00  0.00     0.209 HD
ENDBRANCH   6   7
ENDBRANCH   5   6
BRANCH   5   9
HETATM    9  N           1     -24.419  -3.229  -8.906  0.00  0.00    -0.064 N 
HETATM   10  H           1     -23.995  -2.280  -9.015  0.00  0.00     0.275 HD
HETATM   11  H           1     -25.141  -3.374  -9.647  0.00  0.00     0.275 HD
HETATM   12  H           1     -24.864  -3.305  -7.964  0.00  0.00     0.275 HD
ENDBRANCH   5   9
ENDBRANCH   1   5
BRANCH   2  13
HETATM   13  C           1     -21.571  -5.464  -5.862  0.00  0.00     0.185 C 
BRANCH  13  14
HETATM   14  C           1     -22.045  -6.584  -4.946  0.00  0.00     0.040 C 
BRANCH  14  15
HETATM   15  C           1     -21.209  -6.589  -3.674  0.00  0.00    -0.020 C 
HETATM   16  C           1     -20.679  -7.995  -3.422  0.00  0.00     0.009 C 
HETATM   17  C           1     -22.072  -6.153  -2.497  0.00  0.00     0.009 C 
ENDBRANCH  14  15
ENDBRANCH  13  14
BRANCH  13  18
HETATM   18  C           1     -20.127  -5.695  -6.234  0.00  0.00     0.196 C 
HETATM   19  O           1     -19.281  -4.793  -6.047  0.00  0.00    -0.646 OA
HETATM   20  O           1     -19.776  -6.787  -6.729  0.00  0.00    -0.646 OA
ENDBRANCH  13  18
ENDBRANCH   2  13
TORSDOF 8
ENDMDL
MODEL 8
REMARK VINA RESULT:      -5.4      6.029      8.345
REMARK  8 active torsions:
REMARK  status: ('A' for Active; 'I' for Inactive)
REMARK    1  A    between atoms: C_1  and  C_3 
REMARK    2  A    between atoms: C_1  and  C_15 
REMARK    3  A    between atoms: C_1  and  N_7 
REMARK    4  A    between atoms: C_2  and  C_14 
REMARK    5  A    between atoms: C_2  and  C_16 
REMARK    6  A    between atoms: C_2  and  N_4 
REMARK       I    between atoms: C_3  and  N_4 
REMARK    7  A    between atoms: C_6  and  C_14 
REMARK    8  A    between atoms: C_15  and  O_20 
ROOT
HETATM    1  C           1     -20.931  -5.596  -6.372  0.00  0.00     0.251 C 
HETATM    2  N           1     -20.853  -6.946  -6.156  0.00  0.00    -0.345 N 
HETATM    3  H           1     -21.142  -7.592  -6.880  0.00  0.00     0.163 HD
HETATM    4  O           1     -20.586  -4.825  -5.509  0.00  0.00    -0.271 OA
ENDROOT
BRANCH   1   5
HETATM    5  C           1     -21.451  -5.072  -7.689  0.00  0.00     0.297 C 
BRANCH   5   6
HETATM    6  C           1     -20.310  -4.424  -8.462  0.00  0.00     0.206 C 
BRANCH   6   7
HETATM    7  O           1     -19.107  -4.612  -7.768  0.00  0.00    -0.398 OA
HETATM    8  H           1     -18.520  -3.929  -8.048  0.00  0.00     0.209 HD
ENDBRANCH   6   7
ENDBRANCH   5   6
BRANCH   5   9
HETATM    9  N           1     -22.522  -4.054  -7.433  0.00  0.00    -0.064 N 
HETATM   10  H           1     -22.111  -3.094  -7.488  0.00  0.00     0.275 HD
HETATM   11  H           1     -23.274  -4.152  -8.152  0.00  0.00     0.275 HD
HETATM   12  H           1     -22.927  -4.204  -6.482  0.00  0.00     0.275 HD
ENDBRANCH   5   9
ENDBRANCH   1   5
BRANCH   2  13
HETATM   13  C           1     -20.353  -7.450  -4.891  0.00  0.00     0.185 C 
BRANCH  13  14
HETATM   14  C           1     -21.503  -7.565  -3.900  0.00  0.00     0.040 C 
BRANCH  14  15
HETATM   15  C           1     -21.080  -6.980  -2.560  0.00  0.00    -0.020 C 
HETATM   16  C           1     -20.683  -8.108  -1.617  0.00  0.00     0.009 C 
HETATM   17  C           1     -22.242  -6.200  -1.957  0.00  0.00     0.009 C 
ENDBRANCH  14  15
ENDBRANCH  13  14
BRANCH  13  18
HETATM   18  C           1     -19.732  -8.808  -5.102  0.00  0.00     0.196 C 
HETATM   19  O           1     -18.613  -9.068  -4.608  0.00  0.00    -0.646 OA
HETATM   20  O           1     -20.336  -9.675  -5.770  0.00  0.00    -0.646 OA
ENDBRANCH  13  18
ENDBRANCH   2  13
TORSDOF 8
ENDMDL
MODEL 9
REMARK VINA RESULT:      -5.3      5.330      8.178
REMARK  8 active torsions:
REMARK  status: ('A' for Active; 'I' for Inactive)
REMARK    1  A    between atoms: C_1  and  C_3 
REMARK    2  A    between atoms: C_1  and  C_15 
REMARK    3  A    between atoms: C_1  and  N_7 
REMARK    4  A    between atoms: C_2  and  C_14 
REMARK    5  A    between atoms: C_2  and  C_16 
REMARK    6  A    between atoms: C_2  and  N_4 
REMARK       I    between atoms: C_3  and  N_4 
REMARK    7  A    between atoms: C_6  and  C_14 
REMARK    8  A    between atoms: C_15  and  O_20 
ROOT
HETATM    1  C           1     -21.568  -6.796  -5.563  0.00  0.00     0.251 C 
HETATM    2  N           1     -21.657  -5.487  -5.956  0.00  0.00    -0.345 N 
HETATM    3  H           1     -22.042  -4.794  -5.325  0.00  0.00     0.163 HD
HETATM    4  O           1     -21.108  -7.622  -6.314  0.00  0.00    -0.271 OA
ENDROOT
BRANCH   1   5
HETATM    5  C           1     -22.048  -7.206  -4.192  0.00  0.00     0.297 C 
BRANCH   5   6
HETATM    6  C           1     -21.480  -6.252  -3.149  0.00  0.00     0.206 C 
BRANCH   6   7
HETATM    7  O           1     -22.502  -5.843  -2.282  0.00  0.00    -0.398 OA
HETATM    8  H           1     -22.314  -6.222  -1.439  0.00  0.00     0.209 HD
ENDBRANCH   6   7
ENDBRANCH   5   6
BRANCH   5   9
HETATM    9  N           1     -21.583  -8.601  -3.898  0.00  0.00    -0.064 N 
HETATM   10  H           1     -20.803  -8.853  -4.546  0.00  0.00     0.275 HD
HETATM   11  H           1     -21.244  -8.653  -2.910  0.00  0.00     0.275 HD
HETATM   12  H           1     -22.375  -9.268  -4.031  0.00  0.00     0.275 HD
ENDBRANCH   5   9
ENDBRANCH   1   5
BRANCH   2  13
HETATM   13  C           1     -21.195  -5.092  -7.272  0.00  0.00     0.185 C 
BRANCH  13  14
HETATM   14  C           1     -22.089  -3.984  -7.812  0.00  0.00     0.040 C 
BRANCH  14  15
HETATM   15  C           1     -22.715  -4.430  -9.126  0.00  0.00    -0.020 C 
HETATM   16  C           1     -21.844  -3.967 -10.286  0.00  0.00     0.009 C 
HETATM   17  C           1     -24.104  -3.819  -9.259  0.00  0.00     0.009 C 
ENDBRANCH  14  15
ENDBRANCH  13  14
BRANCH  13  18
HETATM   18  C           1     -19.775  -4.593  -7.179  0.00  0.00     0.196 C 
HETATM   19  O           1     -19.175  -4.216  -8.209  0.00  0.00    -0.646 OA
HETATM   20  O           1     -19.198  -4.555  -6.071  0.00  0.00    -0.646 OA
ENDBRANCH  13  18
ENDBRANCH   2  13
TORSDOF 8
ENDMDL
