MODEL 1
REMARK VINA RESULT:      -7.5      0.000      0.000
REMARK  6 active torsions:
REMARK  status: ('A' for Active; 'I' for Inactive)
REMARK    1  A    between atoms: O_3  and  C_14 
REMARK    2  A    between atoms: C_5  and  C_18 
REMARK    3  A    between atoms: C_5  and  C_9 
REMARK    4  A    between atoms: C_5  and  N_22 
REMARK    5  A    between atoms: C_9  and  C_15 
REMARK       I    between atoms: C_18  and  N_19 
REMARK    6  A    between atoms: C_21  and  C_23 
ROOT
HETATM    1  C           1     -35.848  -0.473 -11.536  0.00  0.00     0.279 C 
ENDROOT
BRANCH   1   2
HETATM    2  C           1     -37.050  -0.630 -12.435  0.00  0.00     0.251 C 
HETATM    3  O           1     -38.074  -1.098 -11.999  0.00  0.00    -0.271 OA
HETATM    4  N           1     -36.978  -0.243 -13.747  0.00  0.00    -0.336 N 
HETATM    5  C           1     -38.060   0.270 -14.583  0.00  0.00     0.127 C 
HETATM    6  C           1     -35.803  -0.250 -14.614  0.00  0.00     0.188 C 
HETATM    7  C           1     -37.825  -0.394 -15.929  0.00  0.00     0.022 C 
HETATM    8  C           1     -36.341  -0.741 -15.947  0.00  0.00     0.038 C 
BRANCH   6   9
HETATM    9  C           1     -35.224   1.136 -14.746  0.00  0.00     0.196 C 
HETATM   10  O           1     -35.523   1.848 -15.730  0.00  0.00    -0.646 OA
HETATM   11  O           1     -34.444   1.573 -13.872  0.00  0.00    -0.646 OA
ENDBRANCH   6   9
ENDBRANCH   1   2
BRANCH   1  12
HETATM   12  C           1     -35.903  -1.518 -10.428  0.00  0.00     0.081 C 
BRANCH  12  13
HETATM   13  C           1     -34.999  -2.659 -10.773  0.00  0.00    -0.056 A 
HETATM   14  C           1     -33.667  -2.418 -11.110  0.00  0.00     0.010 A 
HETATM   15  C           1     -32.824  -3.481 -11.433  0.00  0.00     0.037 A 
HETATM   16  C           1     -33.314  -4.788 -11.417  0.00  0.00     0.065 A 
HETATM   17  C           1     -34.645  -5.029 -11.081  0.00  0.00     0.037 A 
HETATM   18  C           1     -35.488  -3.966 -10.759  0.00  0.00     0.010 A 
BRANCH  16  19
HETATM   19  O           1     -32.495  -5.821 -11.730  0.00  0.00    -0.361 OA
HETATM   20  H           1     -32.872  -6.630 -11.346  0.00  0.00     0.217 HD
ENDBRANCH  16  19
ENDBRANCH  12  13
ENDBRANCH   1  12
BRANCH   1  21
HETATM   21  N           1     -35.854   0.898 -10.929  0.00  0.00    -0.066 N 
HETATM   22  H           1     -35.780   0.820  -9.890  0.00  0.00     0.275 HD
HETATM   23  H           1     -36.743   1.387 -11.179  0.00  0.00     0.275 HD
HETATM   24  H           1     -35.042   1.444 -11.296  0.00  0.00     0.275 HD
ENDBRANCH   1  21
TORSDOF 6
ENDMDL
MODEL 2
REMARK VINA RESULT:      -6.8     13.455     17.239
REMARK  6 active torsions:
REMARK  status: ('A' for Active; 'I' for Inactive)
REMARK    1  A    between atoms: O_3  and  C_14 
REMARK    2  A    between atoms: C_5  and  C_18 
REMARK    3  A    between atoms: C_5  and  C_9 
REMARK    4  A    between atoms: C_5  and  N_22 
REMARK    5  A    between atoms: C_9  and  C_15 
REMARK       I    between atoms: C_18  and  N_19 
REMARK    6  A    between atoms: C_21  and  C_23 
ROOT
HETATM    1  C           1     -20.610  -5.315  -6.374  0.00  0.00     0.279 C 
ENDROOT
BRANCH   1   2
HETATM    2  C           1     -19.955  -6.671  -6.273  0.00  0.00     0.251 C 
HETATM    3  O           1     -19.105  -6.992  -7.069  0.00  0.00    -0.271 OA
HETATM    4  N           1     -20.326  -7.538  -5.281  0.00  0.00    -0.336 N 
HETATM    5  C           1     -19.496  -8.542  -4.622  0.00  0.00     0.127 C 
HETATM    6  C           1     -21.637  -7.659  -4.649  0.00  0.00     0.188 C 
HETATM    7  C           1     -20.420  -9.739  -4.477  0.00  0.00     0.022 C 
HETATM    8  C           1     -21.829  -9.159  -4.500  0.00  0.00     0.038 C 
BRANCH   6   9
HETATM    9  C           1     -21.649  -6.979  -3.302  0.00  0.00     0.196 C 
HETATM   10  O           1     -21.607  -5.732  -3.230  0.00  0.00    -0.646 OA
HETATM   11  O           1     -21.702  -7.664  -2.257  0.00  0.00    -0.646 OA
ENDBRANCH   6   9
ENDBRANCH   1   2
BRANCH   1  12
HETATM   12  C           1     -20.232  -4.664  -7.699  0.00  0.00     0.081 C 
BRANCH  12  13
HETATM   13  C           1     -21.474  -4.314  -8.456  0.00  0.00    -0.056 A 
HETATM   14  C           1     -22.708  -4.306  -7.807  0.00  0.00     0.010 A 
HETATM   15  C           1     -23.866  -3.980  -8.513  0.00  0.00     0.037 A 
HETATM   16  C           1     -23.790  -3.662  -9.869  0.00  0.00     0.065 A 
HETATM   17  C           1     -22.556  -3.672 -10.519  0.00  0.00     0.037 A 
HETATM   18  C           1     -21.397  -3.998  -9.813  0.00  0.00     0.010 A 
BRANCH  16  19
HETATM   19  O           1     -24.914  -3.346 -10.555  0.00  0.00    -0.361 OA
HETATM   20  H           1     -25.046  -4.019 -11.243  0.00  0.00     0.217 HD
ENDBRANCH  16  19
ENDBRANCH  12  13
ENDBRANCH   1  12
BRANCH   1  21
HETATM   21  N           1     -20.144  -4.450  -5.242  0.00  0.00    -0.066 N 
HETATM   22  H           1     -19.647  -5.038  -4.535  0.00  0.00     0.275 HD
HETATM   23  H           1     -20.967  -3.987  -4.793  0.00  0.00     0.275 HD
HETATM   24  H           1     -19.491  -3.719  -5.607  0.00  0.00     0.275 HD
ENDBRANCH   1  21
TORSDOF 6
ENDMDL
MODEL 3
REMARK VINA RESULT:      -6.7     16.061     18.349
REMARK  6 active torsions:
REMARK  status: ('A' for Active; 'I' for Inactive)
REMARK    1  A    between atoms: O_3  and  C_14 
REMARK    2  A    between atoms: C_5  and  C_18 
REMARK    3  A    between atoms: C_5  and  C_9 
REMARK    4  A    between atoms: C_5  and  N_22 
REMARK    5  A    between atoms: C_9  and  C_15 
REMARK       I    between atoms: C_18  and  N_19 
REMARK    6  A    between atoms: C_21  and  C_23 
ROOT
HETATM    1  C           1     -20.695  -8.767  -4.448  0.00  0.00     0.279 C 
ENDROOT
BRANCH   1   2
HETATM    2  C           1     -19.821  -8.079  -5.468  0.00  0.00     0.251 C 
HETATM    3  O           1     -18.840  -8.637  -5.898  0.00  0.00    -0.271 OA
HETATM    4  N           1     -20.140  -6.821  -5.905  0.00  0.00    -0.336 N 
HETATM    5  C           1     -19.872  -6.243  -7.219  0.00  0.00     0.127 C 
HETATM    6  C           1     -20.822  -5.767  -5.161  0.00  0.00     0.188 C 
HETATM    7  C           1     -19.452  -4.816  -6.909  0.00  0.00     0.022 C 
HETATM    8  C           1     -20.072  -4.505  -5.553  0.00  0.00     0.038 C 
BRANCH   6   9
HETATM    9  C           1     -22.273  -5.676  -5.565  0.00  0.00     0.196 C 
HETATM   10  O           1     -22.628  -4.863  -6.447  0.00  0.00    -0.646 OA
HETATM   11  O           1     -23.121  -6.414  -5.018  0.00  0.00    -0.646 OA
ENDBRANCH   6   9
ENDBRANCH   1   2
BRANCH   1  12
HETATM   12  C           1     -19.975  -8.809  -3.107  0.00  0.00     0.081 C 
BRANCH  12  13
HETATM   13  C           1     -20.951  -8.530  -2.007  0.00  0.00    -0.056 A 
HETATM   14  C           1     -21.317  -9.545  -1.124  0.00  0.00     0.010 A 
HETATM   15  C           1     -22.227  -9.285  -0.099  0.00  0.00     0.037 A 
HETATM   16  C           1     -22.770  -8.008   0.043  0.00  0.00     0.065 A 
HETATM   17  C           1     -22.405  -6.993  -0.840  0.00  0.00     0.037 A 
HETATM   18  C           1     -21.495  -7.253  -1.865  0.00  0.00     0.010 A 
BRANCH  16  19
HETATM   19  O           1     -23.654  -7.756   1.038  0.00  0.00    -0.361 OA
HETATM   20  H           1     -23.356  -8.229   1.832  0.00  0.00     0.217 HD
ENDBRANCH  16  19
ENDBRANCH  12  13
ENDBRANCH   1  12
BRANCH   1  21
HETATM   21  N           1     -20.987 -10.166  -4.902  0.00  0.00    -0.066 N 
HETATM   22  H           1     -21.290 -10.741  -4.085  0.00  0.00     0.275 HD
HETATM   23  H           1     -20.125 -10.584  -5.322  0.00  0.00     0.275 HD
HETATM   24  H           1     -21.748 -10.148  -5.618  0.00  0.00     0.275 HD
ENDBRANCH   1  21
TORSDOF 6
ENDMDL
MODEL 4
REMARK VINA RESULT:      -6.6     14.479     18.259
REMARK  6 active torsions:
REMARK  status: ('A' for Active; 'I' for Inactive)
REMARK    1  A    between atoms: O_3  and  C_14 
REMARK    2  A    between atoms: C_5  and  C_18 
REMARK    3  A    between atoms: C_5  and  C_9 
REMARK    4  A    between atoms: C_5  and  N_22 
REMARK    5  A    between atoms: C_9  and  C_15 
REMARK       I    between atoms: C_18  and  N_19 
REMARK    6  A    between atoms: C_21  and  C_23 
ROOT
HETATM    1  C           1     -20.376  -6.321  -5.649  0.00  0.00     0.279 C 
ENDROOT
BRANCH   1   2
HETATM    2  C           1     -20.913  -6.683  -4.286  0.00  0.00     0.251 C 
HETATM    3  O           1     -21.586  -5.891  -3.671  0.00  0.00    -0.271 OA
HETATM    4  N           1     -20.635  -7.910  -3.745  0.00  0.00    -0.336 N 
HETATM    5  C           1     -21.469  -8.689  -2.834  0.00  0.00     0.127 C 
HETATM    6  C           1     -19.443  -8.726  -3.955  0.00  0.00     0.188 C 
HETATM    7  C           1     -20.477  -9.270  -1.840  0.00  0.00     0.022 C 
HETATM    8  C           1     -19.143  -9.289  -2.576  0.00  0.00     0.038 C 
BRANCH   6   9
HETATM    9  C           1     -19.717  -9.836  -4.940  0.00  0.00     0.196 C 
HETATM   10  O           1     -19.038 -10.885  -4.904  0.00  0.00    -0.646 OA
HETATM   11  O           1     -20.622  -9.704  -5.792  0.00  0.00    -0.646 OA
ENDBRANCH   6   9
ENDBRANCH   1   2
BRANCH   1  12
HETATM   12  C           1     -20.436  -4.810  -5.834  0.00  0.00     0.081 C 
BRANCH  12  13
HETATM   13  C           1     -20.846  -4.495  -7.238  0.00  0.00    -0.056 A 
HETATM   14  C           1     -19.916  -4.586  -8.274  0.00  0.00     0.010 A 
HETATM   15  C           1     -20.298  -4.291  -9.583  0.00  0.00     0.037 A 
HETATM   16  C           1     -21.610  -3.906  -9.856  0.00  0.00     0.065 A 
HETATM   17  C           1     -22.540  -3.814  -8.821  0.00  0.00     0.037 A 
HETATM   18  C           1     -22.159  -4.109  -7.512  0.00  0.00     0.010 A 
BRANCH  16  19
HETATM   19  O           1     -21.981  -3.620 -11.127  0.00  0.00    -0.361 OA
HETATM   20  H           1     -21.615  -4.306 -11.709  0.00  0.00     0.217 HD
ENDBRANCH  16  19
ENDBRANCH  12  13
ENDBRANCH   1  12
BRANCH   1  21
HETATM   21  N           1     -21.205  -6.987  -6.705  0.00  0.00    -0.066 N 
HETATM   22  H           1     -21.374  -7.983  -6.439  0.00  0.00     0.275 HD
HETATM   23  H           1     -20.701  -6.952  -7.620  0.00  0.00     0.275 HD
HETATM   24  H           1     -22.121  -6.491  -6.794  0.00  0.00     0.275 HD
ENDBRANCH   1  21
TORSDOF 6
ENDMDL
MODEL 5
REMARK VINA RESULT:      -6.5      1.782      2.716
REMARK  6 active torsions:
REMARK  status: ('A' for Active; 'I' for Inactive)
REMARK    1  A    between atoms: O_3  and  C_14 
REMARK    2  A    between atoms: C_5  and  C_18 
REMARK    3  A    between atoms: C_5  and  C_9 
REMARK    4  A    between atoms: C_5  and  N_22 
REMARK    5  A    between atoms: C_9  and  C_15 
REMARK       I    between atoms: C_18  and  N_19 
REMARK    6  A    between atoms: C_21  and  C_23 
ROOT
HETATM    1  C           1     -35.414  -1.445 -12.811  0.00  0.00     0.279 C 
ENDROOT
BRANCH   1   2
HETATM    2  C           1     -35.221   0.009 -13.164  0.00  0.00     0.251 C 
HETATM    3  O           1     -34.735   0.767 -12.359  0.00  0.00    -0.271 OA
HETATM    4  N           1     -35.598   0.470 -14.397  0.00  0.00    -0.336 N 
HETATM    5  C           1     -34.998   1.561 -15.161  0.00  0.00     0.127 C 
HETATM    6  C           1     -36.687  -0.022 -15.237  0.00  0.00     0.188 C 
HETATM    7  C           1     -36.192   2.283 -15.762  0.00  0.00     0.022 C 
HETATM    8  C           1     -37.304   1.243 -15.807  0.00  0.00     0.038 C 
BRANCH   6   9
HETATM    9  C           1     -36.158  -0.907 -16.339  0.00  0.00     0.196 C 
HETATM   10  O           1     -34.982  -1.328 -16.293  0.00  0.00    -0.646 OA
HETATM   11  O           1     -36.897  -1.217 -17.299  0.00  0.00    -0.646 OA
ENDBRANCH   6   9
ENDBRANCH   1   2
BRANCH   1  12
HETATM   12  C           1     -34.911  -1.696 -11.395  0.00  0.00     0.081 C 
BRANCH  12  13
HETATM   13  C           1     -34.503  -3.128 -11.257  0.00  0.00    -0.056 A 
HETATM   14  C           1     -35.431  -4.081 -10.837  0.00  0.00     0.010 A 
HETATM   15  C           1     -35.051  -5.417 -10.707  0.00  0.00     0.037 A 
HETATM   16  C           1     -33.741  -5.800 -10.996  0.00  0.00     0.065 A 
HETATM   17  C           1     -32.812  -4.847 -11.415  0.00  0.00     0.037 A 
HETATM   18  C           1     -33.193  -3.511 -11.545  0.00  0.00     0.010 A 
BRANCH  16  19
HETATM   19  O           1     -33.372  -7.097 -10.870  0.00  0.00    -0.361 OA
HETATM   20  H           1     -34.158  -7.649 -11.011  0.00  0.00     0.217 HD
ENDBRANCH  16  19
ENDBRANCH  12  13
ENDBRANCH   1  12
BRANCH   1  21
HETATM   21  N           1     -34.644  -2.299 -13.773  0.00  0.00    -0.066 N 
HETATM   22  H           1     -35.217  -2.460 -14.632  0.00  0.00     0.275 HD
HETATM   23  H           1     -34.423  -3.218 -13.326  0.00  0.00     0.275 HD
HETATM   24  H           1     -33.754  -1.816 -14.033  0.00  0.00     0.275 HD
ENDBRANCH   1  21
TORSDOF 6
ENDMDL
MODEL 6
REMARK VINA RESULT:      -6.3     15.176     19.009
REMARK  6 active torsions:
REMARK  status: ('A' for Active; 'I' for Inactive)
REMARK    1  A    between atoms: O_3  and  C_14 
REMARK    2  A    between atoms: C_5  and  C_18 
REMARK    3  A    between atoms: C_5  and  C_9 
REMARK    4  A    between atoms: C_5  and  N_22 
REMARK    5  A    between atoms: C_9  and  C_15 
REMARK       I    between atoms: C_18  and  N_19 
REMARK    6  A    between atoms: C_21  and  C_23 
ROOT
HETATM    1  C           1     -20.410  -7.101  -5.310  0.00  0.00     0.279 C 
ENDROOT
BRANCH   1   2
HETATM    2  C           1     -20.489  -7.710  -3.931  0.00  0.00     0.251 C 
HETATM    3  O           1     -21.166  -7.188  -3.078  0.00  0.00    -0.271 OA
HETATM    4  N           1     -19.791  -8.853  -3.647  0.00  0.00    -0.336 N 
HETATM    5  C           1     -20.155  -9.905  -2.702  0.00  0.00     0.127 C 
HETATM    6  C           1     -18.522  -9.288  -4.223  0.00  0.00     0.188 C 
HETATM    7  C           1     -18.838 -10.270  -2.039  0.00  0.00     0.022 C 
HETATM    8  C           1     -17.763  -9.858  -3.038  0.00  0.00     0.038 C 
BRANCH   6   9
HETATM    9  C           1     -18.743 -10.343  -5.278  0.00  0.00     0.196 C 
HETATM   10  O           1     -19.741 -10.278  -6.029  0.00  0.00    -0.646 OA
HETATM   11  O           1     -17.929 -11.284  -5.400  0.00  0.00    -0.646 OA
ENDBRANCH   6   9
ENDBRANCH   1   2
BRANCH   1  12
HETATM   12  C           1     -20.858  -5.647  -5.250  0.00  0.00     0.081 C 
BRANCH  12  13
HETATM   13  C           1     -20.955  -5.096  -6.638  0.00  0.00    -0.056 A 
HETATM   14  C           1     -22.172  -4.608  -7.112  0.00  0.00     0.010 A 
HETATM   15  C           1     -22.262  -4.095  -8.406  0.00  0.00     0.037 A 
HETATM   16  C           1     -21.134  -4.070  -9.227  0.00  0.00     0.065 A 
HETATM   17  C           1     -19.917  -4.559  -8.753  0.00  0.00     0.037 A 
HETATM   18  C           1     -19.826  -5.072  -7.459  0.00  0.00     0.010 A 
BRANCH  16  19
HETATM   19  O           1     -21.222  -3.572 -10.483  0.00  0.00    -0.361 OA
HETATM   20  H           1     -21.969  -4.006 -10.927  0.00  0.00     0.217 HD
ENDBRANCH  16  19
ENDBRANCH  12  13
ENDBRANCH   1  12
BRANCH   1  21
HETATM   21  N           1     -21.305  -7.861  -6.243  0.00  0.00    -0.066 N 
HETATM   22  H           1     -21.593  -7.240  -7.032  0.00  0.00     0.275 HD
HETATM   23  H           1     -22.154  -8.185  -5.727  0.00  0.00     0.275 HD
HETATM   24  H           1     -20.791  -8.689  -6.621  0.00  0.00     0.275 HD
ENDBRANCH   1  21
TORSDOF 6
ENDMDL
MODEL 7
REMARK VINA RESULT:      -6.2     18.926     21.934
REMARK  6 active torsions:
REMARK  status: ('A' for Active; 'I' for Inactive)
REMARK    1  A    between atoms: O_3  and  C_14 
REMARK    2  A    between atoms: C_5  and  C_18 
REMARK    3  A    between atoms: C_5  and  C_9 
REMARK    4  A    between atoms: C_5  and  N_22 
REMARK    5  A    between atoms: C_9  and  C_15 
REMARK       I    between atoms: C_18  and  N_19 
REMARK    6  A    between atoms: C_21  and  C_23 
ROOT
HETATM    1  C           1     -20.113 -11.412  -0.902  0.00  0.00     0.279 C 
ENDROOT
BRANCH   1   2
HETATM    2  C           1     -18.634 -11.626  -0.694  0.00  0.00     0.251 C 
HETATM    3  O           1     -18.230 -12.078   0.350  0.00  0.00    -0.271 OA
HETATM    4  N           1     -17.750 -11.307  -1.690  0.00  0.00    -0.336 N 
HETATM    5  C           1     -16.469 -11.945  -1.979  0.00  0.00     0.127 C 
HETATM    6  C           1     -17.882 -10.256  -2.694  0.00  0.00     0.188 C 
HETATM    7  C           1     -15.554 -10.783  -2.325  0.00  0.00     0.022 C 
HETATM    8  C           1     -16.484  -9.670  -2.791  0.00  0.00     0.038 C 
BRANCH   6   9
HETATM    9  C           1     -18.316 -10.831  -4.020  0.00  0.00     0.196 C 
HETATM   10  O           1     -17.684 -10.549  -5.061  0.00  0.00    -0.646 OA
HETATM   11  O           1     -19.309 -11.588  -4.077  0.00  0.00    -0.646 OA
ENDBRANCH   6   9
ENDBRANCH   1   2
BRANCH   1  12
HETATM   12  C           1     -20.665 -10.546   0.223  0.00  0.00     0.081 C 
BRANCH  12  13
HETATM   13  C           1     -21.181  -9.260  -0.342  0.00  0.00    -0.056 A 
HETATM   14  C           1     -20.667  -8.770  -1.542  0.00  0.00     0.010 A 
HETATM   15  C           1     -21.147  -7.571  -2.069  0.00  0.00     0.037 A 
HETATM   16  C           1     -22.142  -6.862  -1.396  0.00  0.00     0.065 A 
HETATM   17  C           1     -22.655  -7.352  -0.195  0.00  0.00     0.037 A 
HETATM   18  C           1     -22.175  -8.551   0.333  0.00  0.00     0.010 A 
BRANCH  16  19
HETATM   19  O           1     -22.608  -5.698  -1.907  0.00  0.00    -0.361 OA
HETATM   20  H           1     -22.177  -5.553  -2.765  0.00  0.00     0.217 HD
ENDBRANCH  16  19
ENDBRANCH  12  13
ENDBRANCH   1  12
BRANCH   1  21
HETATM   21  N           1     -20.815 -12.737  -0.902  0.00  0.00    -0.066 N 
HETATM   22  H           1     -21.709 -12.658  -0.367  0.00  0.00     0.275 HD
HETATM   23  H           1     -20.203 -13.456  -0.454  0.00  0.00     0.275 HD
HETATM   24  H           1     -21.022 -13.021  -1.886  0.00  0.00     0.275 HD
ENDBRANCH   1  21
TORSDOF 6
ENDMDL
MODEL 8
REMARK VINA RESULT:      -6.2     17.664     19.380
REMARK  6 active torsions:
REMARK  status: ('A' for Active; 'I' for Inactive)
REMARK    1  A    between atoms: O_3  and  C_14 
REMARK    2  A    between atoms: C_5  and  C_18 
REMARK    3  A    between atoms: C_5  and  C_9 
REMARK    4  A    between atoms: C_5  and  N_22 
REMARK    5  A    between atoms: C_9  and  C_15 
REMARK       I    between atoms: C_18  and  N_19 
REMARK    6  A    between atoms: C_21  and  C_23 
ROOT
HETATM    1  C           1     -21.895  -8.868  -0.437  0.00  0.00     0.279 C 
ENDROOT
BRANCH   1   2
HETATM    2  C           1     -22.151  -7.584  -1.187  0.00  0.00     0.251 C 
HETATM    3  O           1     -22.839  -6.722  -0.694  0.00  0.00    -0.271 OA
HETATM    4  N           1     -21.603  -7.396  -2.428  0.00  0.00    -0.336 N 
HETATM    5  C           1     -21.192  -6.133  -3.036  0.00  0.00     0.127 C 
HETATM    6  C           1     -21.303  -8.413  -3.431  0.00  0.00     0.188 C 
HETATM    7  C           1     -21.639  -6.264  -4.482  0.00  0.00     0.022 C 
HETATM    8  C           1     -21.718  -7.763  -4.740  0.00  0.00     0.038 C 
BRANCH   6   9
HETATM    9  C           1     -19.830  -8.742  -3.438  0.00  0.00     0.196 C 
HETATM   10  O           1     -19.252  -9.044  -2.372  0.00  0.00    -0.646 OA
HETATM   11  O           1     -19.189  -8.713  -4.511  0.00  0.00    -0.646 OA
ENDBRANCH   6   9
ENDBRANCH   1   2
BRANCH   1  12
HETATM   12  C           1     -23.224  -9.513  -0.064  0.00  0.00     0.081 C 
BRANCH  12  13
HETATM   13  C           1     -23.269 -10.909  -0.599  0.00  0.00    -0.056 A 
HETATM   14  C           1     -23.644 -11.964   0.233  0.00  0.00     0.010 A 
HETATM   15  C           1     -23.685 -13.266  -0.265  0.00  0.00     0.037 A 
HETATM   16  C           1     -23.351 -13.514  -1.597  0.00  0.00     0.065 A 
HETATM   17  C           1     -22.976 -12.460  -2.429  0.00  0.00     0.037 A 
HETATM   18  C           1     -22.934 -11.157  -1.931  0.00  0.00     0.010 A 
BRANCH  16  19
HETATM   19  O           1     -23.391 -14.778  -2.081  0.00  0.00    -0.361 OA
HETATM   20  H           1     -22.915 -14.792  -2.927  0.00  0.00     0.217 HD
ENDBRANCH  16  19
ENDBRANCH  12  13
ENDBRANCH   1  12
BRANCH   1  21
HETATM   21  N           1     -21.118  -8.571   0.810  0.00  0.00    -0.066 N 
HETATM   22  H           1     -20.838  -7.564   0.816  0.00  0.00     0.275 HD
HETATM   23  H           1     -20.261  -9.170   0.839  0.00  0.00     0.275 HD
HETATM   24  H           1     -21.710  -8.773   1.647  0.00  0.00     0.275 HD
ENDBRANCH   1  21
TORSDOF 6
ENDMDL
MODEL 9
REMARK VINA RESULT:      -6.1     15.638     19.143
REMARK  6 active torsions:
REMARK  status: ('A' for Active; 'I' for Inactive)
REMARK    1  A    between atoms: O_3  and  C_14 
REMARK    2  A    between atoms: C_5  and  C_18 
REMARK    3  A    between atoms: C_5  and  C_9 
REMARK    4  A    between atoms: C_5  and  N_22 
REMARK    5  A    between atoms: C_9  and  C_15 
REMARK       I    between atoms: C_18  and  N_19 
REMARK    6  A    between atoms: C_21  and  C_23 
ROOT
HETATM    1  C           1     -21.201  -7.992  -3.379  0.00  0.00     0.279 C 
ENDROOT
BRANCH   1   2
HETATM    2  C           1     -20.685  -9.148  -2.557  0.00  0.00     0.251 C 
HETATM    3  O           1     -19.758  -9.810  -2.960  0.00  0.00    -0.271 OA
HETATM    4  N           1     -21.269  -9.448  -1.355  0.00  0.00    -0.336 N 
HETATM    5  C           1     -20.632 -10.033  -0.179  0.00  0.00     0.127 C 
HETATM    6  C           1     -22.663  -9.251  -0.970  0.00  0.00     0.188 C 
HETATM    7  C           1     -21.665 -11.017   0.342  0.00  0.00     0.022 C 
HETATM    8  C           1     -23.001 -10.506  -0.183  0.00  0.00     0.038 C 
BRANCH   6   9
HETATM    9  C           1     -22.815  -8.021  -0.110  0.00  0.00     0.196 C 
HETATM   10  O           1     -23.036  -8.137   1.115  0.00  0.00    -0.646 OA
HETATM   11  O           1     -22.720  -6.885  -0.624  0.00  0.00    -0.646 OA
ENDBRANCH   6   9
ENDBRANCH   1   2
BRANCH   1  12
HETATM   12  C           1     -20.565  -8.029  -4.763  0.00  0.00     0.081 C 
BRANCH  12  13
HETATM   13  C           1     -20.921  -6.781  -5.508  0.00  0.00    -0.056 A 
HETATM   14  C           1     -19.918  -6.010  -6.096  0.00  0.00     0.010 A 
HETATM   15  C           1     -20.249  -4.847  -6.791  0.00  0.00     0.037 A 
HETATM   16  C           1     -21.584  -4.454  -6.899  0.00  0.00     0.065 A 
HETATM   17  C           1     -22.586  -5.225  -6.310  0.00  0.00     0.037 A 
HETATM   18  C           1     -22.255  -6.388  -5.615  0.00  0.00     0.010 A 
BRANCH  16  19
HETATM   19  O           1     -21.905  -3.325  -7.573  0.00  0.00    -0.361 OA
HETATM   20  H           1     -22.624  -3.537  -8.190  0.00  0.00     0.217 HD
ENDBRANCH  16  19
ENDBRANCH  12  13
ENDBRANCH   1  12
BRANCH   1  21
HETATM   21  N           1     -20.849  -6.702  -2.702  0.00  0.00    -0.066 N 
HETATM   22  H           1     -19.836  -6.707  -2.446  0.00  0.00     0.275 HD
HETATM   23  H           1     -21.425  -6.593  -1.837  0.00  0.00     0.275 HD
HETATM   24  H           1     -21.041  -5.905  -3.350  0.00  0.00     0.275 HD
ENDBRANCH   1  21
TORSDOF 6
ENDMDL
