MODEL 1
REMARK VINA RESULT:      -5.5      0.000      0.000
REMARK  6 active torsions:
REMARK  status: ('A' for Active; 'I' for Inactive)
REMARK    1  A    between atoms: N_2  and  C_9 
REMARK       I    between atoms: N_2  and  C_15 
REMARK    2  A    between atoms: C_9  and  C_10 
REMARK    3  A    between atoms: C_13  and  C_14 
REMARK    4  A    between atoms: C_13  and  S_16 
REMARK    5  A    between atoms: C_14  and  C_15 
REMARK    6  A    between atoms: C_14  and  N_17 
ROOT
HETATM    1  O           1     -36.412  -1.403 -12.462  0.00  0.00    -0.271 OA
HETATM    2  N           1     -34.871  -1.190 -14.064  0.00  0.00    -0.345 N 
HETATM    3  H           1     -33.935  -1.397 -14.386  0.00  0.00     0.163 HD
HETATM    4  C           1     -35.295  -1.651 -12.846  0.00  0.00     0.249 C 
ENDROOT
BRANCH   4   5
HETATM    5  C           1     -34.363  -2.467 -11.983  0.00  0.00     0.283 C 
BRANCH   5   6
HETATM    6  C           1     -35.128  -3.634 -11.373  0.00  0.00     0.113 C 
BRANCH   6   7
HETATM    7  S           1     -33.957  -4.913 -10.840  0.00  0.00    -0.180 SA
HETATM    8  H           1     -33.562  -4.284  -9.718  0.00  0.00     0.101 HD
ENDBRANCH   6   7
ENDBRANCH   5   6
BRANCH   5   9
HETATM    9  N           1     -33.812  -1.603 -10.888  0.00  0.00    -0.066 N 
HETATM   10  H           1     -33.900  -2.101  -9.974  0.00  0.00     0.275 HD
HETATM   11  H           1     -32.804  -1.401 -11.078  0.00  0.00     0.275 HD
HETATM   12  H           1     -34.346  -0.706 -10.850  0.00  0.00     0.275 HD
ENDBRANCH   5   9
ENDBRANCH   4   5
BRANCH   2  13
HETATM   13  C           1     -35.766  -0.405 -14.893  0.00  0.00     0.181 C 
HETATM   14  C           1     -35.288   1.040 -14.929  0.00  0.00     0.043 C 
BRANCH  13  15
HETATM   15  C           1     -35.775  -0.968 -16.294  0.00  0.00     0.196 C 
HETATM   16  O           1     -36.727  -0.712 -17.063  0.00  0.00    -0.646 OA
HETATM   17  O           1     -34.832  -1.689 -16.684  0.00  0.00    -0.646 OA
ENDBRANCH  13  15
ENDBRANCH   2  13
TORSDOF 6
ENDMDL
MODEL 2
REMARK VINA RESULT:      -5.1     12.383     13.159
REMARK  6 active torsions:
REMARK  status: ('A' for Active; 'I' for Inactive)
REMARK    1  A    between atoms: N_2  and  C_9 
REMARK       I    between atoms: N_2  and  C_15 
REMARK    2  A    between atoms: C_9  and  C_10 
REMARK    3  A    between atoms: C_13  and  C_14 
REMARK    4  A    between atoms: C_13  and  S_16 
REMARK    5  A    between atoms: C_14  and  C_15 
REMARK    6  A    between atoms: C_14  and  N_17 
ROOT
HETATM    1  O           1     -23.127  -5.054 -11.568  0.00  0.00    -0.271 OA
HETATM    2  N           1     -22.332  -3.348 -12.768  0.00  0.00    -0.345 N 
HETATM    3  H           1     -21.578  -2.693 -12.933  0.00  0.00     0.163 HD
HETATM    4  C           1     -22.227  -4.273 -11.765  0.00  0.00     0.249 C 
ENDROOT
BRANCH   4   5
HETATM    5  C           1     -20.988  -4.316 -10.904  0.00  0.00     0.283 C 
BRANCH   5   6
HETATM    6  C           1     -21.385  -4.206  -9.438  0.00  0.00     0.113 C 
BRANCH   6   7
HETATM    7  S           1     -19.916  -4.429  -8.395  0.00  0.00    -0.180 SA
HETATM    8  H           1     -20.154  -5.717  -8.090  0.00  0.00     0.101 HD
ENDBRANCH   6   7
ENDBRANCH   5   6
BRANCH   5   9
HETATM    9  N           1     -20.090  -3.170 -11.266  0.00  0.00    -0.066 N 
HETATM   10  H           1     -20.497  -2.651 -12.077  0.00  0.00     0.275 HD
HETATM   11  H           1     -20.003  -2.525 -10.449  0.00  0.00     0.275 HD
HETATM   12  H           1     -19.146  -3.537 -11.525  0.00  0.00     0.275 HD
ENDBRANCH   5   9
ENDBRANCH   4   5
BRANCH   2  13
HETATM   13  C           1     -23.523  -3.306 -13.595  0.00  0.00     0.181 C 
HETATM   14  C           1     -24.708  -2.851 -12.755  0.00  0.00     0.043 C 
BRANCH  13  15
HETATM   15  C           1     -23.310  -2.338 -14.734  0.00  0.00     0.196 C 
HETATM   16  O           1     -24.039  -1.328 -14.838  0.00  0.00    -0.646 OA
HETATM   17  O           1     -22.406  -2.546 -15.571  0.00  0.00    -0.646 OA
ENDBRANCH  13  15
ENDBRANCH   2  13
TORSDOF 6
ENDMDL
MODEL 3
REMARK VINA RESULT:      -5.0     14.088     15.528
REMARK  6 active torsions:
REMARK  status: ('A' for Active; 'I' for Inactive)
REMARK    1  A    between atoms: N_2  and  C_9 
REMARK       I    between atoms: N_2  and  C_15 
REMARK    2  A    between atoms: C_9  and  C_10 
REMARK    3  A    between atoms: C_13  and  C_14 
REMARK    4  A    between atoms: C_13  and  S_16 
REMARK    5  A    between atoms: C_14  and  C_15 
REMARK    6  A    between atoms: C_14  and  N_17 
ROOT
HETATM    1  O           1     -20.036  -4.757 -10.937  0.00  0.00    -0.271 OA
HETATM    2  N           1     -21.177  -4.226  -9.092  0.00  0.00    -0.345 N 
HETATM    3  H           1     -21.930  -3.697  -8.672  0.00  0.00     0.163 HD
HETATM    4  C           1     -20.935  -4.126 -10.436  0.00  0.00     0.249 C 
ENDROOT
BRANCH   4   5
HETATM    5  C           1     -21.792  -3.224 -11.290  0.00  0.00     0.283 C 
BRANCH   5   6
HETATM    6  C           1     -23.252  -3.376 -10.883  0.00  0.00     0.113 C 
BRANCH   6   7
HETATM    7  S           1     -24.315  -3.131 -12.333  0.00  0.00    -0.180 SA
HETATM    8  H           1     -23.817  -1.928 -12.672  0.00  0.00     0.101 HD
ENDBRANCH   6   7
ENDBRANCH   5   6
BRANCH   5   9
HETATM    9  N           1     -21.634  -3.605 -12.732  0.00  0.00    -0.066 N 
HETATM   10  H           1     -20.642  -3.455 -13.025  0.00  0.00     0.275 HD
HETATM   11  H           1     -21.884  -4.612 -12.856  0.00  0.00     0.275 HD
HETATM   12  H           1     -22.264  -3.013 -13.320  0.00  0.00     0.275 HD
ENDBRANCH   5   9
ENDBRANCH   4   5
BRANCH   2  13
HETATM   13  C           1     -20.353  -5.092  -8.270  0.00  0.00     0.181 C 
HETATM   14  C           1     -19.227  -4.279  -7.646  0.00  0.00     0.043 C 
BRANCH  13  15
HETATM   15  C           1     -21.199  -5.702  -7.179  0.00  0.00     0.196 C 
HETATM   16  O           1     -22.135  -5.046  -6.674  0.00  0.00    -0.646 OA
HETATM   17  O           1     -20.963  -6.863  -6.780  0.00  0.00    -0.646 OA
ENDBRANCH  13  15
ENDBRANCH   2  13
TORSDOF 6
ENDMDL
MODEL 4
REMARK VINA RESULT:      -5.0     13.472     14.554
REMARK  6 active torsions:
REMARK  status: ('A' for Active; 'I' for Inactive)
REMARK    1  A    between atoms: N_2  and  C_9 
REMARK       I    between atoms: N_2  and  C_15 
REMARK    2  A    between atoms: C_9  and  C_10 
REMARK    3  A    between atoms: C_13  and  C_14 
REMARK    4  A    between atoms: C_13  and  S_16 
REMARK    5  A    between atoms: C_14  and  C_15 
REMARK    6  A    between atoms: C_14  and  N_17 
ROOT
HETATM    1  O           1     -21.488  -3.411  -7.078  0.00  0.00    -0.271 OA
HETATM    2  N           1     -22.246  -4.738  -8.706  0.00  0.00    -0.345 N 
HETATM    3  H           1     -22.355  -5.677  -9.066  0.00  0.00     0.163 HD
HETATM    4  C           1     -21.618  -4.532  -7.507  0.00  0.00     0.249 C 
ENDROOT
BRANCH   4   5
HETATM    5  C           1     -21.087  -5.708  -6.723  0.00  0.00     0.283 C 
BRANCH   5   6
HETATM    6  C           1     -20.702  -5.251  -5.322  0.00  0.00     0.113 C 
BRANCH   6   7
HETATM    7  S           1     -21.446  -6.362  -4.096  0.00  0.00    -0.180 SA
HETATM    8  H           1     -20.526  -7.336  -4.211  0.00  0.00     0.101 HD
ENDBRANCH   6   7
ENDBRANCH   5   6
BRANCH   5   9
HETATM    9  N           1     -19.880  -6.266  -7.417  0.00  0.00    -0.066 N 
HETATM   10  H           1     -19.205  -6.627  -6.705  0.00  0.00     0.275 HD
HETATM   11  H           1     -20.172  -7.048  -8.046  0.00  0.00     0.275 HD
HETATM   12  H           1     -19.424  -5.515  -7.981  0.00  0.00     0.275 HD
ENDBRANCH   5   9
ENDBRANCH   4   5
BRANCH   2  13
HETATM   13  C           1     -22.756  -3.608  -9.460  0.00  0.00     0.181 C 
HETATM   14  C           1     -22.054  -3.541 -10.810  0.00  0.00     0.043 C 
BRANCH  13  15
HETATM   15  C           1     -24.241  -3.775  -9.673  0.00  0.00     0.196 C 
HETATM   16  O           1     -24.708  -4.897  -9.964  0.00  0.00    -0.646 OA
HETATM   17  O           1     -25.004  -2.792  -9.557  0.00  0.00    -0.646 OA
ENDBRANCH  13  15
ENDBRANCH   2  13
TORSDOF 6
ENDMDL
MODEL 5
REMARK VINA RESULT:      -4.7     12.774     14.192
REMARK  6 active torsions:
REMARK  status: ('A' for Active; 'I' for Inactive)
REMARK    1  A    between atoms: N_2  and  C_9 
REMARK       I    between atoms: N_2  and  C_15 
REMARK    2  A    between atoms: C_9  and  C_10 
REMARK    3  A    between atoms: C_13  and  C_14 
REMARK    4  A    between atoms: C_13  and  S_16 
REMARK    5  A    between atoms: C_14  and  C_15 
REMARK    6  A    between atoms: C_14  and  N_17 
ROOT
HETATM    1  O           1     -23.783  -5.107 -10.643  0.00  0.00    -0.271 OA
HETATM    2  N           1     -22.188  -3.696  -9.972  0.00  0.00    -0.345 N 
HETATM    3  H           1     -21.743  -2.793 -10.073  0.00  0.00     0.163 HD
HETATM    4  C           1     -23.253  -4.029 -10.765  0.00  0.00     0.249 C 
ENDROOT
BRANCH   4   5
HETATM    5  C           1     -23.764  -3.047 -11.791  0.00  0.00     0.283 C 
BRANCH   5   6
HETATM    6  C           1     -23.965  -3.762 -13.121  0.00  0.00     0.113 C 
BRANCH   6   7
HETATM    7  S           1     -23.098  -2.856 -14.433  0.00  0.00    -0.180 SA
HETATM    8  H           1     -22.171  -3.802 -14.668  0.00  0.00     0.101 HD
ENDBRANCH   6   7
ENDBRANCH   5   6
BRANCH   5   9
HETATM    9  N           1     -22.766  -1.941 -11.964  0.00  0.00    -0.066 N 
HETATM   10  H           1     -22.145  -2.156 -12.777  0.00  0.00     0.275 HD
HETATM   11  H           1     -23.270  -1.043 -12.140  0.00  0.00     0.275 HD
HETATM   12  H           1     -22.189  -1.854 -11.097  0.00  0.00     0.275 HD
ENDBRANCH   5   9
ENDBRANCH   4   5
BRANCH   2  13
HETATM   13  C           1     -21.696  -4.639  -8.985  0.00  0.00     0.181 C 
HETATM   14  C           1     -20.179  -4.733  -9.085  0.00  0.00     0.043 C 
BRANCH  13  15
HETATM   15  C           1     -22.082  -4.168  -7.604  0.00  0.00     0.196 C 
HETATM   16  O           1     -21.287  -3.472  -6.937  0.00  0.00    -0.646 OA
HETATM   17  O           1     -23.196  -4.474  -7.128  0.00  0.00    -0.646 OA
ENDBRANCH  13  15
ENDBRANCH   2  13
TORSDOF 6
ENDMDL
MODEL 6
REMARK VINA RESULT:      -4.6     14.391     15.986
REMARK  6 active torsions:
REMARK  status: ('A' for Active; 'I' for Inactive)
REMARK    1  A    between atoms: N_2  and  C_9 
REMARK       I    between atoms: N_2  and  C_15 
REMARK    2  A    between atoms: C_9  and  C_10 
REMARK    3  A    between atoms: C_13  and  C_14 
REMARK    4  A    between atoms: C_13  and  S_16 
REMARK    5  A    between atoms: C_14  and  C_15 
REMARK    6  A    between atoms: C_14  and  N_17 
ROOT
HETATM    1  O           1     -20.632  -4.842  -9.024  0.00  0.00    -0.271 OA
HETATM    2  N           1     -21.814  -5.340  -7.196  0.00  0.00    -0.345 N 
HETATM    3  H           1     -22.719  -5.386  -6.747  0.00  0.00     0.163 HD
HETATM    4  C           1     -21.712  -4.897  -8.488  0.00  0.00     0.249 C 
ENDROOT
BRANCH   4   5
HETATM    5  C           1     -22.951  -4.478  -9.241  0.00  0.00     0.283 C 
BRANCH   5   6
HETATM    6  C           1     -22.576  -3.453 -10.303  0.00  0.00     0.113 C 
BRANCH   6   7
HETATM    7  S           1     -23.941  -3.282 -11.487  0.00  0.00    -0.180 SA
HETATM    8  H           1     -24.268  -4.586 -11.517  0.00  0.00     0.101 HD
ENDBRANCH   6   7
ENDBRANCH   5   6
BRANCH   5   9
HETATM    9  N           1     -23.934  -3.870  -8.285  0.00  0.00    -0.066 N 
HETATM   10  H           1     -23.580  -2.940  -7.964  0.00  0.00     0.275 HD
HETATM   11  H           1     -24.854  -3.744  -8.765  0.00  0.00     0.275 HD
HETATM   12  H           1     -24.054  -4.500  -7.461  0.00  0.00     0.275 HD
ENDBRANCH   5   9
ENDBRANCH   4   5
BRANCH   2  13
HETATM   13  C           1     -20.624  -5.743  -6.472  0.00  0.00     0.181 C 
HETATM   14  C           1     -20.158  -4.597  -5.583  0.00  0.00     0.043 C 
BRANCH  13  15
HETATM   15  C           1     -20.939  -6.947  -5.618  0.00  0.00     0.196 C 
HETATM   16  O           1     -21.151  -8.056  -6.155  0.00  0.00    -0.646 OA
HETATM   17  O           1     -20.988  -6.836  -4.374  0.00  0.00    -0.646 OA
ENDBRANCH  13  15
ENDBRANCH   2  13
TORSDOF 6
ENDMDL
MODEL 7
REMARK VINA RESULT:      -4.4     25.214     26.030
REMARK  6 active torsions:
REMARK  status: ('A' for Active; 'I' for Inactive)
REMARK    1  A    between atoms: N_2  and  C_9 
REMARK       I    between atoms: N_2  and  C_15 
REMARK    2  A    between atoms: C_9  and  C_10 
REMARK    3  A    between atoms: C_13  and  C_14 
REMARK    4  A    between atoms: C_13  and  S_16 
REMARK    5  A    between atoms: C_14  and  C_15 
REMARK    6  A    between atoms: C_14  and  N_17 
ROOT
HETATM    1  O           1     -11.885   5.232 -19.054  0.00  0.00    -0.271 OA
HETATM    2  N           1     -11.572   6.898 -20.508  0.00  0.00    -0.345 N 
HETATM    3  H           1     -11.922   7.423 -21.298  0.00  0.00     0.163 HD
HETATM    4  C           1     -12.303   5.859 -19.997  0.00  0.00     0.249 C 
ENDROOT
BRANCH   4   5
HETATM    5  C           1     -13.632   5.498 -20.615  0.00  0.00     0.283 C 
BRANCH   5   6
HETATM    6  C           1     -13.779   3.982 -20.650  0.00  0.00     0.113 C 
BRANCH   6   7
HETATM    7  S           1     -13.300   3.365 -22.288  0.00  0.00    -0.180 SA
HETATM    8  H           1     -12.436   2.435 -21.842  0.00  0.00     0.101 HD
ENDBRANCH   6   7
ENDBRANCH   5   6
BRANCH   5   9
HETATM    9  N           1     -13.697   6.039 -22.012  0.00  0.00    -0.066 N 
HETATM   10  H           1     -12.732   6.089 -22.411  0.00  0.00     0.275 HD
HETATM   11  H           1     -14.285   5.409 -22.602  0.00  0.00     0.275 HD
HETATM   12  H           1     -14.118   6.996 -21.995  0.00  0.00     0.275 HD
ENDBRANCH   5   9
ENDBRANCH   4   5
BRANCH   2  13
HETATM   13  C           1     -10.294   7.245 -19.915  0.00  0.00     0.181 C 
HETATM   14  C           1      -9.182   7.000 -20.926  0.00  0.00     0.043 C 
BRANCH  13  15
HETATM   15  C           1     -10.304   8.702 -19.520  0.00  0.00     0.196 C 
HETATM   16  O           1     -10.315   9.022 -18.312  0.00  0.00    -0.646 OA
HETATM   17  O           1     -10.300   9.589 -20.401  0.00  0.00    -0.646 OA
ENDBRANCH  13  15
ENDBRANCH   2  13
TORSDOF 6
ENDMDL
MODEL 8
REMARK VINA RESULT:      -4.3     13.570     14.964
REMARK  6 active torsions:
REMARK  status: ('A' for Active; 'I' for Inactive)
REMARK    1  A    between atoms: N_2  and  C_9 
REMARK       I    between atoms: N_2  and  C_15 
REMARK    2  A    between atoms: C_9  and  C_10 
REMARK    3  A    between atoms: C_13  and  C_14 
REMARK    4  A    between atoms: C_13  and  S_16 
REMARK    5  A    between atoms: C_14  and  C_15 
REMARK    6  A    between atoms: C_14  and  N_17 
ROOT
HETATM    1  O           1     -23.722  -4.093  -7.709  0.00  0.00    -0.271 OA
HETATM    2  N           1     -21.875  -4.751  -8.777  0.00  0.00    -0.345 N 
HETATM    3  H           1     -21.428  -4.979  -9.655  0.00  0.00     0.163 HD
HETATM    4  C           1     -23.188  -4.365  -8.757  0.00  0.00     0.249 C 
ENDROOT
BRANCH   4   5
HETATM    5  C           1     -23.969  -4.279 -10.046  0.00  0.00     0.283 C 
BRANCH   5   6
HETATM    6  C           1     -23.232  -3.376 -11.026  0.00  0.00     0.113 C 
BRANCH   6   7
HETATM    7  S           1     -24.233  -3.163 -12.525  0.00  0.00    -0.180 SA
HETATM    8  H           1     -25.413  -3.459 -11.949  0.00  0.00     0.101 HD
ENDBRANCH   6   7
ENDBRANCH   5   6
BRANCH   5   9
HETATM    9  N           1     -25.329  -3.713  -9.769  0.00  0.00    -0.066 N 
HETATM   10  H           1     -25.381  -3.402  -8.772  0.00  0.00     0.275 HD
HETATM   11  H           1     -25.499  -2.895 -10.397  0.00  0.00     0.275 HD
HETATM   12  H           1     -26.054  -4.445  -9.945  0.00  0.00     0.275 HD
ENDBRANCH   5   9
ENDBRANCH   4   5
BRANCH   2  13
HETATM   13  C           1     -21.125  -4.834  -7.538  0.00  0.00     0.181 C 
HETATM   14  C           1     -21.046  -6.287  -7.089  0.00  0.00     0.043 C 
BRANCH  13  15
HETATM   15  C           1     -19.731  -4.298  -7.759  0.00  0.00     0.196 C 
HETATM   16  O           1     -19.509  -3.500  -8.695  0.00  0.00    -0.646 OA
HETATM   17  O           1     -18.798  -4.653  -7.006  0.00  0.00    -0.646 OA
ENDBRANCH  13  15
ENDBRANCH   2  13
TORSDOF 6
ENDMDL
MODEL 9
REMARK VINA RESULT:      -4.2     17.314     18.057
REMARK  6 active torsions:
REMARK  status: ('A' for Active; 'I' for Inactive)
REMARK    1  A    between atoms: N_2  and  C_9 
REMARK       I    between atoms: N_2  and  C_15 
REMARK    2  A    between atoms: C_9  and  C_10 
REMARK    3  A    between atoms: C_13  and  C_14 
REMARK    4  A    between atoms: C_13  and  S_16 
REMARK    5  A    between atoms: C_14  and  C_15 
REMARK    6  A    between atoms: C_14  and  N_17 
ROOT
HETATM    1  O           1     -22.583  -5.884  -2.597  0.00  0.00    -0.271 OA
HETATM    2  N           1     -20.942  -6.842  -3.770  0.00  0.00    -0.345 N 
HETATM    3  H           1     -20.185  -7.513  -3.795  0.00  0.00     0.163 HD
HETATM    4  C           1     -21.680  -6.684  -2.627  0.00  0.00     0.249 C 
ENDROOT
BRANCH   4   5
HETATM    5  C           1     -21.363  -7.511  -1.405  0.00  0.00     0.283 C 
BRANCH   5   6
HETATM    6  C           1     -21.286  -8.982  -1.794  0.00  0.00     0.113 C 
BRANCH   6   7
HETATM    7  S           1     -21.382 -10.009  -0.301  0.00  0.00    -0.180 SA
HETATM    8  H           1     -22.494 -10.676  -0.659  0.00  0.00     0.101 HD
ENDBRANCH   6   7
ENDBRANCH   5   6
BRANCH   5   9
HETATM    9  N           1     -22.441  -7.321  -0.381  0.00  0.00    -0.066 N 
HETATM   10  H           1     -23.163  -8.069  -0.491  0.00  0.00     0.275 HD
HETATM   11  H           1     -22.025  -7.378   0.576  0.00  0.00     0.275 HD
HETATM   12  H           1     -22.886  -6.385  -0.513  0.00  0.00     0.275 HD
ENDBRANCH   5   9
ENDBRANCH   4   5
BRANCH   2  13
HETATM   13  C           1     -21.245  -6.047  -4.945  0.00  0.00     0.181 C 
HETATM   14  C           1     -20.254  -4.896  -5.048  0.00  0.00     0.043 C 
BRANCH  13  15
HETATM   15  C           1     -21.143  -6.913  -6.177  0.00  0.00     0.196 C 
HETATM   16  O           1     -21.236  -8.155  -6.077  0.00  0.00    -0.646 OA
HETATM   17  O           1     -20.966  -6.387  -7.297  0.00  0.00    -0.646 OA
ENDBRANCH  13  15
ENDBRANCH   2  13
TORSDOF 6
ENDMDL
