MODEL 1
REMARK VINA RESULT:      -6.2      0.000      0.000
REMARK  8 active torsions:
REMARK  status: ('A' for Active; 'I' for Inactive)
REMARK    1  A    between atoms: N_1  and  C_8 
REMARK       I    between atoms: N_1  and  C_2 
REMARK    2  A    between atoms: C_2  and  C_3 
REMARK    3  A    between atoms: C_3  and  C_4 
REMARK    4  A    between atoms: C_3  and  N_7 
REMARK    5  A    between atoms: C_4  and  O_5 
REMARK    6  A    between atoms: C_8  and  C_10 
REMARK    7  A    between atoms: C_8  and  C_11 
REMARK    8  A    between atoms: C_10  and  C_21 
ROOT
HETATM    1  N           1     -34.891  -1.832 -12.680  0.00  0.00    -0.344 N 
HETATM    2  C           1     -34.029  -2.666 -12.021  0.00  0.00     0.251 C 
HETATM    3  O           1     -33.400  -2.258 -11.074  0.00  0.00    -0.271 OA
HETATM    4  H           1     -35.417  -2.174 -13.475  0.00  0.00     0.163 HD
ENDROOT
BRANCH   2   5
HETATM    5  C           1     -33.864  -4.094 -12.478  0.00  0.00     0.302 C 
BRANCH   5   6
HETATM    6  C           1     -34.857  -4.982 -11.740  0.00  0.00     0.153 C 
HETATM    7  C           1     -34.114  -5.840 -10.724  0.00  0.00     0.042 C 
BRANCH   6   8
HETATM    8  O           1     -35.797  -4.181 -11.076  0.00  0.00    -0.393 OA
HETATM    9  H           1     -35.312  -3.582 -10.534  0.00  0.00     0.210 HD
ENDBRANCH   6   8
ENDBRANCH   5   6
BRANCH   5  10
HETATM   10  N           1     -32.467  -4.555 -12.182  0.00  0.00    -0.064 N 
HETATM   11  H           1     -32.068  -3.981 -11.405  0.00  0.00     0.275 HD
HETATM   12  H           1     -32.485  -5.560 -11.897  0.00  0.00     0.275 HD
HETATM   13  H           1     -31.876  -4.445 -13.036  0.00  0.00     0.275 HD
ENDBRANCH   5  10
ENDBRANCH   2   5
BRANCH   1  14
HETATM   14  C           1     -35.050  -0.459 -12.242  0.00  0.00     0.195 C 
BRANCH  14  15
HETATM   15  C           1     -35.286   0.435 -13.451  0.00  0.00     0.149 C 
BRANCH  15  16
HETATM   16  C           1     -35.751  -0.404 -14.616  0.00  0.00     0.175 C 
HETATM   17  O           1     -34.938  -0.751 -15.500  0.00  0.00    -0.648 OA
HETATM   18  O           1     -36.949  -0.751 -14.697  0.00  0.00    -0.648 OA
ENDBRANCH  15  16
ENDBRANCH  14  15
BRANCH  14  19
HETATM   19  C           1     -36.232  -0.364 -11.307  0.00  0.00     0.197 C 
HETATM   20  O           1     -36.332   0.605 -10.524  0.00  0.00    -0.646 OA
HETATM   21  O           1     -37.109  -1.255 -11.316  0.00  0.00    -0.646 OA
ENDBRANCH  14  19
ENDBRANCH   1  14
TORSDOF 8
ENDMDL
MODEL 2
REMARK VINA RESULT:      -6.0      1.401      2.859
REMARK  8 active torsions:
REMARK  status: ('A' for Active; 'I' for Inactive)
REMARK    1  A    between atoms: N_1  and  C_8 
REMARK       I    between atoms: N_1  and  C_2 
REMARK    2  A    between atoms: C_2  and  C_3 
REMARK    3  A    between atoms: C_3  and  C_4 
REMARK    4  A    between atoms: C_3  and  N_7 
REMARK    5  A    between atoms: C_4  and  O_5 
REMARK    6  A    between atoms: C_8  and  C_10 
REMARK    7  A    between atoms: C_8  and  C_11 
REMARK    8  A    between atoms: C_10  and  C_21 
ROOT
HETATM    1  N           1     -35.178  -1.533 -12.662  0.00  0.00    -0.344 N 
HETATM    2  C           1     -34.605  -2.699 -13.093  0.00  0.00     0.251 C 
HETATM    3  O           1     -34.665  -3.006 -14.259  0.00  0.00    -0.271 OA
HETATM    4  H           1     -35.128  -1.276 -11.684  0.00  0.00     0.163 HD
ENDROOT
BRANCH   2   5
HETATM    5  C           1     -33.898  -3.600 -12.110  0.00  0.00     0.302 C 
BRANCH   5   6
HETATM    6  C           1     -34.906  -4.548 -11.474  0.00  0.00     0.153 C 
HETATM    7  C           1     -34.211  -5.392 -10.413  0.00  0.00     0.042 C 
BRANCH   6   8
HETATM    8  O           1     -35.935  -3.805 -10.878  0.00  0.00    -0.393 OA
HETATM    9  H           1     -36.094  -4.187 -10.032  0.00  0.00     0.210 HD
ENDBRANCH   6   8
ENDBRANCH   5   6
BRANCH   5  10
HETATM   10  N           1     -33.253  -2.767 -11.042  0.00  0.00    -0.064 N 
HETATM   11  H           1     -32.230  -2.975 -11.008  0.00  0.00     0.275 HD
HETATM   12  H           1     -33.396  -1.755 -11.258  0.00  0.00     0.275 HD
HETATM   13  H           1     -33.685  -2.991 -10.118  0.00  0.00     0.275 HD
ENDBRANCH   5  10
ENDBRANCH   2   5
BRANCH   1  14
HETATM   14  C           1     -35.857  -0.667 -13.605  0.00  0.00     0.195 C 
BRANCH  14  15
HETATM   15  C           1     -37.042  -0.001 -12.920  0.00  0.00     0.149 C 
BRANCH  15  16
HETATM   16  C           1     -37.019  -0.323 -11.446  0.00  0.00     0.175 C 
HETATM   17  O           1     -37.674  -1.293 -11.007  0.00  0.00    -0.648 OA
HETATM   18  O           1     -36.343   0.380 -10.663  0.00  0.00    -0.648 OA
ENDBRANCH  15  16
ENDBRANCH  14  15
BRANCH  14  19
HETATM   19  C           1     -34.899   0.391 -14.096  0.00  0.00     0.197 C 
HETATM   20  O           1     -34.594   1.350 -13.354  0.00  0.00    -0.646 OA
HETATM   21  O           1     -34.410   0.308 -15.243  0.00  0.00    -0.646 OA
ENDBRANCH  14  19
ENDBRANCH   1  14
TORSDOF 8
ENDMDL
MODEL 3
REMARK VINA RESULT:      -5.6      1.990      4.586
REMARK  8 active torsions:
REMARK  status: ('A' for Active; 'I' for Inactive)
REMARK    1  A    between atoms: N_1  and  C_8 
REMARK       I    between atoms: N_1  and  C_2 
REMARK    2  A    between atoms: C_2  and  C_3 
REMARK    3  A    between atoms: C_3  and  C_4 
REMARK    4  A    between atoms: C_3  and  N_7 
REMARK    5  A    between atoms: C_4  and  O_5 
REMARK    6  A    between atoms: C_8  and  C_10 
REMARK    7  A    between atoms: C_8  and  C_11 
REMARK    8  A    between atoms: C_10  and  C_21 
ROOT
HETATM    1  N           1     -34.829  -1.370 -13.119  0.00  0.00    -0.344 N 
HETATM    2  C           1     -35.962  -0.718 -13.526  0.00  0.00     0.251 C 
HETATM    3  O           1     -37.021  -0.960 -12.997  0.00  0.00    -0.271 OA
HETATM    4  H           1     -33.942  -1.168 -13.562  0.00  0.00     0.163 HD
ENDROOT
BRANCH   2   5
HETATM    5  C           1     -35.888   0.303 -14.634  0.00  0.00     0.302 C 
BRANCH   5   6
HETATM    6  C           1     -36.477  -0.287 -15.909  0.00  0.00     0.153 C 
HETATM    7  C           1     -35.491  -1.279 -16.512  0.00  0.00     0.042 C 
BRANCH   6   8
HETATM    8  O           1     -37.677  -0.946 -15.608  0.00  0.00    -0.393 OA
HETATM    9  H           1     -37.457  -1.676 -15.054  0.00  0.00     0.210 HD
ENDBRANCH   6   8
ENDBRANCH   5   6
BRANCH   5  10
HETATM   10  N           1     -34.455   0.677 -14.874  0.00  0.00    -0.064 N 
HETATM   11  H           1     -33.831   0.012 -14.363  0.00  0.00     0.275 HD
HETATM   12  H           1     -34.250   0.631 -15.897  0.00  0.00     0.275 HD
HETATM   13  H           1     -34.286   1.649 -14.527  0.00  0.00     0.275 HD
ENDBRANCH   5  10
ENDBRANCH   2   5
BRANCH   1  14
HETATM   14  C           1     -34.900  -2.351 -12.054  0.00  0.00     0.195 C 
BRANCH  14  15
HETATM   15  C           1     -33.919  -3.480 -12.338  0.00  0.00     0.149 C 
BRANCH  15  16
HETATM   16  C           1     -34.415  -4.298 -13.505  0.00  0.00     0.175 C 
HETATM   17  O           1     -35.078  -5.339 -13.303  0.00  0.00    -0.648 OA
HETATM   18  O           1     -34.164  -3.935 -14.674  0.00  0.00    -0.648 OA
ENDBRANCH  15  16
ENDBRANCH  14  15
BRANCH  14  19
HETATM   19  C           1     -34.546  -1.695 -10.742  0.00  0.00     0.197 C 
HETATM   20  O           1     -35.441  -1.167 -10.046  0.00  0.00    -0.646 OA
HETATM   21  O           1     -33.359  -1.679 -10.351  0.00  0.00    -0.646 OA
ENDBRANCH  14  19
ENDBRANCH   1  14
TORSDOF 8
ENDMDL
MODEL 4
REMARK VINA RESULT:      -5.6      1.910      4.833
REMARK  8 active torsions:
REMARK  status: ('A' for Active; 'I' for Inactive)
REMARK    1  A    between atoms: N_1  and  C_8 
REMARK       I    between atoms: N_1  and  C_2 
REMARK    2  A    between atoms: C_2  and  C_3 
REMARK    3  A    between atoms: C_3  and  C_4 
REMARK    4  A    between atoms: C_3  and  N_7 
REMARK    5  A    between atoms: C_4  and  O_5 
REMARK    6  A    between atoms: C_8  and  C_10 
REMARK    7  A    between atoms: C_8  and  C_11 
REMARK    8  A    between atoms: C_10  and  C_21 
ROOT
HETATM    1  N           1     -35.055  -1.748 -13.099  0.00  0.00    -0.344 N 
HETATM    2  C           1     -35.099  -0.413 -13.397  0.00  0.00     0.251 C 
HETATM    3  O           1     -34.738   0.400 -12.580  0.00  0.00    -0.271 OA
HETATM    4  H           1     -35.357  -2.430 -13.783  0.00  0.00     0.163 HD
ENDROOT
BRANCH   2   5
HETATM    5  C           1     -35.597   0.042 -14.747  0.00  0.00     0.302 C 
BRANCH   5   6
HETATM    6  C           1     -37.120   0.083 -14.739  0.00  0.00     0.153 C 
HETATM    7  C           1     -37.649  -0.457 -16.061  0.00  0.00     0.042 C 
BRANCH   6   8
HETATM    8  O           1     -37.603  -0.707 -13.686  0.00  0.00    -0.393 OA
HETATM    9  H           1     -37.541  -1.604 -13.966  0.00  0.00     0.210 HD
ENDBRANCH   6   8
ENDBRANCH   5   6
BRANCH   5  10
HETATM   10  N           1     -35.129  -0.916 -15.801  0.00  0.00    -0.064 N 
HETATM   11  H           1     -35.815  -0.929 -16.590  0.00  0.00     0.275 HD
HETATM   12  H           1     -34.195  -0.612 -16.158  0.00  0.00     0.275 HD
HETATM   13  H           1     -35.051  -1.874 -15.392  0.00  0.00     0.275 HD
ENDBRANCH   5  10
ENDBRANCH   2   5
BRANCH   1  14
HETATM   14  C           1     -34.575  -2.186 -11.802  0.00  0.00     0.195 C 
BRANCH  14  15
HETATM   15  C           1     -35.756  -2.631 -10.949  0.00  0.00     0.149 C 
BRANCH  15  16
HETATM   16  C           1     -36.512  -1.419 -10.463  0.00  0.00     0.175 C 
HETATM   17  O           1     -37.635  -1.148 -10.943  0.00  0.00    -0.648 OA
HETATM   18  O           1     -36.016  -0.685  -9.581  0.00  0.00    -0.648 OA
ENDBRANCH  15  16
ENDBRANCH  14  15
BRANCH  14  19
HETATM   19  C           1     -33.621  -3.341 -11.983  0.00  0.00     0.197 C 
HETATM   20  O           1     -33.062  -3.851 -10.988  0.00  0.00    -0.646 OA
HETATM   21  O           1     -33.391  -3.787 -13.128  0.00  0.00    -0.646 OA
ENDBRANCH  14  19
ENDBRANCH   1  14
TORSDOF 8
ENDMDL
MODEL 5
REMARK VINA RESULT:      -5.4     12.198     13.964
REMARK  8 active torsions:
REMARK  status: ('A' for Active; 'I' for Inactive)
REMARK    1  A    between atoms: N_1  and  C_8 
REMARK       I    between atoms: N_1  and  C_2 
REMARK    2  A    between atoms: C_2  and  C_3 
REMARK    3  A    between atoms: C_3  and  C_4 
REMARK    4  A    between atoms: C_3  and  N_7 
REMARK    5  A    between atoms: C_4  and  O_5 
REMARK    6  A    between atoms: C_8  and  C_10 
REMARK    7  A    between atoms: C_8  and  C_11 
REMARK    8  A    between atoms: C_10  and  C_21 
ROOT
HETATM    1  N           1     -21.848  -4.049  -9.670  0.00  0.00    -0.344 N 
HETATM    2  C           1     -20.629  -4.386  -9.147  0.00  0.00     0.251 C 
HETATM    3  O           1     -19.843  -5.022  -9.808  0.00  0.00    -0.271 OA
HETATM    4  H           1     -22.506  -3.517  -9.116  0.00  0.00     0.163 HD
ENDROOT
BRANCH   2   5
HETATM    5  C           1     -20.267  -3.964  -7.744  0.00  0.00     0.302 C 
BRANCH   5   6
HETATM    6  C           1     -19.946  -5.196  -6.909  0.00  0.00     0.153 C 
HETATM    7  C           1     -20.257  -4.911  -5.445  0.00  0.00     0.042 C 
BRANCH   6   8
HETATM    8  O           1     -20.725  -6.276  -7.350  0.00  0.00    -0.393 OA
HETATM    9  H           1     -20.275  -6.656  -8.084  0.00  0.00     0.210 HD
ENDBRANCH   6   8
ENDBRANCH   5   6
BRANCH   5  10
HETATM   10  N           1     -21.422  -3.231  -7.130  0.00  0.00    -0.064 N 
HETATM   11  H           1     -21.991  -3.894  -6.556  0.00  0.00     0.275 HD
HETATM   12  H           1     -21.062  -2.463  -6.519  0.00  0.00     0.275 HD
HETATM   13  H           1     -22.019  -2.825  -7.885  0.00  0.00     0.275 HD
ENDBRANCH   5  10
ENDBRANCH   2   5
BRANCH   1  14
HETATM   14  C           1     -22.196  -4.455 -11.018  0.00  0.00     0.195 C 
BRANCH  14  15
HETATM   15  C           1     -23.661  -4.866 -11.061  0.00  0.00     0.149 C 
BRANCH  15  16
HETATM   16  C           1     -24.518  -3.732 -10.556  0.00  0.00     0.175 C 
HETATM   17  O           1     -25.186  -3.046 -11.360  0.00  0.00    -0.648 OA
HETATM   18  O           1     -24.560  -3.478  -9.333  0.00  0.00    -0.648 OA
ENDBRANCH  15  16
ENDBRANCH  14  15
BRANCH  14  19
HETATM   19  C           1     -21.968  -3.302 -11.964  0.00  0.00     0.197 C 
HETATM   20  O           1     -21.387  -2.270 -11.563  0.00  0.00    -0.646 OA
HETATM   21  O           1     -22.359  -3.379 -13.149  0.00  0.00    -0.646 OA
ENDBRANCH  14  19
ENDBRANCH   1  14
TORSDOF 8
ENDMDL
MODEL 6
REMARK VINA RESULT:      -5.3     12.287     14.029
REMARK  8 active torsions:
REMARK  status: ('A' for Active; 'I' for Inactive)
REMARK    1  A    between atoms: N_1  and  C_8 
REMARK       I    between atoms: N_1  and  C_2 
REMARK    2  A    between atoms: C_2  and  C_3 
REMARK    3  A    between atoms: C_3  and  C_4 
REMARK    4  A    between atoms: C_3  and  N_7 
REMARK    5  A    between atoms: C_4  and  O_5 
REMARK    6  A    between atoms: C_8  and  C_10 
REMARK    7  A    between atoms: C_8  and  C_11 
REMARK    8  A    between atoms: C_10  and  C_21 
ROOT
HETATM    1  N           1     -22.603  -4.565  -7.991  0.00  0.00    -0.344 N 
HETATM    2  C           1     -21.529  -4.293  -7.187  0.00  0.00     0.251 C 
HETATM    3  O           1     -20.757  -3.413  -7.489  0.00  0.00    -0.271 OA
HETATM    4  H           1     -23.249  -5.302  -7.739  0.00  0.00     0.163 HD
ENDROOT
BRANCH   2   5
HETATM    5  C           1     -21.309  -5.090  -5.925  0.00  0.00     0.302 C 
BRANCH   5   6
HETATM    6  C           1     -20.201  -6.110  -6.155  0.00  0.00     0.153 C 
HETATM    7  C           1     -20.580  -7.428  -5.493  0.00  0.00     0.042 C 
BRANCH   6   8
HETATM    8  O           1     -20.029  -6.311  -7.532  0.00  0.00    -0.393 OA
HETATM    9  H           1     -20.077  -5.464  -7.941  0.00  0.00     0.210 HD
ENDBRANCH   6   8
ENDBRANCH   5   6
BRANCH   5  10
HETATM   10  N           1     -22.576  -5.804  -5.559  0.00  0.00    -0.064 N 
HETATM   11  H           1     -22.694  -6.642  -6.172  0.00  0.00     0.275 HD
HETATM   12  H           1     -22.528  -6.108  -4.560  0.00  0.00     0.275 HD
HETATM   13  H           1     -23.389  -5.161  -5.689  0.00  0.00     0.275 HD
ENDBRANCH   5  10
ENDBRANCH   2   5
BRANCH   1  14
HETATM   14  C           1     -22.814  -3.799  -9.203  0.00  0.00     0.195 C 
BRANCH  14  15
HETATM   15  C           1     -22.013  -4.418 -10.341  0.00  0.00     0.149 C 
BRANCH  15  16
HETATM   16  C           1     -21.493  -3.327 -11.244  0.00  0.00     0.175 C 
HETATM   17  O           1     -20.306  -2.947 -11.148  0.00  0.00    -0.648 OA
HETATM   18  O           1     -22.251  -2.802 -12.089  0.00  0.00    -0.648 OA
ENDBRANCH  15  16
ENDBRANCH  14  15
BRANCH  14  19
HETATM   19  C           1     -24.282  -3.812  -9.556  0.00  0.00     0.197 C 
HETATM   20  O           1     -24.824  -4.874  -9.933  0.00  0.00    -0.646 OA
HETATM   21  O           1     -24.954  -2.762  -9.471  0.00  0.00    -0.646 OA
ENDBRANCH  14  19
ENDBRANCH   1  14
TORSDOF 8
ENDMDL
MODEL 7
REMARK VINA RESULT:      -5.1      2.350      4.953
REMARK  8 active torsions:
REMARK  status: ('A' for Active; 'I' for Inactive)
REMARK    1  A    between atoms: N_1  and  C_8 
REMARK       I    between atoms: N_1  and  C_2 
REMARK    2  A    between atoms: C_2  and  C_3 
REMARK    3  A    between atoms: C_3  and  C_4 
REMARK    4  A    between atoms: C_3  and  N_7 
REMARK    5  A    between atoms: C_4  and  O_5 
REMARK    6  A    between atoms: C_8  and  C_10 
REMARK    7  A    between atoms: C_8  and  C_11 
REMARK    8  A    between atoms: C_10  and  C_21 
ROOT
HETATM    1  N           1     -36.068  -0.322 -12.033  0.00  0.00    -0.344 N 
HETATM    2  C           1     -36.594  -0.299 -13.296  0.00  0.00     0.251 C 
HETATM    3  O           1     -37.715  -0.706 -13.491  0.00  0.00    -0.271 OA
HETATM    4  H           1     -35.129   0.018 -11.869  0.00  0.00     0.163 HD
ENDROOT
BRANCH   2   5
HETATM    5  C           1     -35.774   0.236 -14.445  0.00  0.00     0.302 C 
BRANCH   5   6
HETATM    6  C           1     -36.700   0.845 -15.489  0.00  0.00     0.153 C 
HETATM    7  C           1     -36.040   2.076 -16.096  0.00  0.00     0.042 C 
BRANCH   6   8
HETATM    8  O           1     -36.949  -0.096 -16.499  0.00  0.00    -0.393 OA
HETATM    9  H           1     -37.881  -0.231 -16.523  0.00  0.00     0.210 HD
ENDBRANCH   6   8
ENDBRANCH   5   6
BRANCH   5  10
HETATM   10  N           1     -34.992  -0.884 -15.063  0.00  0.00    -0.064 N 
HETATM   11  H           1     -35.629  -1.478 -15.641  0.00  0.00     0.275 HD
HETATM   12  H           1     -34.239  -0.488 -15.671  0.00  0.00     0.275 HD
HETATM   13  H           1     -34.561  -1.466 -14.310  0.00  0.00     0.275 HD
ENDBRANCH   5  10
ENDBRANCH   2   5
BRANCH   1  14
HETATM   14  C           1     -36.855  -0.836 -10.929  0.00  0.00     0.195 C 
BRANCH  14  15
HETATM   15  C           1     -36.177  -2.072 -10.354  0.00  0.00     0.149 C 
BRANCH  15  16
HETATM   16  C           1     -34.818  -2.242 -10.988  0.00  0.00     0.175 C 
HETATM   17  O           1     -34.690  -2.946 -12.013  0.00  0.00    -0.648 OA
HETATM   18  O           1     -33.820  -1.678 -10.488  0.00  0.00    -0.648 OA
ENDBRANCH  15  16
ENDBRANCH  14  15
BRANCH  14  19
HETATM   19  C           1     -36.968   0.221  -9.858  0.00  0.00     0.197 C 
HETATM   20  O           1     -37.804   1.144  -9.976  0.00  0.00    -0.646 OA
HETATM   21  O           1     -36.226   0.174  -8.853  0.00  0.00    -0.646 OA
ENDBRANCH  14  19
ENDBRANCH   1  14
TORSDOF 8
ENDMDL
MODEL 8
REMARK VINA RESULT:      -5.1      1.949      4.826
REMARK  8 active torsions:
REMARK  status: ('A' for Active; 'I' for Inactive)
REMARK    1  A    between atoms: N_1  and  C_8 
REMARK       I    between atoms: N_1  and  C_2 
REMARK    2  A    between atoms: C_2  and  C_3 
REMARK    3  A    between atoms: C_3  and  C_4 
REMARK    4  A    between atoms: C_3  and  N_7 
REMARK    5  A    between atoms: C_4  and  O_5 
REMARK    6  A    between atoms: C_8  and  C_10 
REMARK    7  A    between atoms: C_8  and  C_11 
REMARK    8  A    between atoms: C_10  and  C_21 
ROOT
HETATM    1  N           1     -35.020  -1.838 -12.871  0.00  0.00    -0.344 N 
HETATM    2  C           1     -35.873  -1.113 -13.658  0.00  0.00     0.251 C 
HETATM    3  O           1     -37.008  -0.915 -13.295  0.00  0.00    -0.271 OA
HETATM    4  H           1     -34.069  -2.005 -13.176  0.00  0.00     0.163 HD
ENDROOT
BRANCH   2   5
HETATM    5  C           1     -35.397  -0.561 -14.979  0.00  0.00     0.302 C 
BRANCH   5   6
HETATM    6  C           1     -34.838   0.840 -14.773  0.00  0.00     0.153 C 
HETATM    7  C           1     -35.720   1.850 -15.497  0.00  0.00     0.042 C 
BRANCH   6   8
HETATM    8  O           1     -34.816   1.138 -13.403  0.00  0.00    -0.393 OA
HETATM    9  H           1     -34.863   0.318 -12.944  0.00  0.00     0.210 HD
ENDBRANCH   6   8
ENDBRANCH   5   6
BRANCH   5  10
HETATM   10  N           1     -36.547  -0.504 -15.941  0.00  0.00    -0.064 N 
HETATM   11  H           1     -37.117   0.351 -15.751  0.00  0.00     0.275 HD
HETATM   12  H           1     -36.181  -0.468 -16.919  0.00  0.00     0.275 HD
HETATM   13  H           1     -37.143  -1.354 -15.822  0.00  0.00     0.275 HD
ENDBRANCH   5  10
ENDBRANCH   2   5
BRANCH   1  14
HETATM   14  C           1     -35.477  -2.368 -11.602  0.00  0.00     0.195 C 
BRANCH  14  15
HETATM   15  C           1     -35.024  -3.816 -11.464  0.00  0.00     0.149 C 
BRANCH  15  16
HETATM   16  C           1     -34.107  -4.168 -12.609  0.00  0.00     0.175 C 
HETATM   17  O           1     -32.867  -4.142 -12.448  0.00  0.00    -0.648 OA
HETATM   18  O           1     -34.586  -4.486 -13.719  0.00  0.00    -0.648 OA
ENDBRANCH  15  16
ENDBRANCH  14  15
BRANCH  14  19
HETATM   19  C           1     -34.894  -1.549 -10.476  0.00  0.00     0.197 C 
HETATM   20  O           1     -33.717  -1.746 -10.105  0.00  0.00    -0.646 OA
HETATM   21  O           1     -35.589  -0.674  -9.916  0.00  0.00    -0.646 OA
ENDBRANCH  14  19
ENDBRANCH   1  14
TORSDOF 8
ENDMDL
MODEL 9
REMARK VINA RESULT:      -4.7      1.970      4.603
REMARK  8 active torsions:
REMARK  status: ('A' for Active; 'I' for Inactive)
REMARK    1  A    between atoms: N_1  and  C_8 
REMARK       I    between atoms: N_1  and  C_2 
REMARK    2  A    between atoms: C_2  and  C_3 
REMARK    3  A    between atoms: C_3  and  C_4 
REMARK    4  A    between atoms: C_3  and  N_7 
REMARK    5  A    between atoms: C_4  and  O_5 
REMARK    6  A    between atoms: C_8  and  C_10 
REMARK    7  A    between atoms: C_8  and  C_11 
REMARK    8  A    between atoms: C_10  and  C_21 
ROOT
HETATM    1  N           1     -35.608  -1.739 -12.870  0.00  0.00    -0.344 N 
HETATM    2  C           1     -35.235  -0.470 -13.222  0.00  0.00     0.251 C 
HETATM    3  O           1     -34.809   0.288 -12.384  0.00  0.00    -0.271 OA
HETATM    4  H           1     -35.966  -2.374 -13.572  0.00  0.00     0.163 HD
ENDROOT
BRANCH   2   5
HETATM    5  C           1     -35.355  -0.019 -14.657  0.00  0.00     0.302 C 
BRANCH   5   6
HETATM    6  C           1     -36.787   0.421 -14.933  0.00  0.00     0.153 C 
HETATM    7  C           1     -37.380  -0.443 -16.038  0.00  0.00     0.042 C 
BRANCH   6   8
HETATM    8  O           1     -37.553   0.280 -13.767  0.00  0.00    -0.393 OA
HETATM    9  H           1     -38.133  -0.449 -13.908  0.00  0.00     0.210 HD
ENDBRANCH   6   8
ENDBRANCH   5   6
BRANCH   5  10
HETATM   10  N           1     -34.998  -1.155 -15.569  0.00  0.00    -0.064 N 
HETATM   11  H           1     -34.243  -0.852 -16.225  0.00  0.00     0.275 HD
HETATM   12  H           1     -34.661  -1.965 -15.001  0.00  0.00     0.275 HD
HETATM   13  H           1     -35.841  -1.440 -16.118  0.00  0.00     0.275 HD
ENDBRANCH   5  10
ENDBRANCH   2   5
BRANCH   1  14
HETATM   14  C           1     -35.493  -2.173 -11.491  0.00  0.00     0.195 C 
BRANCH  14  15
HETATM   15  C           1     -34.043  -2.051 -11.041  0.00  0.00     0.149 C 
BRANCH  15  16
HETATM   16  C           1     -33.405  -3.418 -11.022  0.00  0.00     0.175 C 
HETATM   17  O           1     -32.403  -3.652 -11.732  0.00  0.00    -0.648 OA
HETATM   18  O           1     -33.878  -4.318 -10.294  0.00  0.00    -0.648 OA
ENDBRANCH  15  16
ENDBRANCH  14  15
BRANCH  14  19
HETATM   19  C           1     -36.366  -1.306 -10.618  0.00  0.00     0.197 C 
HETATM   20  O           1     -37.570  -1.138 -10.909  0.00  0.00    -0.646 OA
HETATM   21  O           1     -35.885  -0.756  -9.603  0.00  0.00    -0.646 OA
ENDBRANCH  14  19
ENDBRANCH   1  14
TORSDOF 8
ENDMDL
