MODEL 1
REMARK VINA RESULT:      -5.6      0.000      0.000
REMARK  8 active torsions:
REMARK  status: ('A' for Active; 'I' for Inactive)
REMARK       I    between atoms: C_2  and  N_3 
REMARK    1  A    between atoms: C_2  and  C_18 
REMARK    2  A    between atoms: N_3  and  C_14 
REMARK    3  A    between atoms: Se_6  and  C_20 
REMARK    4  A    between atoms: C_9  and  C_18 
REMARK    5  A    between atoms: C_9  and  C_13 
REMARK    6  A    between atoms: N_11  and  C_18 
REMARK    7  A    between atoms: C_14  and  C_20 
REMARK    8  A    between atoms: C_14  and  C_17 
ROOT
HETATM    1  C           1     -34.490  -2.416 -12.462  0.00  0.00     0.249 C 
HETATM    2  N           1     -35.163  -1.228 -12.367  0.00  0.00    -0.345 N 
HETATM    3  H           1     -35.148  -0.705 -11.500  0.00  0.00     0.163 HD
HETATM    4  O           1     -34.507  -3.039 -13.496  0.00  0.00    -0.271 OA
ENDROOT
BRANCH   1   5
HETATM    5  C           1     -33.727  -2.946 -11.274  0.00  0.00     0.284 C 
BRANCH   5   6
HETATM    6  C           1     -34.441  -4.172 -10.717  0.00  0.00     0.155 C 
BRANCH   6   7
HETATM    7  C           1     -33.641  -5.410 -11.038  0.00  0.00     0.175 C 
HETATM    8  O           1     -34.077  -6.537 -10.718  0.00  0.00    -0.648 OA
HETATM    9  O           1     -32.542  -5.308 -11.624  0.00  0.00    -0.648 OA
ENDBRANCH   6   7
ENDBRANCH   5   6
BRANCH   5  10
HETATM   10  N           1     -33.652  -1.888 -10.214  0.00  0.00    -0.066 N 
HETATM   11  H           1     -33.117  -1.067 -10.579  0.00  0.00     0.275 HD
HETATM   12  H           1     -33.168  -2.274  -9.371  0.00  0.00     0.275 HD
HETATM   13  H           1     -34.618  -1.586  -9.953  0.00  0.00     0.275 HD
ENDBRANCH   5  10
ENDBRANCH   1   5
BRANCH   2  14
HETATM   14  C           1     -35.897  -0.718 -13.509  0.00  0.00     0.185 C 
BRANCH  14  15
HETATM   15  C           1     -37.195  -0.077 -13.032  0.00  0.00     0.039 C 
BRANCH  15  16
HETATM   16 Se           1     -37.284  -0.155 -11.087  0.00  0.00     0.000 Se
HETATM   17  H           1     -35.921  -0.689 -10.931  0.00  0.00     0.000 HD
ENDBRANCH  15  16
ENDBRANCH  14  15
BRANCH  14  18
HETATM   18  C           1     -35.060   0.314 -14.225  0.00  0.00     0.196 C 
HETATM   19  O           1     -34.752   1.378 -13.648  0.00  0.00    -0.646 OA
HETATM   20  O           1     -34.676   0.103 -15.396  0.00  0.00    -0.646 OA
ENDBRANCH  14  18
ENDBRANCH   2  14
TORSDOF 8
ENDMDL
MODEL 2
REMARK VINA RESULT:      -5.6     11.933     13.773
REMARK  8 active torsions:
REMARK  status: ('A' for Active; 'I' for Inactive)
REMARK       I    between atoms: C_2  and  N_3 
REMARK    1  A    between atoms: C_2  and  C_18 
REMARK    2  A    between atoms: N_3  and  C_14 
REMARK    3  A    between atoms: Se_6  and  C_20 
REMARK    4  A    between atoms: C_9  and  C_18 
REMARK    5  A    between atoms: C_9  and  C_13 
REMARK    6  A    between atoms: N_11  and  C_18 
REMARK    7  A    between atoms: C_14  and  C_20 
REMARK    8  A    between atoms: C_14  and  C_17 
ROOT
HETATM    1  C           1     -22.612  -3.974 -10.580  0.00  0.00     0.249 C 
HETATM    2  N           1     -21.554  -3.971  -9.712  0.00  0.00    -0.345 N 
HETATM    3  H           1     -20.771  -3.350  -9.870  0.00  0.00     0.163 HD
HETATM    4  O           1     -23.548  -4.714 -10.392  0.00  0.00    -0.271 OA
ENDROOT
BRANCH   1   5
HETATM    5  C           1     -22.609  -3.052 -11.775  0.00  0.00     0.284 C 
BRANCH   5   6
HETATM    6  C           1     -24.017  -2.962 -12.351  0.00  0.00     0.155 C 
BRANCH   6   7
HETATM    7  C           1     -23.938  -2.824 -13.851  0.00  0.00     0.175 C 
HETATM    8  O           1     -24.013  -3.839 -14.578  0.00  0.00    -0.648 OA
HETATM    9  O           1     -23.798  -1.695 -14.367  0.00  0.00    -0.648 OA
ENDBRANCH   6   7
ENDBRANCH   5   6
BRANCH   5  10
HETATM   10  N           1     -21.675  -3.589 -12.819  0.00  0.00    -0.066 N 
HETATM   11  H           1     -22.158  -3.596 -13.746  0.00  0.00     0.275 HD
HETATM   12  H           1     -21.393  -4.562 -12.564  0.00  0.00     0.275 HD
HETATM   13  H           1     -20.826  -2.982 -12.873  0.00  0.00     0.275 HD
ENDBRANCH   5  10
ENDBRANCH   1   5
BRANCH   2  14
HETATM   14  C           1     -21.557  -4.857  -8.564  0.00  0.00     0.185 C 
BRANCH  14  15
HETATM   15  C           1     -20.132  -5.305  -8.266  0.00  0.00     0.039 C 
BRANCH  15  16
HETATM   16 Se           1     -20.098  -6.296  -6.588  0.00  0.00     0.000 Se
HETATM   17  H           1     -18.739  -5.864  -6.226  0.00  0.00     0.000 HD
ENDBRANCH  15  16
ENDBRANCH  14  15
BRANCH  14  18
HETATM   18  C           1     -22.116  -4.128  -7.367  0.00  0.00     0.196 C 
HETATM   19  O           1     -23.176  -4.522  -6.836  0.00  0.00    -0.646 OA
HETATM   20  O           1     -21.518  -3.131  -6.907  0.00  0.00    -0.646 OA
ENDBRANCH  14  18
ENDBRANCH   2  14
TORSDOF 8
ENDMDL
MODEL 3
REMARK VINA RESULT:      -5.5      2.763      5.796
REMARK  8 active torsions:
REMARK  status: ('A' for Active; 'I' for Inactive)
REMARK       I    between atoms: C_2  and  N_3 
REMARK    1  A    between atoms: C_2  and  C_18 
REMARK    2  A    between atoms: N_3  and  C_14 
REMARK    3  A    between atoms: Se_6  and  C_20 
REMARK    4  A    between atoms: C_9  and  C_18 
REMARK    5  A    between atoms: C_9  and  C_13 
REMARK    6  A    between atoms: N_11  and  C_18 
REMARK    7  A    between atoms: C_14  and  C_20 
REMARK    8  A    between atoms: C_14  and  C_17 
ROOT
HETATM    1  C           1     -35.960  -1.128 -12.697  0.00  0.00     0.249 C 
HETATM    2  N           1     -34.963  -2.044 -12.898  0.00  0.00    -0.345 N 
HETATM    3  H           1     -34.410  -2.012 -13.745  0.00  0.00     0.163 HD
HETATM    4  O           1     -36.620  -1.164 -11.686  0.00  0.00    -0.271 OA
ENDROOT
BRANCH   1   5
HETATM    5  C           1     -36.234  -0.071 -13.738  0.00  0.00     0.284 C 
BRANCH   5   6
HETATM    6  C           1     -37.644  -0.252 -14.287  0.00  0.00     0.155 C 
BRANCH   6   7
HETATM    7  C           1     -37.649   0.035 -15.768  0.00  0.00     0.175 C 
HETATM    8  O           1     -37.666   1.216 -16.177  0.00  0.00    -0.648 OA
HETATM    9  O           1     -37.636  -0.910 -16.586  0.00  0.00    -0.648 OA
ENDBRANCH   6   7
ENDBRANCH   5   6
BRANCH   5  10
HETATM   10  N           1     -35.243  -0.203 -14.857  0.00  0.00    -0.066 N 
HETATM   11  H           1     -35.740  -0.493 -15.730  0.00  0.00     0.275 HD
HETATM   12  H           1     -34.529  -0.924 -14.605  0.00  0.00     0.275 HD
HETATM   13  H           1     -34.770   0.716 -15.014  0.00  0.00     0.275 HD
ENDBRANCH   5  10
ENDBRANCH   1   5
BRANCH   2  14
HETATM   14  C           1     -34.700  -3.059 -11.897  0.00  0.00     0.185 C 
BRANCH  14  15
HETATM   15  C           1     -34.491  -4.404 -12.581  0.00  0.00     0.039 C 
BRANCH  15  16
HETATM   16 Se           1     -34.470  -5.820 -11.242  0.00  0.00     0.000 Se
HETATM   17  H           1     -33.145  -6.327 -11.632  0.00  0.00     0.000 HD
ENDBRANCH  15  16
ENDBRANCH  14  15
BRANCH  14  18
HETATM   18  C           1     -33.459  -2.692 -11.121  0.00  0.00     0.196 C 
HETATM   19  O           1     -32.368  -3.236 -11.394  0.00  0.00    -0.646 OA
HETATM   20  O           1     -33.522  -1.843 -10.206  0.00  0.00    -0.646 OA
ENDBRANCH  14  18
ENDBRANCH   2  14
TORSDOF 8
ENDMDL
MODEL 4
REMARK VINA RESULT:      -5.5     12.277     13.826
REMARK  8 active torsions:
REMARK  status: ('A' for Active; 'I' for Inactive)
REMARK       I    between atoms: C_2  and  N_3 
REMARK    1  A    between atoms: C_2  and  C_18 
REMARK    2  A    between atoms: N_3  and  C_14 
REMARK    3  A    between atoms: Se_6  and  C_20 
REMARK    4  A    between atoms: C_9  and  C_18 
REMARK    5  A    between atoms: C_9  and  C_13 
REMARK    6  A    between atoms: N_11  and  C_18 
REMARK    7  A    between atoms: C_14  and  C_20 
REMARK    8  A    between atoms: C_14  and  C_17 
ROOT
HETATM    1  C           1     -21.596  -4.379  -7.496  0.00  0.00     0.249 C 
HETATM    2  N           1     -22.163  -4.771  -8.679  0.00  0.00    -0.345 N 
HETATM    3  H           1     -22.228  -5.754  -8.908  0.00  0.00     0.163 HD
HETATM    4  O           1     -21.520  -3.206  -7.221  0.00  0.00    -0.271 OA
ENDROOT
BRANCH   1   5
HETATM    5  C           1     -21.067  -5.415  -6.534  0.00  0.00     0.284 C 
BRANCH   5   6
HETATM    6  C           1     -22.223  -5.998  -5.730  0.00  0.00     0.155 C 
BRANCH   6   7
HETATM    7  C           1     -21.706  -6.516  -4.410  0.00  0.00     0.175 C 
HETATM    8  O           1     -20.889  -7.462  -4.386  0.00  0.00    -0.648 OA
HETATM    9  O           1     -22.096  -6.000  -3.341  0.00  0.00    -0.648 OA
ENDBRANCH   6   7
ENDBRANCH   5   6
BRANCH   5  10
HETATM   10  N           1     -20.083  -4.774  -5.601  0.00  0.00    -0.066 N 
HETATM   11  H           1     -19.867  -3.807  -5.933  0.00  0.00     0.275 HD
HETATM   12  H           1     -19.205  -5.341  -5.581  0.00  0.00     0.275 HD
HETATM   13  H           1     -20.492  -4.729  -4.640  0.00  0.00     0.275 HD
ENDBRANCH   5  10
ENDBRANCH   1   5
BRANCH   2  14
HETATM   14  C           1     -22.671  -3.775  -9.602  0.00  0.00     0.185 C 
BRANCH  14  15
HETATM   15  C           1     -22.078  -4.017 -10.985  0.00  0.00     0.039 C 
BRANCH  15  16
HETATM   16 Se           1     -22.852  -2.758 -12.255  0.00  0.00     0.000 Se
HETATM   17  H           1     -23.100  -3.775 -13.289  0.00  0.00     0.000 HD
ENDBRANCH  15  16
ENDBRANCH  14  15
BRANCH  14  18
HETATM   18  C           1     -24.175  -3.878  -9.675  0.00  0.00     0.196 C 
HETATM   19  O           1     -24.880  -2.869  -9.458  0.00  0.00    -0.646 OA
HETATM   20  O           1     -24.715  -4.971  -9.952  0.00  0.00    -0.646 OA
ENDBRANCH  14  18
ENDBRANCH   2  14
TORSDOF 8
ENDMDL
MODEL 5
REMARK VINA RESULT:      -5.4     12.550     13.958
REMARK  8 active torsions:
REMARK  status: ('A' for Active; 'I' for Inactive)
REMARK       I    between atoms: C_2  and  N_3 
REMARK    1  A    between atoms: C_2  and  C_18 
REMARK    2  A    between atoms: N_3  and  C_14 
REMARK    3  A    between atoms: Se_6  and  C_20 
REMARK    4  A    between atoms: C_9  and  C_18 
REMARK    5  A    between atoms: C_9  and  C_13 
REMARK    6  A    between atoms: N_11  and  C_18 
REMARK    7  A    between atoms: C_14  and  C_20 
REMARK    8  A    between atoms: C_14  and  C_17 
ROOT
HETATM    1  C           1     -20.639  -4.290  -9.223  0.00  0.00     0.249 C 
HETATM    2  N           1     -21.870  -3.943  -9.712  0.00  0.00    -0.345 N 
HETATM    3  H           1     -22.497  -3.380  -9.152  0.00  0.00     0.163 HD
HETATM    4  O           1     -19.889  -4.961  -9.891  0.00  0.00    -0.271 OA
ENDROOT
BRANCH   1   5
HETATM    5  C           1     -20.219  -3.833  -7.848  0.00  0.00     0.284 C 
BRANCH   5   6
HETATM    6  C           1     -19.465  -4.957  -7.147  0.00  0.00     0.155 C 
BRANCH   6   7
HETATM    7  C           1     -20.426  -5.760  -6.307  0.00  0.00     0.175 C 
HETATM    8  O           1     -20.600  -5.468  -5.104  0.00  0.00    -0.648 OA
HETATM    9  O           1     -21.047  -6.719  -6.813  0.00  0.00    -0.648 OA
ENDBRANCH   6   7
ENDBRANCH   5   6
BRANCH   5  10
HETATM   10  N           1     -21.435  -3.474  -7.047  0.00  0.00    -0.066 N 
HETATM   11  H           1     -21.547  -2.434  -7.031  0.00  0.00     0.275 HD
HETATM   12  H           1     -21.324  -3.828  -6.070  0.00  0.00     0.275 HD
HETATM   13  H           1     -22.280  -3.908  -7.482  0.00  0.00     0.275 HD
ENDBRANCH   5  10
ENDBRANCH   1   5
BRANCH   2  14
HETATM   14  C           1     -22.273  -4.382 -11.034  0.00  0.00     0.185 C 
BRANCH  14  15
HETATM   15  C           1     -23.734  -4.815 -11.000  0.00  0.00     0.039 C 
BRANCH  15  16
HETATM   16 Se           1     -24.750  -3.590  -9.875  0.00  0.00     0.000 Se
HETATM   17  H           1     -25.036  -4.595  -8.840  0.00  0.00     0.000 HD
ENDBRANCH  15  16
ENDBRANCH  14  15
BRANCH  14  18
HETATM   18  C           1     -22.107  -3.247 -12.014  0.00  0.00     0.196 C 
HETATM   19  O           1     -22.641  -3.313 -13.142  0.00  0.00    -0.646 OA
HETATM   20  O           1     -21.436  -2.241 -11.697  0.00  0.00    -0.646 OA
ENDBRANCH  14  18
ENDBRANCH   2  14
TORSDOF 8
ENDMDL
MODEL 6
REMARK VINA RESULT:      -5.2     11.979     13.953
REMARK  8 active torsions:
REMARK  status: ('A' for Active; 'I' for Inactive)
REMARK       I    between atoms: C_2  and  N_3 
REMARK    1  A    between atoms: C_2  and  C_18 
REMARK    2  A    between atoms: N_3  and  C_14 
REMARK    3  A    between atoms: Se_6  and  C_20 
REMARK    4  A    between atoms: C_9  and  C_18 
REMARK    5  A    between atoms: C_9  and  C_13 
REMARK    6  A    between atoms: N_11  and  C_18 
REMARK    7  A    between atoms: C_14  and  C_20 
REMARK    8  A    between atoms: C_14  and  C_17 
ROOT
HETATM    1  C           1     -23.271  -4.502  -8.938  0.00  0.00     0.249 C 
HETATM    2  N           1     -21.960  -4.895  -8.966  0.00  0.00    -0.345 N 
HETATM    3  H           1     -21.564  -5.278  -9.815  0.00  0.00     0.163 HD
HETATM    4  O           1     -23.743  -4.044  -7.925  0.00  0.00    -0.271 OA
ENDROOT
BRANCH   1   5
HETATM    5  C           1     -24.125  -4.638 -10.174  0.00  0.00     0.284 C 
BRANCH   5   6
HETATM    6  C           1     -23.236  -4.625 -11.411  0.00  0.00     0.155 C 
BRANCH   6   7
HETATM    7  C           1     -23.585  -3.435 -12.269  0.00  0.00     0.175 C 
HETATM    8  O           1     -24.473  -3.533 -13.144  0.00  0.00    -0.648 OA
HETATM    9  O           1     -22.985  -2.350 -12.106  0.00  0.00    -0.648 OA
ENDBRANCH   6   7
ENDBRANCH   5   6
BRANCH   5  10
HETATM   10  N           1     -25.092  -3.493 -10.242  0.00  0.00    -0.066 N 
HETATM   11  H           1     -24.568  -2.605 -10.410  0.00  0.00     0.275 HD
HETATM   12  H           1     -25.614  -3.426  -9.339  0.00  0.00     0.275 HD
HETATM   13  H           1     -25.767  -3.653 -11.024  0.00  0.00     0.275 HD
ENDBRANCH   5  10
ENDBRANCH   1   5
BRANCH   2  14
HETATM   14  C           1     -21.139  -4.764  -7.778  0.00  0.00     0.185 C 
BRANCH  14  15
HETATM   15  C           1     -20.996  -6.124  -7.108  0.00  0.00     0.039 C 
BRANCH  15  16
HETATM   16 Se           1     -21.419  -5.963  -5.212  0.00  0.00     0.000 Se
HETATM   17  H           1     -20.503  -7.038  -4.798  0.00  0.00     0.000 HD
ENDBRANCH  15  16
ENDBRANCH  14  15
BRANCH  14  18
HETATM   18  C           1     -19.774  -4.248  -8.165  0.00  0.00     0.196 C 
HETATM   19  O           1     -18.796  -4.448  -7.414  0.00  0.00    -0.646 OA
HETATM   20  O           1     -19.623  -3.620  -9.235  0.00  0.00    -0.646 OA
ENDBRANCH  14  18
ENDBRANCH   2  14
TORSDOF 8
ENDMDL
MODEL 7
REMARK VINA RESULT:      -5.2      4.508      5.481
REMARK  8 active torsions:
REMARK  status: ('A' for Active; 'I' for Inactive)
REMARK       I    between atoms: C_2  and  N_3 
REMARK    1  A    between atoms: C_2  and  C_18 
REMARK    2  A    between atoms: N_3  and  C_14 
REMARK    3  A    between atoms: Se_6  and  C_20 
REMARK    4  A    between atoms: C_9  and  C_18 
REMARK    5  A    between atoms: C_9  and  C_13 
REMARK    6  A    between atoms: N_11  and  C_18 
REMARK    7  A    between atoms: C_14  and  C_20 
REMARK    8  A    between atoms: C_14  and  C_17 
ROOT
HETATM    1  C           1     -33.850  -4.495 -15.453  0.00  0.00     0.249 C 
HETATM    2  N           1     -33.304  -4.043 -14.282  0.00  0.00    -0.345 N 
HETATM    3  H           1     -32.348  -3.711 -14.264  0.00  0.00     0.163 HD
HETATM    4  O           1     -34.991  -4.892 -15.475  0.00  0.00    -0.271 OA
ENDROOT
BRANCH   1   5
HETATM    5  C           1     -33.027  -4.497 -16.717  0.00  0.00     0.284 C 
BRANCH   5   6
HETATM    6  C           1     -31.557  -4.698 -16.366  0.00  0.00     0.155 C 
BRANCH   6   7
HETATM    7  C           1     -30.968  -5.762 -17.258  0.00  0.00     0.175 C 
HETATM    8  O           1     -29.919  -5.531 -17.898  0.00  0.00    -0.648 OA
HETATM    9  O           1     -31.529  -6.874 -17.357  0.00  0.00    -0.648 OA
ENDBRANCH   6   7
ENDBRANCH   5   6
BRANCH   5  10
HETATM   10  N           1     -33.196  -3.186 -17.426  0.00  0.00    -0.066 N 
HETATM   11  H           1     -34.143  -2.797 -17.216  0.00  0.00     0.275 HD
HETATM   12  H           1     -33.099  -3.334 -18.456  0.00  0.00     0.275 HD
HETATM   13  H           1     -32.464  -2.516 -17.100  0.00  0.00     0.275 HD
ENDBRANCH   5  10
ENDBRANCH   1   5
BRANCH   2  14
HETATM   14  C           1     -34.095  -4.042 -13.067  0.00  0.00     0.185 C 
BRANCH  14  15
HETATM   15  C           1     -33.249  -4.560 -11.910  0.00  0.00     0.039 C 
BRANCH  15  16
HETATM   16 Se           1     -34.260  -5.894 -10.911  0.00  0.00     0.000 Se
HETATM   17  H           1     -35.347  -4.970 -10.552  0.00  0.00     0.000 HD
ENDBRANCH  15  16
ENDBRANCH  14  15
BRANCH  14  18
HETATM   18  C           1     -34.551  -2.635 -12.766  0.00  0.00     0.196 C 
HETATM   19  O           1     -35.055  -1.935 -13.670  0.00  0.00    -0.646 OA
HETATM   20  O           1     -34.425  -2.170 -11.612  0.00  0.00    -0.646 OA
ENDBRANCH  14  18
ENDBRANCH   2  14
TORSDOF 8
ENDMDL
MODEL 8
REMARK VINA RESULT:      -5.2     12.426     14.723
REMARK  8 active torsions:
REMARK  status: ('A' for Active; 'I' for Inactive)
REMARK       I    between atoms: C_2  and  N_3 
REMARK    1  A    between atoms: C_2  and  C_18 
REMARK    2  A    between atoms: N_3  and  C_14 
REMARK    3  A    between atoms: Se_6  and  C_20 
REMARK    4  A    between atoms: C_9  and  C_18 
REMARK    5  A    between atoms: C_9  and  C_13 
REMARK    6  A    between atoms: N_11  and  C_18 
REMARK    7  A    between atoms: C_14  and  C_20 
REMARK    8  A    between atoms: C_14  and  C_17 
ROOT
HETATM    1  C           1     -21.710  -4.132  -7.694  0.00  0.00     0.249 C 
HETATM    2  N           1     -22.147  -5.280  -7.090  0.00  0.00    -0.345 N 
HETATM    3  H           1     -22.940  -5.781  -7.470  0.00  0.00     0.163 HD
HETATM    4  O           1     -20.763  -3.533  -7.242  0.00  0.00    -0.271 OA
ENDROOT
BRANCH   1   5
HETATM    5  C           1     -22.411  -3.614  -8.925  0.00  0.00     0.284 C 
BRANCH   5   6
HETATM    6  C           1     -23.838  -4.148  -8.960  0.00  0.00     0.155 C 
BRANCH   6   7
HETATM    7  C           1     -24.643  -3.369  -9.970  0.00  0.00     0.175 C 
HETATM    8  O           1     -24.091  -2.923 -11.000  0.00  0.00    -0.648 OA
HETATM    9  O           1     -25.861  -3.168  -9.777  0.00  0.00    -0.648 OA
ENDBRANCH   6   7
ENDBRANCH   5   6
BRANCH   5  10
HETATM   10  N           1     -21.676  -4.073 -10.150  0.00  0.00    -0.066 N 
HETATM   11  H           1     -21.517  -3.259 -10.786  0.00  0.00     0.275 HD
HETATM   12  H           1     -22.245  -4.797 -10.644  0.00  0.00     0.275 HD
HETATM   13  H           1     -20.756  -4.483  -9.871  0.00  0.00     0.275 HD
ENDBRANCH   5  10
ENDBRANCH   1   5
BRANCH   2  14
HETATM   14  C           1     -21.473  -5.777  -5.907  0.00  0.00     0.185 C 
BRANCH  14  15
HETATM   15  C           1     -22.508  -6.278  -4.907  0.00  0.00     0.039 C 
BRANCH  15  16
HETATM   16 Se           1     -21.713  -6.353  -3.129  0.00  0.00     0.000 Se
HETATM   17  H           1     -20.368  -5.972  -3.589  0.00  0.00     0.000 HD
ENDBRANCH  15  16
ENDBRANCH  14  15
BRANCH  14  18
HETATM   18  C           1     -20.554  -6.911  -6.290  0.00  0.00     0.196 C 
HETATM   19  O           1     -19.474  -6.670  -6.869  0.00  0.00    -0.646 OA
HETATM   20  O           1     -20.875  -8.091  -6.030  0.00  0.00    -0.646 OA
ENDBRANCH  14  18
ENDBRANCH   2  14
TORSDOF 8
ENDMDL
MODEL 9
REMARK VINA RESULT:      -5.1      2.008      5.485
REMARK  8 active torsions:
REMARK  status: ('A' for Active; 'I' for Inactive)
REMARK       I    between atoms: C_2  and  N_3 
REMARK    1  A    between atoms: C_2  and  C_18 
REMARK    2  A    between atoms: N_3  and  C_14 
REMARK    3  A    between atoms: Se_6  and  C_20 
REMARK    4  A    between atoms: C_9  and  C_18 
REMARK    5  A    between atoms: C_9  and  C_13 
REMARK    6  A    between atoms: N_11  and  C_18 
REMARK    7  A    between atoms: C_14  and  C_20 
REMARK    8  A    between atoms: C_14  and  C_17 
ROOT
HETATM    1  C           1     -35.084  -0.355 -13.078  0.00  0.00     0.249 C 
HETATM    2  N           1     -35.349  -1.685 -12.894  0.00  0.00    -0.345 N 
HETATM    3  H           1     -36.040  -2.148 -13.469  0.00  0.00     0.163 HD
HETATM    4  O           1     -34.258   0.199 -12.392  0.00  0.00    -0.271 OA
ENDROOT
BRANCH   1   5
HETATM    5  C           1     -35.824   0.421 -14.139  0.00  0.00     0.284 C 
BRANCH   5   6
HETATM    6  C           1     -37.265  -0.068 -14.214  0.00  0.00     0.155 C 
BRANCH   6   7
HETATM    7  C           1     -37.719  -0.078 -15.653  0.00  0.00     0.175 C 
HETATM    8  O           1     -37.741  -1.150 -16.296  0.00  0.00    -0.648 OA
HETATM    9  O           1     -38.074   0.988 -16.202  0.00  0.00    -0.648 OA
ENDBRANCH   6   7
ENDBRANCH   5   6
BRANCH   5  10
HETATM   10  N           1     -35.157   0.213 -15.467  0.00  0.00    -0.066 N 
HETATM   11  H           1     -35.762  -0.389 -16.070  0.00  0.00     0.275 HD
HETATM   12  H           1     -34.233  -0.254 -15.322  0.00  0.00     0.275 HD
HETATM   13  H           1     -35.011   1.138 -15.932  0.00  0.00     0.275 HD
ENDBRANCH   5  10
ENDBRANCH   1   5
BRANCH   2  14
HETATM   14  C           1     -34.637  -2.430 -11.873  0.00  0.00     0.185 C 
BRANCH  14  15
HETATM   15  C           1     -35.627  -2.931 -10.829  0.00  0.00     0.039 C 
BRANCH  15  16
HETATM   16 Se           1     -36.676  -1.433 -10.154  0.00  0.00     0.000 Se
HETATM   17  H           1     -35.591  -0.902  -9.314  0.00  0.00     0.000 HD
ENDBRANCH  15  16
ENDBRANCH  14  15
BRANCH  14  18
HETATM   18  C           1     -33.936  -3.607 -12.507  0.00  0.00     0.196 C 
HETATM   19  O           1     -34.072  -3.831 -13.728  0.00  0.00    -0.646 OA
HETATM   20  O           1     -33.220  -4.357 -11.809  0.00  0.00    -0.646 OA
ENDBRANCH  14  18
ENDBRANCH   2  14
TORSDOF 8
ENDMDL
