MODEL 1
REMARK VINA RESULT:      -6.7      0.000      0.000
REMARK  10 active torsions:
REMARK  status: ('A' for Active; 'I' for Inactive)
REMARK    1  A    between atoms: O_2  and  C_16 
REMARK    2  A    between atoms: O_2  and  P_7 
REMARK    3  A    between atoms: N_6  and  C_22 
REMARK    4  A    between atoms: P_7  and  O_9 
REMARK    5  A    between atoms: C_14  and  C_27 
REMARK    6  A    between atoms: C_14  and  C_16 
REMARK    7  A    between atoms: C_14  and  N_19 
REMARK       I    between atoms: N_19  and  C_21 
REMARK    8  A    between atoms: C_20  and  C_22 
REMARK    9  A    between atoms: C_20  and  C_25 
REMARK   10  A    between atoms: C_21  and  C_22 
ROOT
HETATM    1  O           1     -20.118  -6.542  -7.512  0.00  0.00    -0.271 OA
HETATM    2  N           1     -21.641  -4.913  -7.376  0.00  0.00    -0.343 N 
HETATM    3  C           1     -20.787  -5.821  -6.810  0.00  0.00     0.249 C 
HETATM    4  H           1     -22.201  -4.310  -6.788  0.00  0.00     0.163 HD
ENDROOT
BRANCH   3   5
HETATM    5  C           1     -20.683  -5.923  -5.308  0.00  0.00     0.280 C 
BRANCH   5   6
HETATM    6  N           1     -20.249  -4.601  -4.747  0.00  0.00    -0.066 N 
HETATM    7  H           1     -20.176  -4.670  -3.706  0.00  0.00     0.275 HD
HETATM    8  H           1     -19.317  -4.345  -5.144  0.00  0.00     0.275 HD
HETATM    9  H           1     -20.949  -3.868  -4.999  0.00  0.00     0.275 HD
ENDBRANCH   5   6
BRANCH   5  10
HETATM   10  C           1     -22.040  -6.298  -4.728  0.00  0.00     0.101 C 
BRANCH  10  11
HETATM   11  C           1     -21.886  -6.642  -3.279  0.00  0.00     0.028 A 
HETATM   12  N           1     -22.492  -5.970  -2.250  0.00  0.00    -0.355 N 
HETATM   13  C           1     -22.101  -6.583  -1.157  0.00  0.00     0.180 A 
ATOM     14  HN          1     -23.115  -5.165  -2.318  1.00  0.00     0.166 HD
HETATM   15  N           1     -21.266  -7.626  -1.440  0.00  0.00    -0.360 N 
HETATM   16  C           1     -21.118  -7.677  -2.799  0.00  0.00     0.114 A 
HETATM   17  H           1     -20.820  -8.272  -0.743  0.00  0.00     0.166 HD
ENDBRANCH  10  11
ENDBRANCH   5  10
ENDBRANCH   3   5
BRANCH   2  18
HETATM   18  C           1     -21.740  -4.816  -8.820  0.00  0.00     0.210 C 
BRANCH  18  19
HETATM   19  C           1     -20.434  -4.310  -9.381  0.00  0.00     0.198 C 
HETATM   20  O           1     -19.773  -3.455  -8.753  0.00  0.00    -0.646 OA
HETATM   21  O           1     -20.013  -4.747 -10.473  0.00  0.00    -0.646 OA
ENDBRANCH  18  19
BRANCH  18  22
HETATM   22  C           1     -22.858  -3.849  -9.187  0.00  0.00     0.217 C 
BRANCH  22  23
HETATM   23  O           1     -22.554  -3.224 -10.405  0.00  0.00    -0.287 OA
BRANCH  23  24
HETATM   24  P           1     -23.633  -3.422 -11.591  0.00  0.00     0.406 P 
HETATM   25  O           1     -23.365  -2.445 -12.670  0.00  0.00    -0.624 OA
HETATM   26  O           1     -24.997  -3.205 -11.059  0.00  0.00    -0.624 OA
BRANCH  24  27
HETATM   27  O           1     -23.515  -4.920 -12.180  0.00  0.00    -0.300 OA
HETATM   28  H           1     -24.373  -5.292 -12.075  0.00  0.00     0.223 HD
ENDBRANCH  24  27
ENDBRANCH  23  24
ENDBRANCH  22  23
ENDBRANCH  18  22
ENDBRANCH   2  18
TORSDOF 10
ENDMDL
MODEL 2
REMARK VINA RESULT:      -6.6      4.190      7.434
REMARK  10 active torsions:
REMARK  status: ('A' for Active; 'I' for Inactive)
REMARK    1  A    between atoms: O_2  and  C_16 
REMARK    2  A    between atoms: O_2  and  P_7 
REMARK    3  A    between atoms: N_6  and  C_22 
REMARK    4  A    between atoms: P_7  and  O_9 
REMARK    5  A    between atoms: C_14  and  C_27 
REMARK    6  A    between atoms: C_14  and  C_16 
REMARK    7  A    between atoms: C_14  and  N_19 
REMARK       I    between atoms: N_19  and  C_21 
REMARK    8  A    between atoms: C_20  and  C_22 
REMARK    9  A    between atoms: C_20  and  C_25 
REMARK   10  A    between atoms: C_21  and  C_22 
ROOT
HETATM    1  O           1     -23.286  -5.427  -5.890  0.00  0.00    -0.271 OA
HETATM    2  N           1     -21.327  -6.378  -5.390  0.00  0.00    -0.343 N 
HETATM    3  C           1     -22.092  -5.471  -6.074  0.00  0.00     0.249 C 
HETATM    4  H           1     -20.328  -6.414  -5.544  0.00  0.00     0.163 HD
ENDROOT
BRANCH   3   5
HETATM    5  C           1     -21.446  -4.529  -7.057  0.00  0.00     0.280 C 
BRANCH   5   6
HETATM    6  N           1     -19.980  -4.419  -6.755  0.00  0.00    -0.066 N 
HETATM    7  H           1     -19.688  -3.416  -6.800  0.00  0.00     0.275 HD
HETATM    8  H           1     -19.795  -4.791  -5.796  0.00  0.00     0.275 HD
HETATM    9  H           1     -19.437  -4.971  -7.455  0.00  0.00     0.275 HD
ENDBRANCH   5   6
BRANCH   5  10
HETATM   10  C           1     -21.631  -5.062  -8.472  0.00  0.00     0.101 C 
BRANCH  10  11
HETATM   11  C           1     -22.736  -4.312  -9.148  0.00  0.00     0.028 A 
HETATM   12  N           1     -23.906  -3.934  -8.541  0.00  0.00    -0.355 N 
HETATM   13  C           1     -24.591  -3.308  -9.470  0.00  0.00     0.180 A 
ATOM     14  HN          1     -24.185  -4.103  -7.575  1.00  0.00     0.166 HD
HETATM   15  N           1     -23.909  -3.265 -10.652  0.00  0.00    -0.360 N 
HETATM   16  C           1     -22.716  -3.906 -10.461  0.00  0.00     0.114 A 
HETATM   17  H           1     -24.239  -2.822 -11.545  0.00  0.00     0.166 HD
ENDBRANCH  10  11
ENDBRANCH   5  10
ENDBRANCH   3   5
BRANCH   2  18
HETATM   18  C           1     -21.950  -7.284  -4.444  0.00  0.00     0.210 C 
BRANCH  18  19
HETATM   19  C           1     -21.634  -6.838  -3.038  0.00  0.00     0.198 C 
HETATM   20  O           1     -22.294  -5.917  -2.510  0.00  0.00    -0.646 OA
HETATM   21  O           1     -20.712  -7.390  -2.399  0.00  0.00    -0.646 OA
ENDBRANCH  18  19
BRANCH  18  22
HETATM   22  C           1     -21.414  -8.692  -4.662  0.00  0.00     0.217 C 
BRANCH  22  23
HETATM   23  O           1     -20.376  -8.657  -5.604  0.00  0.00    -0.287 OA
BRANCH  23  24
HETATM   24  P           1     -19.052  -9.504  -5.231  0.00  0.00     0.406 P 
HETATM   25  O           1     -18.013  -9.275  -6.261  0.00  0.00    -0.624 OA
HETATM   26  O           1     -19.386 -10.944  -5.180  0.00  0.00    -0.624 OA
BRANCH  24  27
HETATM   27  O           1     -18.496  -9.027  -3.792  0.00  0.00    -0.300 OA
HETATM   28  H           1     -18.757  -9.705  -3.194  0.00  0.00     0.223 HD
ENDBRANCH  24  27
ENDBRANCH  23  24
ENDBRANCH  22  23
ENDBRANCH  18  22
ENDBRANCH   2  18
TORSDOF 10
ENDMDL
MODEL 3
REMARK VINA RESULT:      -6.5      2.392      3.025
REMARK  10 active torsions:
REMARK  status: ('A' for Active; 'I' for Inactive)
REMARK    1  A    between atoms: O_2  and  C_16 
REMARK    2  A    between atoms: O_2  and  P_7 
REMARK    3  A    between atoms: N_6  and  C_22 
REMARK    4  A    between atoms: P_7  and  O_9 
REMARK    5  A    between atoms: C_14  and  C_27 
REMARK    6  A    between atoms: C_14  and  C_16 
REMARK    7  A    between atoms: C_14  and  N_19 
REMARK       I    between atoms: N_19  and  C_21 
REMARK    8  A    between atoms: C_20  and  C_22 
REMARK    9  A    between atoms: C_20  and  C_25 
REMARK   10  A    between atoms: C_21  and  C_22 
ROOT
HETATM    1  O           1     -21.405  -7.451  -6.609  0.00  0.00    -0.271 OA
HETATM    2  N           1     -21.090  -5.257  -6.330  0.00  0.00    -0.343 N 
HETATM    3  C           1     -21.139  -6.542  -5.859  0.00  0.00     0.249 C 
HETATM    4  H           1     -20.868  -4.496  -5.702  0.00  0.00     0.163 HD
ENDROOT
BRANCH   3   5
HETATM    5  C           1     -20.864  -6.822  -4.403  0.00  0.00     0.280 C 
BRANCH   5   6
HETATM    6  N           1     -21.893  -6.130  -3.557  0.00  0.00    -0.066 N 
HETATM    7  H           1     -21.528  -6.016  -2.585  0.00  0.00     0.275 HD
HETATM    8  H           1     -22.099  -5.189  -3.963  0.00  0.00     0.275 HD
HETATM    9  H           1     -22.768  -6.700  -3.537  0.00  0.00     0.275 HD
ENDBRANCH   5   6
BRANCH   5  10
HETATM   10  C           1     -20.929  -8.322  -4.151  0.00  0.00     0.101 C 
BRANCH  10  11
HETATM   11  C           1     -19.573  -8.922  -4.354  0.00  0.00     0.028 A 
HETATM   12  N           1     -19.054  -9.283  -5.571  0.00  0.00    -0.355 N 
HETATM   13  C           1     -17.860  -9.760  -5.311  0.00  0.00     0.180 A 
ATOM     14  HN          1     -19.501  -9.197  -6.484  1.00  0.00     0.166 HD
HETATM   15  N           1     -17.586  -9.722  -3.973  0.00  0.00    -0.360 N 
HETATM   16  C           1     -18.677  -9.187  -3.346  0.00  0.00     0.114 A 
HETATM   17  H           1     -16.700 -10.044  -3.511  0.00  0.00     0.166 HD
ENDBRANCH  10  11
ENDBRANCH   5  10
ENDBRANCH   3   5
BRANCH   2  18
HETATM   18  C           1     -21.354  -4.989  -7.731  0.00  0.00     0.210 C 
BRANCH  18  19
HETATM   19  C           1     -20.057  -4.686  -8.439  0.00  0.00     0.198 C 
HETATM   20  O           1     -19.045  -4.365  -7.779  0.00  0.00    -0.646 OA
HETATM   21  O           1     -19.993  -4.758  -9.684  0.00  0.00    -0.646 OA
ENDBRANCH  18  19
BRANCH  18  22
HETATM   22  C           1     -22.289  -3.792  -7.850  0.00  0.00     0.217 C 
BRANCH  22  23
HETATM   23  O           1     -23.571  -4.234  -8.205  0.00  0.00    -0.287 OA
BRANCH  23  24
HETATM   24  P           1     -24.007  -3.984  -9.740  0.00  0.00     0.406 P 
HETATM   25  O           1     -24.038  -5.276 -10.462  0.00  0.00    -0.624 OA
HETATM   26  O           1     -23.030  -3.081 -10.389  0.00  0.00    -0.624 OA
BRANCH  24  27
HETATM   27  O           1     -25.473  -3.310  -9.780  0.00  0.00    -0.300 OA
HETATM   28  H           1     -26.057  -4.008 -10.020  0.00  0.00     0.223 HD
ENDBRANCH  24  27
ENDBRANCH  23  24
ENDBRANCH  22  23
ENDBRANCH  18  22
ENDBRANCH   2  18
TORSDOF 10
ENDMDL
MODEL 4
REMARK VINA RESULT:      -6.5      3.944      7.939
REMARK  10 active torsions:
REMARK  status: ('A' for Active; 'I' for Inactive)
REMARK    1  A    between atoms: O_2  and  C_16 
REMARK    2  A    between atoms: O_2  and  P_7 
REMARK    3  A    between atoms: N_6  and  C_22 
REMARK    4  A    between atoms: P_7  and  O_9 
REMARK    5  A    between atoms: C_14  and  C_27 
REMARK    6  A    between atoms: C_14  and  C_16 
REMARK    7  A    between atoms: C_14  and  N_19 
REMARK       I    between atoms: N_19  and  C_21 
REMARK    8  A    between atoms: C_20  and  C_22 
REMARK    9  A    between atoms: C_20  and  C_25 
REMARK   10  A    between atoms: C_21  and  C_22 
ROOT
HETATM    1  O           1     -21.730  -3.246  -7.392  0.00  0.00    -0.271 OA
HETATM    2  N           1     -22.218  -5.415  -7.177  0.00  0.00    -0.343 N 
HETATM    3  C           1     -22.292  -4.219  -7.838  0.00  0.00     0.249 C 
HETATM    4  H           1     -22.689  -6.229  -7.550  0.00  0.00     0.163 HD
ENDROOT
BRANCH   3   5
HETATM    5  C           1     -23.078  -4.114  -9.121  0.00  0.00     0.280 C 
BRANCH   5   6
HETATM    6  N           1     -24.351  -3.361  -8.868  0.00  0.00    -0.066 N 
HETATM    7  H           1     -24.765  -3.670  -7.959  0.00  0.00     0.275 HD
HETATM    8  H           1     -24.147  -2.338  -8.826  0.00  0.00     0.275 HD
HETATM    9  H           1     -25.028  -3.551  -9.640  0.00  0.00     0.275 HD
ENDBRANCH   5   6
BRANCH   5  10
HETATM   10  C           1     -22.252  -3.373 -10.164  0.00  0.00     0.101 C 
BRANCH  10  11
HETATM   11  C           1     -22.960  -3.412 -11.482  0.00  0.00     0.028 A 
HETATM   12  N           1     -23.184  -2.319 -12.280  0.00  0.00    -0.355 N 
HETATM   13  C           1     -23.825  -2.781 -13.328  0.00  0.00     0.180 A 
ATOM     14  HN          1     -22.911  -1.354 -12.098  1.00  0.00     0.166 HD
HETATM   15  N           1     -24.024  -4.129 -13.240  0.00  0.00    -0.360 N 
HETATM   16  C           1     -23.474  -4.549 -12.060  0.00  0.00     0.114 A 
HETATM   17  H           1     -24.510  -4.733 -13.948  0.00  0.00     0.166 HD
ENDBRANCH  10  11
ENDBRANCH   5  10
ENDBRANCH   3   5
BRANCH   2  18
HETATM   18  C           1     -21.462  -5.516  -5.943  0.00  0.00     0.210 C 
BRANCH  18  19
HETATM   19  C           1     -20.004  -5.737  -6.263  0.00  0.00     0.198 C 
HETATM   20  O           1     -19.617  -6.851  -6.678  0.00  0.00    -0.646 OA
HETATM   21  O           1     -19.184  -4.806  -6.114  0.00  0.00    -0.646 OA
ENDBRANCH  18  19
BRANCH  18  22
HETATM   22  C           1     -21.984  -6.688  -5.122  0.00  0.00     0.217 C 
BRANCH  22  23
HETATM   23  O           1     -21.385  -6.674  -3.855  0.00  0.00    -0.287 OA
BRANCH  23  24
HETATM   24  P           1     -20.820  -8.091  -3.324  0.00  0.00     0.406 P 
HETATM   25  O           1     -21.861  -9.130  -3.487  0.00  0.00    -0.624 OA
HETATM   26  O           1     -20.462  -7.974  -1.892  0.00  0.00    -0.624 OA
BRANCH  24  27
HETATM   27  O           1     -19.511  -8.502  -4.175  0.00  0.00    -0.300 OA
HETATM   28  H           1     -19.832  -8.690  -5.040  0.00  0.00     0.223 HD
ENDBRANCH  24  27
ENDBRANCH  23  24
ENDBRANCH  22  23
ENDBRANCH  18  22
ENDBRANCH   2  18
TORSDOF 10
ENDMDL
MODEL 5
REMARK VINA RESULT:      -6.4      4.529      8.040
REMARK  10 active torsions:
REMARK  status: ('A' for Active; 'I' for Inactive)
REMARK    1  A    between atoms: O_2  and  C_16 
REMARK    2  A    between atoms: O_2  and  P_7 
REMARK    3  A    between atoms: N_6  and  C_22 
REMARK    4  A    between atoms: P_7  and  O_9 
REMARK    5  A    between atoms: C_14  and  C_27 
REMARK    6  A    between atoms: C_14  and  C_16 
REMARK    7  A    between atoms: C_14  and  N_19 
REMARK       I    between atoms: N_19  and  C_21 
REMARK    8  A    between atoms: C_20  and  C_22 
REMARK    9  A    between atoms: C_20  and  C_25 
REMARK   10  A    between atoms: C_21  and  C_22 
ROOT
HETATM    1  O           1     -20.022  -5.057  -6.255  0.00  0.00    -0.271 OA
HETATM    2  N           1     -21.904  -5.859  -5.357  0.00  0.00    -0.343 N 
HETATM    3  C           1     -21.229  -5.099  -6.275  0.00  0.00     0.249 C 
HETATM    4  H           1     -22.915  -5.893  -5.374  0.00  0.00     0.163 HD
ENDROOT
BRANCH   3   5
HETATM    5  C           1     -21.994  -4.314  -7.312  0.00  0.00     0.280 C 
BRANCH   5   6
HETATM    6  N           1     -21.601  -2.868  -7.234  0.00  0.00    -0.066 N 
HETATM    7  H           1     -20.968  -2.722  -6.415  0.00  0.00     0.275 HD
HETATM    8  H           1     -21.103  -2.596  -8.111  0.00  0.00     0.275 HD
HETATM    9  H           1     -22.457  -2.280  -7.122  0.00  0.00     0.275 HD
ENDBRANCH   5   6
BRANCH   5  10
HETATM   10  C           1     -21.670  -4.852  -8.699  0.00  0.00     0.101 C 
BRANCH  10  11
HETATM   11  C           1     -22.759  -4.467  -9.651  0.00  0.00     0.028 A 
HETATM   12  N           1     -22.635  -4.464 -11.017  0.00  0.00    -0.355 N 
HETATM   13  C           1     -23.802  -4.071 -11.470  0.00  0.00     0.180 A 
ATOM     14  HN          1     -21.811  -4.713 -11.564  1.00  0.00     0.166 HD
HETATM   15  N           1     -24.676  -3.821 -10.451  0.00  0.00    -0.360 N 
HETATM   16  C           1     -24.021  -4.071  -9.277  0.00  0.00     0.114 A 
HETATM   17  H           1     -25.670  -3.497 -10.550  0.00  0.00     0.166 HD
ENDBRANCH  10  11
ENDBRANCH   5  10
ENDBRANCH   3   5
BRANCH   2  18
HETATM   18  C           1     -21.168  -6.614  -4.361  0.00  0.00     0.210 C 
BRANCH  18  19
HETATM   19  C           1     -21.050  -8.051  -4.805  0.00  0.00     0.198 C 
HETATM   20  O           1     -21.898  -8.891  -4.434  0.00  0.00    -0.646 OA
HETATM   21  O           1     -20.106  -8.401  -5.545  0.00  0.00    -0.646 OA
ENDBRANCH  18  19
BRANCH  18  22
HETATM   22  C           1     -21.907  -6.553  -3.031  0.00  0.00     0.217 C 
BRANCH  22  23
HETATM   23  O           1     -21.087  -7.068  -2.017  0.00  0.00    -0.287 OA
BRANCH  23  24
HETATM   24  P           1     -21.830  -7.948  -0.884  0.00  0.00     0.406 P 
HETATM   25  O           1     -23.002  -7.203  -0.370  0.00  0.00    -0.624 OA
HETATM   26  O           1     -20.891  -8.215   0.228  0.00  0.00    -0.624 OA
BRANCH  24  27
HETATM   27  O           1     -22.321  -9.346  -1.524  0.00  0.00    -0.300 OA
HETATM   28  H           1     -22.650  -9.845  -0.797  0.00  0.00     0.223 HD
ENDBRANCH  24  27
ENDBRANCH  23  24
ENDBRANCH  22  23
ENDBRANCH  18  22
ENDBRANCH   2  18
TORSDOF 10
ENDMDL
MODEL 6
REMARK VINA RESULT:      -6.3      4.210      8.046
REMARK  10 active torsions:
REMARK  status: ('A' for Active; 'I' for Inactive)
REMARK    1  A    between atoms: O_2  and  C_16 
REMARK    2  A    between atoms: O_2  and  P_7 
REMARK    3  A    between atoms: N_6  and  C_22 
REMARK    4  A    between atoms: P_7  and  O_9 
REMARK    5  A    between atoms: C_14  and  C_27 
REMARK    6  A    between atoms: C_14  and  C_16 
REMARK    7  A    between atoms: C_14  and  N_19 
REMARK       I    between atoms: N_19  and  C_21 
REMARK    8  A    between atoms: C_20  and  C_22 
REMARK    9  A    between atoms: C_20  and  C_25 
REMARK   10  A    between atoms: C_21  and  C_22 
ROOT
HETATM    1  O           1     -20.127  -4.556  -7.092  0.00  0.00    -0.271 OA
HETATM    2  N           1     -21.745  -5.991  -6.533  0.00  0.00    -0.343 N 
HETATM    3  C           1     -21.213  -5.024  -7.342  0.00  0.00     0.249 C 
HETATM    4  H           1     -22.654  -6.382  -6.742  0.00  0.00     0.163 HD
ENDROOT
BRANCH   3   5
HETATM    5  C           1     -21.982  -4.541  -8.547  0.00  0.00     0.280 C 
BRANCH   5   6
HETATM    6  N           1     -22.719  -3.281  -8.197  0.00  0.00    -0.066 N 
HETATM    7  H           1     -22.468  -2.529  -8.879  0.00  0.00     0.275 HD
HETATM    8  H           1     -23.748  -3.458  -8.238  0.00  0.00     0.275 HD
HETATM    9  H           1     -22.455  -2.979  -7.233  0.00  0.00     0.275 HD
ENDBRANCH   5   6
BRANCH   5  10
HETATM   10  C           1     -21.016  -4.261  -9.690  0.00  0.00     0.101 C 
BRANCH  10  11
HETATM   11  C           1     -21.788  -4.005 -10.946  0.00  0.00     0.028 A 
HETATM   12  N           1     -21.482  -3.035 -11.866  0.00  0.00    -0.355 N 
HETATM   13  C           1     -22.393  -3.146 -12.803  0.00  0.00     0.180 A 
ATOM     14  HN          1     -20.710  -2.369 -11.829  1.00  0.00     0.166 HD
HETATM   15  N           1     -23.277  -4.150 -12.526  0.00  0.00    -0.360 N 
HETATM   16  C           1     -22.901  -4.711 -11.337  0.00  0.00     0.114 A 
HETATM   17  H           1     -24.094  -4.439 -13.118  0.00  0.00     0.166 HD
ENDBRANCH  10  11
ENDBRANCH   5  10
ENDBRANCH   3   5
BRANCH   2  18
HETATM   18  C           1     -21.005  -6.454  -5.375  0.00  0.00     0.210 C 
BRANCH  18  19
HETATM   19  C           1     -20.441  -7.826  -5.655  0.00  0.00     0.198 C 
HETATM   20  O           1     -21.203  -8.816  -5.710  0.00  0.00    -0.646 OA
HETATM   21  O           1     -19.213  -7.972  -5.833  0.00  0.00    -0.646 OA
ENDBRANCH  18  19
BRANCH  18  22
HETATM   22  C           1     -21.936  -6.525  -4.172  0.00  0.00     0.217 C 
BRANCH  22  23
HETATM   23  O           1     -21.187  -6.393  -2.994  0.00  0.00    -0.287 OA
BRANCH  23  24
HETATM   24  P           1     -21.410  -7.542  -1.881  0.00  0.00     0.406 P 
HETATM   25  O           1     -20.113  -7.877  -1.251  0.00  0.00    -0.624 OA
HETATM   26  O           1     -21.971  -8.750  -2.526  0.00  0.00    -0.624 OA
BRANCH  24  27
HETATM   27  O           1     -22.434  -7.008  -0.753  0.00  0.00    -0.300 OA
HETATM   28  H           1     -22.391  -7.645  -0.062  0.00  0.00     0.223 HD
ENDBRANCH  24  27
ENDBRANCH  23  24
ENDBRANCH  22  23
ENDBRANCH  18  22
ENDBRANCH   2  18
TORSDOF 10
ENDMDL
MODEL 7
REMARK VINA RESULT:      -6.3      3.777      7.127
REMARK  10 active torsions:
REMARK  status: ('A' for Active; 'I' for Inactive)
REMARK    1  A    between atoms: O_2  and  C_16 
REMARK    2  A    between atoms: O_2  and  P_7 
REMARK    3  A    between atoms: N_6  and  C_22 
REMARK    4  A    between atoms: P_7  and  O_9 
REMARK    5  A    between atoms: C_14  and  C_27 
REMARK    6  A    between atoms: C_14  and  C_16 
REMARK    7  A    between atoms: C_14  and  N_19 
REMARK       I    between atoms: N_19  and  C_21 
REMARK    8  A    between atoms: C_20  and  C_22 
REMARK    9  A    between atoms: C_20  and  C_25 
REMARK   10  A    between atoms: C_21  and  C_22 
ROOT
HETATM    1  O           1     -22.319  -3.004  -7.961  0.00  0.00    -0.271 OA
HETATM    2  N           1     -21.915  -5.185  -7.698  0.00  0.00    -0.343 N 
HETATM    3  C           1     -22.677  -4.142  -8.153  0.00  0.00     0.249 C 
HETATM    4  H           1     -22.215  -6.137  -7.858  0.00  0.00     0.163 HD
ENDROOT
BRANCH   3   5
HETATM    5  C           1     -23.963  -4.414  -8.891  0.00  0.00     0.280 C 
BRANCH   5   6
HETATM    6  N           1     -24.613  -3.113  -9.259  0.00  0.00    -0.066 N 
HETATM    7  H           1     -24.052  -2.320  -8.874  0.00  0.00     0.275 HD
HETATM    8  H           1     -24.662  -3.031 -10.300  0.00  0.00     0.275 HD
HETATM    9  H           1     -25.579  -3.081  -8.862  0.00  0.00     0.275 HD
ENDBRANCH   5   6
BRANCH   5  10
HETATM   10  C           1     -23.666  -5.207 -10.157  0.00  0.00     0.101 C 
BRANCH  10  11
HETATM   11  C           1     -22.927  -4.340 -11.128  0.00  0.00     0.028 A 
HETATM   12  N           1     -21.685  -3.804 -10.904  0.00  0.00    -0.355 N 
HETATM   13  C           1     -21.403  -3.119 -11.988  0.00  0.00     0.180 A 
ATOM     14  HN          1     -21.103  -3.913 -10.073  1.00  0.00     0.166 HD
HETATM   15  N           1     -22.414  -3.192 -12.903  0.00  0.00    -0.360 N 
HETATM   16  C           1     -23.399  -3.972 -12.365  0.00  0.00     0.114 A 
HETATM   17  H           1     -22.431  -2.734 -13.848  0.00  0.00     0.166 HD
ENDBRANCH  10  11
ENDBRANCH   5  10
ENDBRANCH   3   5
BRANCH   2  18
HETATM   18  C           1     -20.678  -4.922  -6.988  0.00  0.00     0.210 C 
BRANCH  18  19
HETATM   19  C           1     -19.562  -4.714  -7.982  0.00  0.00     0.198 C 
HETATM   20  O           1     -19.750  -4.960  -9.193  0.00  0.00    -0.646 OA
HETATM   21  O           1     -18.450  -4.295  -7.595  0.00  0.00    -0.646 OA
ENDBRANCH  18  19
BRANCH  18  22
HETATM   22  C           1     -20.345  -6.109  -6.093  0.00  0.00     0.217 C 
BRANCH  22  23
HETATM   23  O           1     -20.645  -5.788  -4.761  0.00  0.00    -0.287 OA
BRANCH  23  24
HETATM   24  P           1     -21.944  -6.515  -4.134  0.00  0.00     0.406 P 
HETATM   25  O           1     -22.158  -6.036  -2.750  0.00  0.00    -0.624 OA
HETATM   26  O           1     -21.731  -7.979  -4.120  0.00  0.00    -0.624 OA
BRANCH  24  27
HETATM   27  O           1     -23.241  -6.167  -5.030  0.00  0.00    -0.300 OA
HETATM   28  H           1     -23.540  -5.332  -4.714  0.00  0.00     0.223 HD
ENDBRANCH  24  27
ENDBRANCH  23  24
ENDBRANCH  22  23
ENDBRANCH  18  22
ENDBRANCH   2  18
TORSDOF 10
ENDMDL
MODEL 8
REMARK VINA RESULT:      -6.2      4.527      7.963
REMARK  10 active torsions:
REMARK  status: ('A' for Active; 'I' for Inactive)
REMARK    1  A    between atoms: O_2  and  C_16 
REMARK    2  A    between atoms: O_2  and  P_7 
REMARK    3  A    between atoms: N_6  and  C_22 
REMARK    4  A    between atoms: P_7  and  O_9 
REMARK    5  A    between atoms: C_14  and  C_27 
REMARK    6  A    between atoms: C_14  and  C_16 
REMARK    7  A    between atoms: C_14  and  N_19 
REMARK       I    between atoms: N_19  and  C_21 
REMARK    8  A    between atoms: C_20  and  C_22 
REMARK    9  A    between atoms: C_20  and  C_25 
REMARK   10  A    between atoms: C_21  and  C_22 
ROOT
HETATM    1  O           1     -23.170  -5.663  -5.718  0.00  0.00    -0.271 OA
HETATM    2  N           1     -21.170  -6.429  -5.081  0.00  0.00    -0.343 N 
HETATM    3  C           1     -21.968  -5.612  -5.837  0.00  0.00     0.249 C 
HETATM    4  H           1     -20.164  -6.386  -5.181  0.00  0.00     0.163 HD
ENDROOT
BRANCH   3   5
HETATM    5  C           1     -21.348  -4.650  -6.818  0.00  0.00     0.280 C 
BRANCH   5   6
HETATM    6  N           1     -19.889  -4.488  -6.506  0.00  0.00    -0.066 N 
HETATM    7  H           1     -19.744  -3.609  -5.961  0.00  0.00     0.275 HD
HETATM    8  H           1     -19.563  -5.305  -5.941  0.00  0.00     0.275 HD
HETATM    9  H           1     -19.345  -4.440  -7.396  0.00  0.00     0.275 HD
ENDBRANCH   5   6
BRANCH   5  10
HETATM   10  C           1     -21.505  -5.193  -8.232  0.00  0.00     0.101 C 
BRANCH  10  11
HETATM   11  C           1     -22.570  -4.423  -8.948  0.00  0.00     0.028 A 
HETATM   12  N           1     -23.761  -4.037  -8.389  0.00  0.00    -0.355 N 
HETATM   13  C           1     -24.398  -3.394  -9.339  0.00  0.00     0.180 A 
ATOM     14  HN          1     -24.083  -4.211  -7.437  1.00  0.00     0.166 HD
HETATM   15  N           1     -23.665  -3.349 -10.491  0.00  0.00    -0.360 N 
HETATM   16  C           1     -22.490  -4.006 -10.255  0.00  0.00     0.114 A 
HETATM   17  H           1     -23.952  -2.893 -11.393  0.00  0.00     0.166 HD
ENDBRANCH  10  11
ENDBRANCH   5  10
ENDBRANCH   3   5
BRANCH   2  18
HETATM   18  C           1     -21.767  -7.354  -4.137  0.00  0.00     0.210 C 
BRANCH  18  19
HETATM   19  C           1     -21.617  -6.811  -2.738  0.00  0.00     0.198 C 
HETATM   20  O           1     -22.382  -5.910  -2.330  0.00  0.00    -0.646 OA
HETATM   21  O           1     -20.728  -7.263  -1.984  0.00  0.00    -0.646 OA
ENDBRANCH  18  19
BRANCH  18  22
HETATM   22  C           1     -21.067  -8.702  -4.236  0.00  0.00     0.217 C 
BRANCH  22  23
HETATM   23  O           1     -22.013  -9.730  -4.115  0.00  0.00    -0.287 OA
BRANCH  23  24
HETATM   24  P           1     -21.826 -10.721  -2.853  0.00  0.00     0.406 P 
HETATM   25  O           1     -22.555 -10.176  -1.685  0.00  0.00    -0.624 OA
HETATM   26  O           1     -20.387 -10.835  -2.526  0.00  0.00    -0.624 OA
BRANCH  24  27
HETATM   27  O           1     -22.413 -12.179  -3.222  0.00  0.00    -0.300 OA
HETATM   28  H           1     -21.870 -12.490  -3.925  0.00  0.00     0.223 HD
ENDBRANCH  24  27
ENDBRANCH  23  24
ENDBRANCH  22  23
ENDBRANCH  18  22
ENDBRANCH   2  18
TORSDOF 10
ENDMDL
MODEL 9
REMARK VINA RESULT:      -6.1      4.961      8.135
REMARK  10 active torsions:
REMARK  status: ('A' for Active; 'I' for Inactive)
REMARK    1  A    between atoms: O_2  and  C_16 
REMARK    2  A    between atoms: O_2  and  P_7 
REMARK    3  A    between atoms: N_6  and  C_22 
REMARK    4  A    between atoms: P_7  and  O_9 
REMARK    5  A    between atoms: C_14  and  C_27 
REMARK    6  A    between atoms: C_14  and  C_16 
REMARK    7  A    between atoms: C_14  and  N_19 
REMARK       I    between atoms: N_19  and  C_21 
REMARK    8  A    between atoms: C_20  and  C_22 
REMARK    9  A    between atoms: C_20  and  C_25 
REMARK   10  A    between atoms: C_21  and  C_22 
ROOT
HETATM    1  O           1     -19.672  -7.500  -5.966  0.00  0.00    -0.271 OA
HETATM    2  N           1     -20.942  -7.935  -4.181  0.00  0.00    -0.343 N 
HETATM    3  C           1     -20.704  -7.301  -5.370  0.00  0.00     0.249 C 
HETATM    4  H           1     -21.806  -7.768  -3.682  0.00  0.00     0.163 HD
ENDROOT
BRANCH   3   5
HETATM    5  C           1     -21.730  -6.351  -5.937  0.00  0.00     0.280 C 
BRANCH   5   6
HETATM    6  N           1     -22.814  -6.124  -4.924  0.00  0.00    -0.066 N 
HETATM    7  H           1     -22.494  -6.461  -3.988  0.00  0.00     0.275 HD
HETATM    8  H           1     -23.031  -5.104  -4.871  0.00  0.00     0.275 HD
HETATM    9  H           1     -23.672  -6.648  -5.209  0.00  0.00     0.275 HD
ENDBRANCH   5   6
BRANCH   5  10
HETATM   10  C           1     -21.065  -5.023  -6.272  0.00  0.00     0.101 C 
BRANCH  10  11
HETATM   11  C           1     -21.606  -4.505  -7.568  0.00  0.00     0.028 A 
HETATM   12  N           1     -22.879  -4.027  -7.745  0.00  0.00    -0.355 N 
HETATM   13  C           1     -22.946  -3.679  -9.008  0.00  0.00     0.180 A 
ATOM     14  HN          1     -23.617  -3.957  -7.044  1.00  0.00     0.166 HD
HETATM   15  N           1     -21.766  -3.912  -9.655  0.00  0.00    -0.360 N 
HETATM   16  C           1     -20.896  -4.443  -8.743  0.00  0.00     0.114 A 
HETATM   17  H           1     -21.563  -3.719 -10.667  0.00  0.00     0.166 HD
ENDBRANCH  10  11
ENDBRANCH   5  10
ENDBRANCH   3   5
BRANCH   2  18
HETATM   18  C           1     -19.955  -8.848  -3.637  0.00  0.00     0.210 C 
BRANCH  18  19
HETATM   19  C           1     -20.361 -10.269  -3.944  0.00  0.00     0.198 C 
HETATM   20  O           1     -21.342 -10.779  -3.361  0.00  0.00    -0.646 OA
HETATM   21  O           1     -19.717 -10.935  -4.782  0.00  0.00    -0.646 OA
ENDBRANCH  18  19
BRANCH  18  22
HETATM   22  C           1     -19.868  -8.661  -2.128  0.00  0.00     0.217 C 
BRANCH  22  23
HETATM   23  O           1     -20.789  -7.684  -1.724  0.00  0.00    -0.287 OA
BRANCH  23  24
HETATM   24  P           1     -21.849  -8.136  -0.591  0.00  0.00     0.406 P 
HETATM   25  O           1     -22.863  -7.072  -0.411  0.00  0.00    -0.624 OA
HETATM   26  O           1     -21.138  -8.359   0.688  0.00  0.00    -0.624 OA
BRANCH  24  27
HETATM   27  O           1     -22.577  -9.502  -1.049  0.00  0.00    -0.300 OA
HETATM   28  H           1     -21.967 -10.187  -0.836  0.00  0.00     0.223 HD
ENDBRANCH  24  27
ENDBRANCH  23  24
ENDBRANCH  22  23
ENDBRANCH  18  22
ENDBRANCH   2  18
TORSDOF 10
ENDMDL
