MODEL 1
REMARK VINA RESULT:      -6.8      0.000      0.000
REMARK  15 active torsions:
REMARK  status: ('A' for Active; 'I' for Inactive)
REMARK    1  A    between atoms: C_2  and  C_28 
REMARK    2  A    between atoms: C_2  and  C_3 
REMARK    3  A    between atoms: C_2  and  N_24 
REMARK    4  A    between atoms: N_13  and  C_15 
REMARK    5  A    between atoms: N_13  and  C_14 
REMARK    6  A    between atoms: C_14  and  C_28 
REMARK    7  A    between atoms: C_15  and  C_36 
REMARK    8  A    between atoms: C_15  and  C_16 
REMARK    9  A    between atoms: C_20  and  C_21 
REMARK   10  A    between atoms: C_20  and  C_25 
REMARK   11  A    between atoms: C_21  and  C_22 
REMARK   12  A    between atoms: C_22  and  C_23 
REMARK   13  A    between atoms: C_22  and  N_30 
REMARK       I    between atoms: C_23  and  N_24 
REMARK   14  A    between atoms: C_25  and  N_26 
REMARK       I    between atoms: N_26  and  C_33 
REMARK       I    between atoms: N_31  and  C_33 
REMARK   15  A    between atoms: Se_35  and  C_36 
ROOT
HETATM    1  H           1     -21.784  -6.994  -7.085  0.00  0.00     0.163 HD
HETATM    2  C           1     -21.062  -5.057  -6.976  0.00  0.00     0.249 C 
HETATM    3  N           1     -21.282  -6.327  -6.512  0.00  0.00    -0.345 N 
HETATM    4  O           1     -20.462  -4.261  -6.293  0.00  0.00    -0.271 OA
ENDROOT
BRANCH   2   5
HETATM    5  C           1     -21.569  -4.653  -8.339  0.00  0.00     0.274 C 
BRANCH   5   6
HETATM    6  C           1     -20.412  -4.117  -9.172  0.00  0.00     0.044 C 
BRANCH   6   7
HETATM    7  C           1     -20.625  -4.488 -10.635  0.00  0.00     0.023 C 
BRANCH   7   8
HETATM    8  C           1     -20.906  -3.229 -11.443  0.00  0.00     0.138 C 
BRANCH   8   9
HETATM    9  N           1     -21.578  -3.592 -12.699  0.00  0.00    -0.227 N 
HETATM   10  H           1     -21.087  -4.202 -13.400  0.00  0.00     0.177 HD
HETATM   11  C           1     -22.747  -3.171 -12.936  0.00  0.00     0.665 C 
HETATM   12  N           1     -23.355  -2.416 -12.069  0.00  0.00    -0.235 N 
HETATM   13  N           1     -23.327  -3.484 -14.017  0.00  0.00    -0.235 N 
HETATM   14  H           1     -22.877  -2.159 -11.176  0.00  0.00     0.174 HD
HETATM   15  H           1     -24.321  -2.069 -12.264  0.00  0.00     0.174 HD
HETATM   16  H           1     -24.297  -3.135 -14.213  0.00  0.00     0.174 HD
HETATM   17  H           1     -22.836  -4.094 -14.718  0.00  0.00     0.174 HD
ENDBRANCH   8   9
ENDBRANCH   7   8
ENDBRANCH   6   7
ENDBRANCH   5   6
BRANCH   5  18
HETATM   18  N           1     -22.612  -3.586  -8.187  0.00  0.00    -0.067 N 
HETATM   19  H           1     -22.170  -2.717  -7.810  0.00  0.00     0.275 HD
HETATM   20  H           1     -23.038  -3.382  -9.120  0.00  0.00     0.275 HD
HETATM   21  H           1     -23.353  -3.914  -7.528  0.00  0.00     0.275 HD
ENDBRANCH   5  18
ENDBRANCH   2   5
BRANCH   3  22
HETATM   22  C           1     -20.795  -6.716  -5.203  0.00  0.00     0.187 C 
BRANCH  22  23
HETATM   23  C           1     -21.915  -6.569  -4.182  0.00  0.00     0.066 C 
BRANCH  23  24
HETATM   24  C           1     -21.319  -6.257  -2.815  0.00  0.00     0.273 C 
BRANCH  24  25
HETATM   25  N           1     -22.267  -6.600  -1.789  0.00  0.00     0.098 N 
HETATM   26  H           1     -23.205  -6.624  -2.188  0.00  0.00     0.317 HD
BRANCH  25  27
HETATM   27  C           1     -21.922  -7.906  -1.295  0.00  0.00     0.320 C 
BRANCH  27  28
HETATM   28  C           1     -20.427  -8.136  -1.472  0.00  0.00     0.049 C 
BRANCH  28  29
HETATM   29 Se           1     -20.097 -10.022  -1.835  0.00  0.00     0.000 Se
HETATM   30  H           1     -21.045 -10.090  -2.959  0.00  0.00     0.000 HD
ENDBRANCH  28  29
ENDBRANCH  27  28
BRANCH  27  31
HETATM   31  C           1     -22.276  -7.999   0.169  0.00  0.00     0.207 C 
HETATM   32  O           1     -21.376  -8.159   1.021  0.00  0.00    -0.646 OA
HETATM   33  O           1     -23.470  -7.917   0.530  0.00  0.00    -0.646 OA
ENDBRANCH  27  31
ENDBRANCH  25  27
ENDBRANCH  24  25
ENDBRANCH  23  24
ENDBRANCH  22  23
BRANCH  22  34
HETATM   34  C           1     -20.336  -8.152  -5.245  0.00  0.00     0.196 C 
HETATM   35  O           1     -19.181  -8.451  -4.869  0.00  0.00    -0.646 OA
HETATM   36  O           1     -21.111  -9.044  -5.654  0.00  0.00    -0.646 OA
ENDBRANCH  22  34
ENDBRANCH   3  22
TORSDOF 15
ENDMDL
MODEL 2
REMARK VINA RESULT:      -6.8      4.610     10.314
REMARK  15 active torsions:
REMARK  status: ('A' for Active; 'I' for Inactive)
REMARK    1  A    between atoms: C_2  and  C_28 
REMARK    2  A    between atoms: C_2  and  C_3 
REMARK    3  A    between atoms: C_2  and  N_24 
REMARK    4  A    between atoms: N_13  and  C_15 
REMARK    5  A    between atoms: N_13  and  C_14 
REMARK    6  A    between atoms: C_14  and  C_28 
REMARK    7  A    between atoms: C_15  and  C_36 
REMARK    8  A    between atoms: C_15  and  C_16 
REMARK    9  A    between atoms: C_20  and  C_21 
REMARK   10  A    between atoms: C_20  and  C_25 
REMARK   11  A    between atoms: C_21  and  C_22 
REMARK   12  A    between atoms: C_22  and  C_23 
REMARK   13  A    between atoms: C_22  and  N_30 
REMARK       I    between atoms: C_23  and  N_24 
REMARK   14  A    between atoms: C_25  and  N_26 
REMARK       I    between atoms: N_26  and  C_33 
REMARK       I    between atoms: N_31  and  C_33 
REMARK   15  A    between atoms: Se_35  and  C_36 
ROOT
HETATM    1  H           1     -21.272  -6.050  -9.038  0.00  0.00     0.163 HD
HETATM    2  C           1     -21.519  -4.991  -7.277  0.00  0.00     0.249 C 
HETATM    3  N           1     -21.556  -5.166  -8.635  0.00  0.00    -0.345 N 
HETATM    4  O           1     -21.860  -3.936  -6.796  0.00  0.00    -0.271 OA
ENDROOT
BRANCH   2   5
HETATM    5  C           1     -21.051  -6.113  -6.384  0.00  0.00     0.274 C 
BRANCH   5   6
HETATM    6  C           1     -20.808  -5.576  -4.979  0.00  0.00     0.044 C 
BRANCH   6   7
HETATM    7  C           1     -21.679  -6.335  -3.987  0.00  0.00     0.023 C 
BRANCH   7   8
HETATM    8  C           1     -20.937  -7.572  -3.500  0.00  0.00     0.138 C 
BRANCH   8   9
HETATM    9  N           1     -20.786  -7.511  -2.039  0.00  0.00    -0.227 N 
HETATM   10  H           1     -20.259  -6.716  -1.598  0.00  0.00     0.177 HD
HETATM   11  C           1     -21.292  -8.416  -1.312  0.00  0.00     0.665 C 
HETATM   12  N           1     -21.944  -9.399  -1.858  0.00  0.00    -0.235 N 
HETATM   13  N           1     -21.163  -8.363  -0.054  0.00  0.00    -0.235 N 
HETATM   14  H           1     -22.051  -9.442  -2.897  0.00  0.00     0.174 HD
HETATM   15  H           1     -22.362 -10.146  -1.258  0.00  0.00     0.174 HD
HETATM   16  H           1     -21.583  -9.113   0.548  0.00  0.00     0.174 HD
HETATM   17  H           1     -20.636  -7.569   0.387  0.00  0.00     0.174 HD
ENDBRANCH   8   9
ENDBRANCH   7   8
ENDBRANCH   6   7
ENDBRANCH   5   6
BRANCH   5  18
HETATM   18  N           1     -19.777  -6.686  -6.927  0.00  0.00    -0.067 N 
HETATM   19  H           1     -18.983  -6.045  -6.704  0.00  0.00     0.275 HD
HETATM   20  H           1     -19.602  -7.620  -6.491  0.00  0.00     0.275 HD
HETATM   21  H           1     -19.857  -6.794  -7.964  0.00  0.00     0.275 HD
ENDBRANCH   5  18
ENDBRANCH   2   5
BRANCH   3  22
HETATM   22  C           1     -22.006  -4.088  -9.494  0.00  0.00     0.187 C 
BRANCH  22  23
HETATM   23  C           1     -21.217  -4.115 -10.796  0.00  0.00     0.066 C 
BRANCH  23  24
HETATM   24  C           1     -21.628  -2.933 -11.665  0.00  0.00     0.273 C 
BRANCH  24  25
HETATM   25  N           1     -22.019  -3.406 -12.965  0.00  0.00     0.098 N 
HETATM   26  H           1     -22.332  -4.374 -12.894  0.00  0.00     0.317 HD
BRANCH  25  27
HETATM   27  C           1     -23.106  -2.582 -13.421  0.00  0.00     0.320 C 
BRANCH  27  28
HETATM   28  C           1     -22.889  -2.221 -14.885  0.00  0.00     0.049 C 
BRANCH  28  29
HETATM   29 Se           1     -23.888  -0.603 -15.311  0.00  0.00     0.000 Se
HETATM   30  H           1     -22.688   0.235 -15.467  0.00  0.00     0.000 HD
ENDBRANCH  28  29
ENDBRANCH  27  28
BRANCH  27  31
HETATM   31  C           1     -24.405  -3.336 -13.275  0.00  0.00     0.207 C 
HETATM   32  O           1     -24.576  -4.411 -13.890  0.00  0.00    -0.646 OA
HETATM   33  O           1     -25.309  -2.886 -12.539  0.00  0.00    -0.646 OA
ENDBRANCH  27  31
ENDBRANCH  25  27
ENDBRANCH  24  25
ENDBRANCH  23  24
ENDBRANCH  22  23
BRANCH  22  34
HETATM   34  C           1     -23.475  -4.262  -9.791  0.00  0.00     0.196 C 
HETATM   35  O           1     -23.870  -5.263 -10.426  0.00  0.00    -0.646 OA
HETATM   36  O           1     -24.297  -3.404  -9.401  0.00  0.00    -0.646 OA
ENDBRANCH  22  34
ENDBRANCH   3  22
TORSDOF 15
ENDMDL
MODEL 3
REMARK VINA RESULT:      -6.6      3.495      8.354
REMARK  15 active torsions:
REMARK  status: ('A' for Active; 'I' for Inactive)
REMARK    1  A    between atoms: C_2  and  C_28 
REMARK    2  A    between atoms: C_2  and  C_3 
REMARK    3  A    between atoms: C_2  and  N_24 
REMARK    4  A    between atoms: N_13  and  C_15 
REMARK    5  A    between atoms: N_13  and  C_14 
REMARK    6  A    between atoms: C_14  and  C_28 
REMARK    7  A    between atoms: C_15  and  C_36 
REMARK    8  A    between atoms: C_15  and  C_16 
REMARK    9  A    between atoms: C_20  and  C_21 
REMARK   10  A    between atoms: C_20  and  C_25 
REMARK   11  A    between atoms: C_21  and  C_22 
REMARK   12  A    between atoms: C_22  and  C_23 
REMARK   13  A    between atoms: C_22  and  N_30 
REMARK       I    between atoms: C_23  and  N_24 
REMARK   14  A    between atoms: C_25  and  N_26 
REMARK       I    between atoms: N_26  and  C_33 
REMARK       I    between atoms: N_31  and  C_33 
REMARK   15  A    between atoms: Se_35  and  C_36 
ROOT
HETATM    1  H           1     -20.349  -4.847  -4.488  0.00  0.00     0.163 HD
HETATM    2  C           1     -21.529  -6.524  -4.208  0.00  0.00     0.249 C 
HETATM    3  N           1     -20.943  -5.529  -4.943  0.00  0.00    -0.345 N 
HETATM    4  O           1     -22.237  -7.339  -4.751  0.00  0.00    -0.271 OA
ENDROOT
BRANCH   2   5
HETATM    5  C           1     -21.292  -6.603  -2.720  0.00  0.00     0.274 C 
BRANCH   5   6
HETATM    6  C           1     -21.324  -8.060  -2.277  0.00  0.00     0.044 C 
BRANCH   6   7
HETATM    7  C           1     -19.929  -8.488  -1.837  0.00  0.00     0.023 C 
BRANCH   7   8
HETATM    8  C           1     -19.444  -9.627  -2.723  0.00  0.00     0.138 C 
BRANCH   8   9
HETATM    9  N           1     -20.382  -9.814  -3.839  0.00  0.00    -0.227 N 
HETATM   10  H           1     -21.398  -9.999  -3.646  0.00  0.00     0.177 HD
HETATM   11  C           1     -19.966  -9.751  -5.033  0.00  0.00     0.665 C 
HETATM   12  N           1     -18.708  -9.522  -5.272  0.00  0.00    -0.235 N 
HETATM   13  N           1     -20.773  -9.911  -5.994  0.00  0.00    -0.235 N 
HETATM   14  H           1     -18.042  -9.389  -4.477  0.00  0.00     0.174 HD
HETATM   15  H           1     -18.364  -9.470  -6.257  0.00  0.00     0.174 HD
HETATM   16  H           1     -20.428  -9.858  -6.984  0.00  0.00     0.174 HD
HETATM   17  H           1     -21.789 -10.096  -5.802  0.00  0.00     0.174 HD
ENDBRANCH   8   9
ENDBRANCH   7   8
ENDBRANCH   6   7
ENDBRANCH   5   6
BRANCH   5  18
HETATM   18  N           1     -22.365  -5.839  -2.002  0.00  0.00    -0.067 N 
HETATM   19  H           1     -22.522  -6.261  -1.060  0.00  0.00     0.275 HD
HETATM   20  H           1     -22.067  -4.842  -1.891  0.00  0.00     0.275 HD
HETATM   21  H           1     -23.251  -5.879  -2.555  0.00  0.00     0.275 HD
ENDBRANCH   5  18
ENDBRANCH   2   5
BRANCH   3  22
HETATM   22  C           1     -21.170  -5.454  -6.373  0.00  0.00     0.187 C 
BRANCH  22  23
HETATM   23  C           1     -21.534  -4.025  -6.754  0.00  0.00     0.066 C 
BRANCH  23  24
HETATM   24  C           1     -22.751  -4.036  -7.670  0.00  0.00     0.273 C 
BRANCH  24  25
HETATM   25  N           1     -22.328  -4.258  -9.027  0.00  0.00     0.098 N 
HETATM   26  H           1     -22.532  -5.221  -9.293  0.00  0.00     0.317 HD
BRANCH  25  27
HETATM   27  C           1     -23.073  -3.360  -9.868  0.00  0.00     0.320 C 
BRANCH  27  28
HETATM   28  C           1     -22.445  -3.326 -11.255  0.00  0.00     0.049 C 
BRANCH  28  29
HETATM   29 Se           1     -20.559  -3.802 -11.128  0.00  0.00     0.000 Se
HETATM   30  H           1     -20.731  -4.631  -9.925  0.00  0.00     0.000 HD
ENDBRANCH  28  29
ENDBRANCH  27  28
BRANCH  27  31
HETATM   31  C           1     -24.501  -3.838  -9.973  0.00  0.00     0.207 C 
HETATM   32  O           1     -25.440  -3.014  -9.948  0.00  0.00    -0.646 OA
HETATM   33  O           1     -24.744  -5.059 -10.085  0.00  0.00    -0.646 OA
ENDBRANCH  27  31
ENDBRANCH  25  27
ENDBRANCH  24  25
ENDBRANCH  23  24
ENDBRANCH  22  23
BRANCH  22  34
HETATM   34  C           1     -19.916  -5.866  -7.104  0.00  0.00     0.196 C 
HETATM   35  O           1     -19.409  -6.988  -6.891  0.00  0.00    -0.646 OA
HETATM   36  O           1     -19.385  -5.084  -7.923  0.00  0.00    -0.646 OA
ENDBRANCH  22  34
ENDBRANCH   3  22
TORSDOF 15
ENDMDL
MODEL 4
REMARK VINA RESULT:      -6.4      1.410      1.785
REMARK  15 active torsions:
REMARK  status: ('A' for Active; 'I' for Inactive)
REMARK    1  A    between atoms: C_2  and  C_28 
REMARK    2  A    between atoms: C_2  and  C_3 
REMARK    3  A    between atoms: C_2  and  N_24 
REMARK    4  A    between atoms: N_13  and  C_15 
REMARK    5  A    between atoms: N_13  and  C_14 
REMARK    6  A    between atoms: C_14  and  C_28 
REMARK    7  A    between atoms: C_15  and  C_36 
REMARK    8  A    between atoms: C_15  and  C_16 
REMARK    9  A    between atoms: C_20  and  C_21 
REMARK   10  A    between atoms: C_20  and  C_25 
REMARK   11  A    between atoms: C_21  and  C_22 
REMARK   12  A    between atoms: C_22  and  C_23 
REMARK   13  A    between atoms: C_22  and  N_30 
REMARK       I    between atoms: C_23  and  N_24 
REMARK   14  A    between atoms: C_25  and  N_26 
REMARK       I    between atoms: N_26  and  C_33 
REMARK       I    between atoms: N_31  and  C_33 
REMARK   15  A    between atoms: Se_35  and  C_36 
ROOT
HETATM    1  H           1     -21.394  -6.794  -6.966  0.00  0.00     0.163 HD
HETATM    2  C           1     -20.510  -5.003  -6.422  0.00  0.00     0.249 C 
HETATM    3  N           1     -20.906  -6.299  -6.230  0.00  0.00    -0.345 N 
HETATM    4  O           1     -19.927  -4.413  -5.544  0.00  0.00    -0.271 OA
ENDROOT
BRANCH   2   5
HETATM    5  C           1     -20.804  -4.310  -7.731  0.00  0.00     0.274 C 
BRANCH   5   6
HETATM    6  C           1     -22.230  -4.626  -8.163  0.00  0.00     0.044 C 
BRANCH   6   7
HETATM    7  C           1     -22.695  -3.590  -9.178  0.00  0.00     0.023 C 
BRANCH   7   8
HETATM    8  C           1     -23.057  -4.283 -10.484  0.00  0.00     0.138 C 
BRANCH   8   9
HETATM    9  N           1     -23.728  -3.328 -11.377  0.00  0.00    -0.227 N 
HETATM   10  H           1     -24.667  -2.936 -11.116  0.00  0.00     0.177 HD
HETATM   11  C           1     -23.175  -2.978 -12.461  0.00  0.00     0.665 C 
HETATM   12  N           1     -22.012  -3.463 -12.784  0.00  0.00    -0.235 N 
HETATM   13  N           1     -23.752  -2.155 -13.230  0.00  0.00    -0.235 N 
HETATM   14  H           1     -21.536  -4.142 -12.148  0.00  0.00     0.174 HD
HETATM   15  H           1     -21.556  -3.174 -13.678  0.00  0.00     0.174 HD
HETATM   16  H           1     -23.293  -1.864 -14.128  0.00  0.00     0.174 HD
HETATM   17  H           1     -24.691  -1.763 -12.969  0.00  0.00     0.174 HD
ENDBRANCH   8   9
ENDBRANCH   7   8
ENDBRANCH   6   7
ENDBRANCH   5   6
BRANCH   5  18
HETATM   18  N           1     -19.846  -4.793  -8.778  0.00  0.00    -0.067 N 
HETATM   19  H           1     -20.346  -4.888  -9.690  0.00  0.00     0.275 HD
HETATM   20  H           1     -19.066  -4.105  -8.879  0.00  0.00     0.275 HD
HETATM   21  H           1     -19.458  -5.721  -8.494  0.00  0.00     0.275 HD
ENDBRANCH   5  18
ENDBRANCH   2   5
BRANCH   3  22
HETATM   22  C           1     -20.623  -6.965  -4.973  0.00  0.00     0.187 C 
BRANCH  22  23
HETATM   23  C           1     -21.853  -6.899  -4.077  0.00  0.00     0.066 C 
BRANCH  23  24
HETATM   24  C           1     -21.436  -6.486  -2.671  0.00  0.00     0.273 C 
BRANCH  24  25
HETATM   25  N           1     -20.866  -7.616  -1.988  0.00  0.00     0.098 N 
HETATM   26  H           1     -20.289  -7.289  -1.213  0.00  0.00     0.317 HD
BRANCH  25  27
HETATM   27  C           1     -21.951  -8.410  -1.478  0.00  0.00     0.320 C 
BRANCH  27  28
HETATM   28  C           1     -21.540  -9.877  -1.457  0.00  0.00     0.049 C 
BRANCH  28  29
HETATM   29 Se           1     -23.086 -10.980  -1.022  0.00  0.00     0.000 Se
HETATM   30  H           1     -22.290 -12.178  -0.713  0.00  0.00     0.000 HD
ENDBRANCH  28  29
ENDBRANCH  27  28
BRANCH  27  31
HETATM   31  C           1     -22.286  -7.962  -0.076  0.00  0.00     0.207 C 
HETATM   32  O           1     -23.391  -7.430   0.163  0.00  0.00    -0.646 OA
HETATM   33  O           1     -21.457  -8.123   0.846  0.00  0.00    -0.646 OA
ENDBRANCH  27  31
ENDBRANCH  25  27
ENDBRANCH  24  25
ENDBRANCH  23  24
ENDBRANCH  22  23
BRANCH  22  34
HETATM   34  C           1     -20.269  -8.407  -5.237  0.00  0.00     0.196 C 
HETATM   35  O           1     -21.032  -9.319  -4.851  0.00  0.00    -0.646 OA
HETATM   36  O           1     -19.212  -8.691  -5.842  0.00  0.00    -0.646 OA
ENDBRANCH  22  34
ENDBRANCH   3  22
TORSDOF 15
ENDMDL
MODEL 5
REMARK VINA RESULT:      -6.3      2.487      4.662
REMARK  15 active torsions:
REMARK  status: ('A' for Active; 'I' for Inactive)
REMARK    1  A    between atoms: C_2  and  C_28 
REMARK    2  A    between atoms: C_2  and  C_3 
REMARK    3  A    between atoms: C_2  and  N_24 
REMARK    4  A    between atoms: N_13  and  C_15 
REMARK    5  A    between atoms: N_13  and  C_14 
REMARK    6  A    between atoms: C_14  and  C_28 
REMARK    7  A    between atoms: C_15  and  C_36 
REMARK    8  A    between atoms: C_15  and  C_16 
REMARK    9  A    between atoms: C_20  and  C_21 
REMARK   10  A    between atoms: C_20  and  C_25 
REMARK   11  A    between atoms: C_21  and  C_22 
REMARK   12  A    between atoms: C_22  and  C_23 
REMARK   13  A    between atoms: C_22  and  N_30 
REMARK       I    between atoms: C_23  and  N_24 
REMARK   14  A    between atoms: C_25  and  N_26 
REMARK       I    between atoms: N_26  and  C_33 
REMARK       I    between atoms: N_31  and  C_33 
REMARK   15  A    between atoms: Se_35  and  C_36 
ROOT
HETATM    1  H           1     -20.218  -5.879  -3.457  0.00  0.00     0.163 HD
HETATM    2  C           1     -21.212  -6.772  -5.038  0.00  0.00     0.249 C 
HETATM    3  N           1     -20.798  -6.661  -3.738  0.00  0.00    -0.345 N 
HETATM    4  O           1     -21.904  -7.703  -5.374  0.00  0.00    -0.271 OA
ENDROOT
BRANCH   2   5
HETATM    5  C           1     -20.803  -5.732  -6.052  0.00  0.00     0.274 C 
BRANCH   5   6
HETATM    6  C           1     -22.045  -5.158  -6.721  0.00  0.00     0.044 C 
BRANCH   6   7
HETATM    7  C           1     -21.705  -3.818  -7.362  0.00  0.00     0.023 C 
BRANCH   7   8
HETATM    8  C           1     -22.316  -3.751  -8.755  0.00  0.00     0.138 C 
BRANCH   8   9
HETATM    9  N           1     -23.781  -3.703  -8.647  0.00  0.00    -0.227 N 
HETATM   10  H           1     -24.240  -3.781  -7.705  0.00  0.00     0.177 HD
HETATM   11  C           1     -24.489  -3.569  -9.687  0.00  0.00     0.665 C 
HETATM   12  N           1     -23.920  -3.473 -10.853  0.00  0.00    -0.235 N 
HETATM   13  N           1     -25.750  -3.527  -9.594  0.00  0.00    -0.235 N 
HETATM   14  H           1     -22.878  -3.507 -10.929  0.00  0.00     0.174 HD
HETATM   15  H           1     -24.504  -3.361 -11.712  0.00  0.00     0.174 HD
HETATM   16  H           1     -26.337  -3.414 -10.457  0.00  0.00     0.174 HD
HETATM   17  H           1     -26.210  -3.605  -8.653  0.00  0.00     0.174 HD
ENDBRANCH   8   9
ENDBRANCH   7   8
ENDBRANCH   6   7
ENDBRANCH   5   6
BRANCH   5  18
HETATM   18  N           1     -19.923  -6.364  -7.090  0.00  0.00    -0.067 N 
HETATM   19  H           1     -20.338  -7.275  -7.390  0.00  0.00     0.275 HD
HETATM   20  H           1     -19.847  -5.728  -7.916  0.00  0.00     0.275 HD
HETATM   21  H           1     -18.973  -6.529  -6.687  0.00  0.00     0.275 HD
ENDBRANCH   5  18
ENDBRANCH   2   5
BRANCH   3  22
HETATM   22  C           1     -21.191  -7.659  -2.763  0.00  0.00     0.187 C 
BRANCH  22  23
HETATM   23  C           1     -19.947  -8.329  -2.194  0.00  0.00     0.066 C 
BRANCH  23  24
HETATM   24  C           1     -19.947  -9.806  -2.568  0.00  0.00     0.273 C 
BRANCH  24  25
HETATM   25  N           1     -20.224  -9.944  -3.973  0.00  0.00     0.098 N 
HETATM   26  H           1     -20.133  -9.036  -4.428  0.00  0.00     0.317 HD
BRANCH  25  27
HETATM   27  C           1     -19.255 -10.855  -4.521  0.00  0.00     0.320 C 
BRANCH  27  28
HETATM   28  C           1     -19.961 -12.112  -5.011  0.00  0.00     0.049 C 
BRANCH  28  29
HETATM   29 Se           1     -21.313 -11.628  -6.329  0.00  0.00     0.000 Se
HETATM   30  H           1     -20.665 -12.356  -7.432  0.00  0.00     0.000 HD
ENDBRANCH  28  29
ENDBRANCH  27  28
BRANCH  27  31
HETATM   31  C           1     -18.542 -10.195  -5.676  0.00  0.00     0.207 C 
HETATM   32  O           1     -17.707 -10.840  -6.346  0.00  0.00    -0.646 OA
HETATM   33  O           1     -18.786  -9.003  -5.961  0.00  0.00    -0.646 OA
ENDBRANCH  27  31
ENDBRANCH  25  27
ENDBRANCH  24  25
ENDBRANCH  23  24
ENDBRANCH  22  23
BRANCH  22  34
HETATM   34  C           1     -21.962  -6.997  -1.649  0.00  0.00     0.196 C 
HETATM   35  O           1     -22.027  -7.541  -0.525  0.00  0.00    -0.646 OA
HETATM   36  O           1     -22.535  -5.904  -1.849  0.00  0.00    -0.646 OA
ENDBRANCH  22  34
ENDBRANCH   3  22
TORSDOF 15
ENDMDL
MODEL 6
REMARK VINA RESULT:      -6.2      2.333      4.400
REMARK  15 active torsions:
REMARK  status: ('A' for Active; 'I' for Inactive)
REMARK    1  A    between atoms: C_2  and  C_28 
REMARK    2  A    between atoms: C_2  and  C_3 
REMARK    3  A    between atoms: C_2  and  N_24 
REMARK    4  A    between atoms: N_13  and  C_15 
REMARK    5  A    between atoms: N_13  and  C_14 
REMARK    6  A    between atoms: C_14  and  C_28 
REMARK    7  A    between atoms: C_15  and  C_36 
REMARK    8  A    between atoms: C_15  and  C_16 
REMARK    9  A    between atoms: C_20  and  C_21 
REMARK   10  A    between atoms: C_20  and  C_25 
REMARK   11  A    between atoms: C_21  and  C_22 
REMARK   12  A    between atoms: C_22  and  C_23 
REMARK   13  A    between atoms: C_22  and  N_30 
REMARK       I    between atoms: C_23  and  N_24 
REMARK   14  A    between atoms: C_25  and  N_26 
REMARK       I    between atoms: N_26  and  C_33 
REMARK       I    between atoms: N_31  and  C_33 
REMARK   15  A    between atoms: Se_35  and  C_36 
ROOT
HETATM    1  H           1     -20.498  -5.688  -3.691  0.00  0.00     0.163 HD
HETATM    2  C           1     -20.918  -6.767  -5.407  0.00  0.00     0.249 C 
HETATM    3  N           1     -20.848  -6.566  -4.054  0.00  0.00    -0.345 N 
HETATM    4  O           1     -21.337  -7.814  -5.840  0.00  0.00    -0.271 OA
ENDROOT
BRANCH   2   5
HETATM    5  C           1     -20.470  -5.682  -6.355  0.00  0.00     0.274 C 
BRANCH   5   6
HETATM    6  C           1     -21.687  -4.922  -6.867  0.00  0.00     0.044 C 
BRANCH   6   7
HETATM    7  C           1     -21.317  -4.167  -8.138  0.00  0.00     0.023 C 
BRANCH   7   8
HETATM    8  C           1     -22.349  -4.454  -9.220  0.00  0.00     0.138 C 
BRANCH   8   9
HETATM    9  N           1     -21.703  -4.403 -10.539  0.00  0.00    -0.227 N 
HETATM   10  H           1     -20.788  -4.895 -10.696  0.00  0.00     0.177 HD
HETATM   11  C           1     -22.250  -3.767 -11.487  0.00  0.00     0.665 C 
HETATM   12  N           1     -23.382  -3.158 -11.294  0.00  0.00    -0.235 N 
HETATM   13  N           1     -21.695  -3.723 -12.624  0.00  0.00    -0.235 N 
HETATM   14  H           1     -23.841  -3.195 -10.355  0.00  0.00     0.174 HD
HETATM   15  H           1     -23.834  -2.633 -12.076  0.00  0.00     0.174 HD
HETATM   16  H           1     -22.148  -3.196 -13.410  0.00  0.00     0.174 HD
HETATM   17  H           1     -20.780  -4.215 -12.781  0.00  0.00     0.174 HD
ENDBRANCH   8   9
ENDBRANCH   7   8
ENDBRANCH   6   7
ENDBRANCH   5   6
BRANCH   5  18
HETATM   18  N           1     -19.742  -6.299  -7.512  0.00  0.00    -0.067 N 
HETATM   19  H           1     -18.786  -5.884  -7.583  0.00  0.00     0.275 HD
HETATM   20  H           1     -19.664  -7.330  -7.363  0.00  0.00     0.275 HD
HETATM   21  H           1     -20.270  -6.112  -8.395  0.00  0.00     0.275 HD
ENDBRANCH   5  18
ENDBRANCH   2   5
BRANCH   3  22
HETATM   22  C           1     -21.278  -7.609  -3.143  0.00  0.00     0.187 C 
BRANCH  22  23
HETATM   23  C           1     -20.069  -8.415  -2.689  0.00  0.00     0.066 C 
BRANCH  23  24
HETATM   24  C           1     -20.246  -9.872  -3.098  0.00  0.00     0.273 C 
BRANCH  24  25
HETATM   25  N           1     -19.737 -10.062  -4.430  0.00  0.00     0.098 N 
HETATM   26  H           1     -20.208  -9.420  -5.068  0.00  0.00     0.317 HD
BRANCH  25  27
HETATM   27  C           1     -18.330  -9.768  -4.405  0.00  0.00     0.320 C 
BRANCH  27  28
HETATM   28  C           1     -17.599 -10.856  -3.629  0.00  0.00     0.049 C 
BRANCH  28  29
HETATM   29 Se           1     -16.075 -10.078  -2.695  0.00  0.00     0.000 Se
HETATM   30  H           1     -16.361 -10.758  -1.422  0.00  0.00     0.000 HD
ENDBRANCH  28  29
ENDBRANCH  27  28
BRANCH  27  31
HETATM   31  C           1     -17.802  -9.716  -5.818  0.00  0.00     0.207 C 
HETATM   32  O           1     -16.956 -10.552  -6.200  0.00  0.00    -0.646 OA
HETATM   33  O           1     -18.211  -8.836  -6.606  0.00  0.00    -0.646 OA
ENDBRANCH  27  31
ENDBRANCH  25  27
ENDBRANCH  24  25
ENDBRANCH  23  24
ENDBRANCH  22  23
BRANCH  22  34
HETATM   34  C           1     -21.946  -6.983  -1.943  0.00  0.00     0.196 C 
HETATM   35  O           1     -22.604  -5.928  -2.073  0.00  0.00    -0.646 OA
HETATM   36  O           1     -21.842  -7.521  -0.819  0.00  0.00    -0.646 OA
ENDBRANCH  22  34
ENDBRANCH   3  22
TORSDOF 15
ENDMDL
MODEL 7
REMARK VINA RESULT:      -6.1      2.264      2.881
REMARK  15 active torsions:
REMARK  status: ('A' for Active; 'I' for Inactive)
REMARK    1  A    between atoms: C_2  and  C_28 
REMARK    2  A    between atoms: C_2  and  C_3 
REMARK    3  A    between atoms: C_2  and  N_24 
REMARK    4  A    between atoms: N_13  and  C_15 
REMARK    5  A    between atoms: N_13  and  C_14 
REMARK    6  A    between atoms: C_14  and  C_28 
REMARK    7  A    between atoms: C_15  and  C_36 
REMARK    8  A    between atoms: C_15  and  C_16 
REMARK    9  A    between atoms: C_20  and  C_21 
REMARK   10  A    between atoms: C_20  and  C_25 
REMARK   11  A    between atoms: C_21  and  C_22 
REMARK   12  A    between atoms: C_22  and  C_23 
REMARK   13  A    between atoms: C_22  and  N_30 
REMARK       I    between atoms: C_23  and  N_24 
REMARK   14  A    between atoms: C_25  and  N_26 
REMARK       I    between atoms: N_26  and  C_33 
REMARK       I    between atoms: N_31  and  C_33 
REMARK   15  A    between atoms: Se_35  and  C_36 
ROOT
HETATM    1  H           1     -19.902  -6.723  -4.826  0.00  0.00     0.163 HD
HETATM    2  C           1     -21.629  -5.884  -5.601  0.00  0.00     0.249 C 
HETATM    3  N           1     -20.913  -6.696  -4.763  0.00  0.00    -0.345 N 
HETATM    4  O           1     -22.834  -5.851  -5.525  0.00  0.00    -0.271 OA
ENDROOT
BRANCH   2   5
HETATM    5  C           1     -20.913  -5.031  -6.620  0.00  0.00     0.274 C 
BRANCH   5   6
HETATM    6  C           1     -21.935  -4.245  -7.432  0.00  0.00     0.044 C 
BRANCH   6   7
HETATM    7  C           1     -21.476  -4.163  -8.882  0.00  0.00     0.023 C 
BRANCH   7   8
HETATM    8  C           1     -22.669  -4.372  -9.805  0.00  0.00     0.138 C 
BRANCH   8   9
HETATM    9  N           1     -22.544  -3.492 -10.976  0.00  0.00    -0.227 N 
HETATM   10  H           1     -21.592  -3.227 -11.334  0.00  0.00     0.177 HD
HETATM   11  C           1     -23.582  -3.054 -11.553  0.00  0.00     0.665 C 
HETATM   12  N           1     -24.760  -3.382 -11.109  0.00  0.00    -0.235 N 
HETATM   13  N           1     -23.474  -2.297 -12.561  0.00  0.00    -0.235 N 
HETATM   14  H           1     -24.848  -4.008 -10.277  0.00  0.00     0.174 HD
HETATM   15  H           1     -25.616  -3.021 -11.585  0.00  0.00     0.174 HD
HETATM   16  H           1     -24.335  -1.934 -13.040  0.00  0.00     0.174 HD
HETATM   17  H           1     -22.523  -2.031 -12.920  0.00  0.00     0.174 HD
ENDBRANCH   8   9
ENDBRANCH   7   8
ENDBRANCH   6   7
ENDBRANCH   5   6
BRANCH   5  18
HETATM   18  N           1     -20.116  -5.911  -7.536  0.00  0.00    -0.067 N 
HETATM   19  H           1     -20.271  -6.912  -7.280  0.00  0.00     0.275 HD
HETATM   20  H           1     -20.423  -5.753  -8.523  0.00  0.00     0.275 HD
HETATM   21  H           1     -19.101  -5.681  -7.445  0.00  0.00     0.275 HD
ENDBRANCH   5  18
ENDBRANCH   2   5
BRANCH   3  22
HETATM   22  C           1     -21.600  -7.515  -3.784  0.00  0.00     0.187 C 
BRANCH  22  23
HETATM   23  C           1     -20.926  -8.879  -3.701  0.00  0.00     0.066 C 
BRANCH  23  24
HETATM   24  C           1     -21.887  -9.884  -3.079  0.00  0.00     0.273 C 
BRANCH  24  25
HETATM   25  N           1     -21.360 -10.336  -1.820  0.00  0.00     0.098 N 
HETATM   26  H           1     -20.720  -9.634  -1.448  0.00  0.00     0.317 HD
BRANCH  25  27
HETATM   27  C           1     -22.467 -10.501  -0.917  0.00  0.00     0.320 C 
BRANCH  27  28
HETATM   28  C           1     -22.376 -11.866  -0.247  0.00  0.00     0.049 C 
BRANCH  28  29
HETATM   29 Se           1     -23.743 -13.045  -0.981  0.00  0.00     0.000 Se
HETATM   30  H           1     -22.781 -14.045  -1.471  0.00  0.00     0.000 HD
ENDBRANCH  28  29
ENDBRANCH  27  28
BRANCH  27  31
HETATM   31  C           1     -22.424  -9.420   0.135  0.00  0.00     0.207 C 
HETATM   32  O           1     -21.443  -9.334   0.904  0.00  0.00    -0.646 OA
HETATM   33  O           1     -23.371  -8.609   0.236  0.00  0.00    -0.646 OA
ENDBRANCH  27  31
ENDBRANCH  25  27
ENDBRANCH  24  25
ENDBRANCH  23  24
ENDBRANCH  22  23
BRANCH  22  34
HETATM   34  C           1     -21.541  -6.841  -2.435  0.00  0.00     0.196 C 
HETATM   35  O           1     -22.367  -5.949  -2.145  0.00  0.00    -0.646 OA
HETATM   36  O           1     -20.666  -7.176  -1.607  0.00  0.00    -0.646 OA
ENDBRANCH  22  34
ENDBRANCH   3  22
TORSDOF 15
ENDMDL
MODEL 8
REMARK VINA RESULT:      -6.1      1.291      1.589
REMARK  15 active torsions:
REMARK  status: ('A' for Active; 'I' for Inactive)
REMARK    1  A    between atoms: C_2  and  C_28 
REMARK    2  A    between atoms: C_2  and  C_3 
REMARK    3  A    between atoms: C_2  and  N_24 
REMARK    4  A    between atoms: N_13  and  C_15 
REMARK    5  A    between atoms: N_13  and  C_14 
REMARK    6  A    between atoms: C_14  and  C_28 
REMARK    7  A    between atoms: C_15  and  C_36 
REMARK    8  A    between atoms: C_15  and  C_16 
REMARK    9  A    between atoms: C_20  and  C_21 
REMARK   10  A    between atoms: C_20  and  C_25 
REMARK   11  A    between atoms: C_21  and  C_22 
REMARK   12  A    between atoms: C_22  and  C_23 
REMARK   13  A    between atoms: C_22  and  N_30 
REMARK       I    between atoms: C_23  and  N_24 
REMARK   14  A    between atoms: C_25  and  N_26 
REMARK       I    between atoms: N_26  and  C_33 
REMARK       I    between atoms: N_31  and  C_33 
REMARK   15  A    between atoms: Se_35  and  C_36 
ROOT
HETATM    1  H           1     -22.439  -7.077  -6.087  0.00  0.00     0.163 HD
HETATM    2  C           1     -21.330  -5.356  -6.396  0.00  0.00     0.249 C 
HETATM    3  N           1     -21.631  -6.545  -5.787  0.00  0.00    -0.345 N 
HETATM    4  O           1     -20.366  -4.722  -6.038  0.00  0.00    -0.271 OA
ENDROOT
BRANCH   2   5
HETATM    5  C           1     -22.203  -4.837  -7.512  0.00  0.00     0.274 C 
BRANCH   5   6
HETATM    6  C           1     -21.519  -3.653  -8.182  0.00  0.00     0.044 C 
BRANCH   6   7
HETATM    7  C           1     -21.203  -4.002  -9.631  0.00  0.00     0.023 C 
BRANCH   7   8
HETATM    8  C           1     -22.433  -3.753 -10.494  0.00  0.00     0.138 C 
BRANCH   8   9
HETATM    9  N           1     -22.056  -3.815 -11.914  0.00  0.00    -0.227 N 
HETATM   10  H           1     -21.253  -4.420 -12.218  0.00  0.00     0.177 HD
HETATM   11  C           1     -22.699  -3.139 -12.769  0.00  0.00     0.665 C 
HETATM   12  N           1     -23.693  -2.389 -12.393  0.00  0.00    -0.235 N 
HETATM   13  N           1     -22.376  -3.192 -13.992  0.00  0.00    -0.235 N 
HETATM   14  H           1     -23.960  -2.346 -11.383  0.00  0.00     0.174 HD
HETATM   15  H           1     -24.224  -1.831 -13.098  0.00  0.00     0.174 HD
HETATM   16  H           1     -22.909  -2.632 -14.701  0.00  0.00     0.174 HD
HETATM   17  H           1     -21.573  -3.797 -14.297  0.00  0.00     0.174 HD
ENDBRANCH   8   9
ENDBRANCH   7   8
ENDBRANCH   6   7
ENDBRANCH   5   6
BRANCH   5  18
HETATM   18  N           1     -23.524  -4.400  -6.951  0.00  0.00    -0.067 N 
HETATM   19  H           1     -23.551  -3.358  -6.895  0.00  0.00     0.275 HD
HETATM   20  H           1     -24.294  -4.734  -7.575  0.00  0.00     0.275 HD
HETATM   21  H           1     -23.648  -4.805  -5.996  0.00  0.00     0.275 HD
ENDBRANCH   5  18
ENDBRANCH   2   5
BRANCH   3  22
HETATM   22  C           1     -20.793  -7.044  -4.714  0.00  0.00     0.187 C 
BRANCH  22  23
HETATM   23  C           1     -21.611  -7.140  -3.434  0.00  0.00     0.066 C 
BRANCH  23  24
HETATM   24  C           1     -20.779  -7.807  -2.347  0.00  0.00     0.273 C 
BRANCH  24  25
HETATM   25  N           1     -21.489  -7.753  -1.097  0.00  0.00     0.098 N 
HETATM   26  H           1     -22.353  -7.225  -1.220  0.00  0.00     0.317 HD
BRANCH  25  27
HETATM   27  C           1     -21.801  -9.103  -0.713  0.00  0.00     0.320 C 
BRANCH  27  28
HETATM   28  C           1     -21.183 -10.070  -1.715  0.00  0.00     0.049 C 
BRANCH  28  29
HETATM   29 Se           1     -22.586 -11.161  -2.517  0.00  0.00     0.000 Se
HETATM   30  H           1     -21.655 -11.977  -3.312  0.00  0.00     0.000 HD
ENDBRANCH  28  29
ENDBRANCH  27  28
BRANCH  27  31
HETATM   31  C           1     -21.242  -9.377   0.662  0.00  0.00     0.207 C 
HETATM   32  O           1     -21.179  -8.458   1.506  0.00  0.00    -0.646 OA
HETATM   33  O           1     -20.842 -10.525   0.956  0.00  0.00    -0.646 OA
ENDBRANCH  27  31
ENDBRANCH  25  27
ENDBRANCH  24  25
ENDBRANCH  23  24
ENDBRANCH  22  23
BRANCH  22  34
HETATM   34  C           1     -20.268  -8.410  -5.081  0.00  0.00     0.196 C 
HETATM   35  O           1     -21.033  -9.257  -5.591  0.00  0.00    -0.646 OA
HETATM   36  O           1     -19.068  -8.695  -4.874  0.00  0.00    -0.646 OA
ENDBRANCH  22  34
ENDBRANCH   3  22
TORSDOF 15
ENDMDL
MODEL 9
REMARK VINA RESULT:      -6.0      2.607      3.734
REMARK  15 active torsions:
REMARK  status: ('A' for Active; 'I' for Inactive)
REMARK    1  A    between atoms: C_2  and  C_28 
REMARK    2  A    between atoms: C_2  and  C_3 
REMARK    3  A    between atoms: C_2  and  N_24 
REMARK    4  A    between atoms: N_13  and  C_15 
REMARK    5  A    between atoms: N_13  and  C_14 
REMARK    6  A    between atoms: C_14  and  C_28 
REMARK    7  A    between atoms: C_15  and  C_36 
REMARK    8  A    between atoms: C_15  and  C_16 
REMARK    9  A    between atoms: C_20  and  C_21 
REMARK   10  A    between atoms: C_20  and  C_25 
REMARK   11  A    between atoms: C_21  and  C_22 
REMARK   12  A    between atoms: C_22  and  C_23 
REMARK   13  A    between atoms: C_22  and  N_30 
REMARK       I    between atoms: C_23  and  N_24 
REMARK   14  A    between atoms: C_25  and  N_26 
REMARK       I    between atoms: N_26  and  C_33 
REMARK       I    between atoms: N_31  and  C_33 
REMARK   15  A    between atoms: Se_35  and  C_36 
ROOT
HETATM    1  H           1     -19.875  -6.525  -4.928  0.00  0.00     0.163 HD
HETATM    2  C           1     -21.510  -5.581  -5.777  0.00  0.00     0.249 C 
HETATM    3  N           1     -20.887  -6.484  -4.957  0.00  0.00    -0.345 N 
HETATM    4  O           1     -22.717  -5.531  -5.812  0.00  0.00    -0.271 OA
ENDROOT
BRANCH   2   5
HETATM    5  C           1     -20.691  -4.651  -6.638  0.00  0.00     0.274 C 
BRANCH   5   6
HETATM    6  C           1     -21.613  -3.876  -7.570  0.00  0.00     0.044 C 
BRANCH   6   7
HETATM    7  C           1     -21.476  -4.419  -8.987  0.00  0.00     0.023 C 
BRANCH   7   8
HETATM    8  C           1     -22.390  -3.637  -9.921  0.00  0.00     0.138 C 
BRANCH   8   9
HETATM    9  N           1     -21.915  -3.781 -11.305  0.00  0.00    -0.227 N 
HETATM   10  H           1     -21.044  -4.333 -11.507  0.00  0.00     0.177 HD
HETATM   11  C           1     -22.556  -3.240 -12.253  0.00  0.00     0.665 C 
HETATM   12  N           1     -23.634  -2.557 -12.004  0.00  0.00    -0.235 N 
HETATM   13  N           1     -22.148  -3.364 -13.445  0.00  0.00    -0.235 N 
HETATM   14  H           1     -23.971  -2.456 -11.019  0.00  0.00     0.174 HD
HETATM   15  H           1     -24.163  -2.111 -12.786  0.00  0.00     0.174 HD
HETATM   16  H           1     -22.680  -2.917 -14.231  0.00  0.00     0.174 HD
HETATM   17  H           1     -21.277  -3.916 -13.648  0.00  0.00     0.174 HD
ENDBRANCH   8   9
ENDBRANCH   7   8
ENDBRANCH   6   7
ENDBRANCH   5   6
BRANCH   5  18
HETATM   18  N           1     -19.716  -5.450  -7.450  0.00  0.00    -0.067 N 
HETATM   19  H           1     -20.029  -5.474  -8.446  0.00  0.00     0.275 HD
HETATM   20  H           1     -18.771  -5.007  -7.394  0.00  0.00     0.275 HD
HETATM   21  H           1     -19.667  -6.425  -7.076  0.00  0.00     0.275 HD
ENDBRANCH   5  18
ENDBRANCH   2   5
BRANCH   3  22
HETATM   22  C           1     -21.674  -7.377  -4.131  0.00  0.00     0.187 C 
BRANCH  22  23
HETATM   23  C           1     -21.086  -8.781  -4.200  0.00  0.00     0.066 C 
BRANCH  23  24
HETATM   24  C           1     -19.683  -8.716  -4.789  0.00  0.00     0.273 C 
BRANCH  24  25
HETATM   25  N           1     -18.713  -8.789  -3.729  0.00  0.00     0.098 N 
HETATM   26  H           1     -19.158  -8.543  -2.845  0.00  0.00     0.317 HD
BRANCH  25  27
HETATM   27  C           1     -18.237 -10.144  -3.666  0.00  0.00     0.320 C 
BRANCH  27  28
HETATM   28  C           1     -17.745 -10.573  -5.043  0.00  0.00     0.049 C 
BRANCH  28  29
HETATM   29 Se           1     -18.329 -12.398  -5.403  0.00  0.00     0.000 Se
HETATM   30  H           1     -17.365 -13.012  -4.477  0.00  0.00     0.000 HD
ENDBRANCH  28  29
ENDBRANCH  27  28
BRANCH  27  31
HETATM   31  C           1     -17.101 -10.233  -2.676  0.00  0.00     0.207 C 
HETATM   32  O           1     -17.126 -11.093  -1.770  0.00  0.00    -0.646 OA
HETATM   33  O           1     -16.134  -9.445  -2.763  0.00  0.00    -0.646 OA
ENDBRANCH  27  31
ENDBRANCH  25  27
ENDBRANCH  24  25
ENDBRANCH  23  24
ENDBRANCH  22  23
BRANCH  22  34
HETATM   34  C           1     -21.651  -6.892  -2.703  0.00  0.00     0.196 C 
HETATM   35  O           1     -22.406  -5.961  -2.346  0.00  0.00    -0.646 OA
HETATM   36  O           1     -20.877  -7.420  -1.875  0.00  0.00    -0.646 OA
ENDBRANCH  22  34
ENDBRANCH   3  22
TORSDOF 15
ENDMDL
