MODEL 1
REMARK VINA RESULT:      -6.6      0.000      0.000
REMARK  10 active torsions:
REMARK  status: ('A' for Active; 'I' for Inactive)
REMARK    1  A    between atoms: C_2  and  C_3 
REMARK    2  A    between atoms: C_3  and  C_20 
REMARK    3  A    between atoms: C_3  and  N_14 
REMARK    4  A    between atoms: C_4  and  C_12 
REMARK    5  A    between atoms: C_4  and  C_7 
REMARK    6  A    between atoms: C_4  and  N_13 
REMARK    7  A    between atoms: C_5  and  C_7 
REMARK    8  A    between atoms: C_5  and  S_18 
REMARK    9  A    between atoms: C_10  and  C_11 
REMARK   10  A    between atoms: C_10  and  C_20 
REMARK       I    between atoms: C_11  and  N_15 
REMARK       I    between atoms: C_12  and  N_14 
ROOT
HETATM    1  O           1     -21.680  -3.598  -7.246  0.00  0.00    -0.271 OA
HETATM    2  C           1     -21.692  -4.707  -7.724  0.00  0.00     0.249 C 
HETATM    3  N           1     -22.201  -4.906  -8.979  0.00  0.00    -0.345 N 
HETATM    4  H           1     -22.212  -5.835  -9.380  0.00  0.00     0.163 HD
ENDROOT
BRANCH   3   5
HETATM    5  C           1     -22.725  -3.784  -9.735  0.00  0.00     0.186 C 
BRANCH   5   6
HETATM    6  C           1     -24.233  -3.832  -9.725  0.00  0.00     0.196 C 
HETATM    7  O           1     -24.825  -4.909  -9.948  0.00  0.00    -0.646 OA
HETATM    8  O           1     -24.890  -2.794  -9.493  0.00  0.00    -0.646 OA
ENDBRANCH   5   6
BRANCH   5   9
HETATM    9  C           1     -22.223  -3.862 -11.171  0.00  0.00     0.045 C 
BRANCH   9  10
HETATM   10  C           1     -22.520  -2.551 -11.885  0.00  0.00     0.105 C 
BRANCH  10  11
HETATM   11  C           1     -23.259  -2.834 -13.171  0.00  0.00     0.215 C 
HETATM   12  O           1     -24.467  -2.865 -13.179  0.00  0.00    -0.274 OA
HETATM   13  N           1     -22.560  -3.056 -14.327  0.00  0.00    -0.370 N 
HETATM   14  H           1     -21.549  -3.030 -14.320  0.00  0.00     0.159 HD
HETATM   15  H           1     -23.055  -3.246 -15.189  0.00  0.00     0.159 HD
ENDBRANCH  10  11
ENDBRANCH   9  10
ENDBRANCH   5   9
ENDBRANCH   3   5
BRANCH   2  16
HETATM   16  C           1     -21.148  -5.874  -6.938  0.00  0.00     0.275 C 
BRANCH  16  17
HETATM   17  C           1     -21.111  -5.516  -5.457  0.00  0.00     0.053 C 
BRANCH  17  18
HETATM   18  C           1     -22.095  -6.396  -4.697  0.00  0.00     0.076 C 
BRANCH  18  19
HETATM   19  S           1     -21.260  -7.144  -3.270  0.00  0.00    -0.173 SA
HETATM   20  C           1     -22.184  -6.234  -1.999  0.00  0.00     0.089 C 
ENDBRANCH  18  19
ENDBRANCH  17  18
ENDBRANCH  16  17
BRANCH  16  21
HETATM   21  N           1     -19.759  -6.190  -7.409  0.00  0.00    -0.066 N 
HETATM   22  H           1     -19.340  -6.922  -6.793  0.00  0.00     0.275 HD
HETATM   23  H           1     -19.799  -6.543  -8.392  0.00  0.00     0.275 HD
HETATM   24  H           1     -19.174  -5.326  -7.372  0.00  0.00     0.275 HD
ENDBRANCH  16  21
ENDBRANCH   2  16
TORSDOF 10
ENDMDL
MODEL 2
REMARK VINA RESULT:      -6.1      1.193      1.403
REMARK  10 active torsions:
REMARK  status: ('A' for Active; 'I' for Inactive)
REMARK    1  A    between atoms: C_2  and  C_3 
REMARK    2  A    between atoms: C_3  and  C_20 
REMARK    3  A    between atoms: C_3  and  N_14 
REMARK    4  A    between atoms: C_4  and  C_12 
REMARK    5  A    between atoms: C_4  and  C_7 
REMARK    6  A    between atoms: C_4  and  N_13 
REMARK    7  A    between atoms: C_5  and  C_7 
REMARK    8  A    between atoms: C_5  and  S_18 
REMARK    9  A    between atoms: C_10  and  C_11 
REMARK   10  A    between atoms: C_10  and  C_20 
REMARK       I    between atoms: C_11  and  N_15 
REMARK       I    between atoms: C_12  and  N_14 
ROOT
HETATM    1  O           1     -21.673  -3.305  -7.339  0.00  0.00    -0.271 OA
HETATM    2  C           1     -21.631  -4.441  -7.749  0.00  0.00     0.249 C 
HETATM    3  N           1     -22.127  -4.738  -8.990  0.00  0.00    -0.345 N 
HETATM    4  H           1     -22.093  -5.689  -9.334  0.00  0.00     0.163 HD
ENDROOT
BRANCH   3   5
HETATM    5  C           1     -22.704  -3.690  -9.811  0.00  0.00     0.186 C 
BRANCH   5   6
HETATM    6  C           1     -24.208  -3.810  -9.795  0.00  0.00     0.196 C 
HETATM    7  O           1     -24.752  -4.887 -10.114  0.00  0.00    -0.646 OA
HETATM    8  O           1     -24.909  -2.830  -9.461  0.00  0.00    -0.646 OA
ENDBRANCH   5   6
BRANCH   5   9
HETATM    9  C           1     -22.197  -3.830 -11.240  0.00  0.00     0.045 C 
BRANCH   9  10
HETATM   10  C           1     -22.643  -2.625 -12.058  0.00  0.00     0.105 C 
BRANCH  10  11
HETATM   11  C           1     -23.519  -3.086 -13.198  0.00  0.00     0.215 C 
HETATM   12  O           1     -23.865  -2.302 -14.049  0.00  0.00    -0.274 OA
HETATM   13  N           1     -23.920  -4.394 -13.267  0.00  0.00    -0.370 N 
HETATM   14  H           1     -23.630  -5.051 -12.554  0.00  0.00     0.159 HD
HETATM   15  H           1     -24.507  -4.703 -14.031  0.00  0.00     0.159 HD
ENDBRANCH  10  11
ENDBRANCH   9  10
ENDBRANCH   5   9
ENDBRANCH   3   5
BRANCH   2  16
HETATM   16  C           1     -21.032  -5.530  -6.896  0.00  0.00     0.275 C 
BRANCH  16  17
HETATM   17  C           1     -21.995  -5.881  -5.769  0.00  0.00     0.053 C 
BRANCH  17  18
HETATM   18  C           1     -21.218  -6.477  -4.603  0.00  0.00     0.076 C 
BRANCH  18  19
HETATM   19  S           1     -21.327  -8.288  -4.665  0.00  0.00    -0.173 SA
HETATM   20  C           1     -19.558  -8.584  -4.945  0.00  0.00     0.089 C 
ENDBRANCH  18  19
ENDBRANCH  17  18
ENDBRANCH  16  17
BRANCH  16  21
HETATM   21  N           1     -19.735  -5.051  -6.312  0.00  0.00    -0.066 N 
HETATM   22  H           1     -19.036  -5.827  -6.333  0.00  0.00     0.275 HD
HETATM   23  H           1     -19.378  -4.246  -6.874  0.00  0.00     0.275 HD
HETATM   24  H           1     -19.889  -4.748  -5.324  0.00  0.00     0.275 HD
ENDBRANCH  16  21
ENDBRANCH   2  16
TORSDOF 10
ENDMDL
MODEL 3
REMARK VINA RESULT:      -6.1     12.252     14.296
REMARK  10 active torsions:
REMARK  status: ('A' for Active; 'I' for Inactive)
REMARK    1  A    between atoms: C_2  and  C_3 
REMARK    2  A    between atoms: C_3  and  C_20 
REMARK    3  A    between atoms: C_3  and  N_14 
REMARK    4  A    between atoms: C_4  and  C_12 
REMARK    5  A    between atoms: C_4  and  C_7 
REMARK    6  A    between atoms: C_4  and  N_13 
REMARK    7  A    between atoms: C_5  and  C_7 
REMARK    8  A    between atoms: C_5  and  S_18 
REMARK    9  A    between atoms: C_10  and  C_11 
REMARK   10  A    between atoms: C_10  and  C_20 
REMARK       I    between atoms: C_11  and  N_15 
REMARK       I    between atoms: C_12  and  N_14 
ROOT
HETATM    1  O           1     -34.166  -1.600 -10.010  0.00  0.00    -0.271 OA
HETATM    2  C           1     -35.183  -1.894 -10.592  0.00  0.00     0.249 C 
HETATM    3  N           1     -35.324  -3.143 -11.134  0.00  0.00    -0.345 N 
HETATM    4  H           1     -36.175  -3.390 -11.622  0.00  0.00     0.163 HD
ENDROOT
BRANCH   3   5
HETATM    5  C           1     -34.253  -4.114 -11.008  0.00  0.00     0.186 C 
BRANCH   5   6
HETATM    6  C           1     -33.354  -4.029 -12.217  0.00  0.00     0.196 C 
HETATM    7  O           1     -32.124  -4.204 -12.094  0.00  0.00    -0.646 OA
HETATM    8  O           1     -33.842  -3.783 -13.342  0.00  0.00    -0.646 OA
ENDBRANCH   5   6
BRANCH   5   9
HETATM    9  C           1     -34.846  -5.513 -10.912  0.00  0.00     0.045 C 
BRANCH   9  10
HETATM   10  C           1     -33.726  -6.529 -10.734  0.00  0.00     0.105 C 
BRANCH  10  11
HETATM   11  C           1     -34.295  -7.816 -10.189  0.00  0.00     0.215 C 
HETATM   12  O           1     -35.395  -7.826  -9.689  0.00  0.00    -0.274 OA
HETATM   13  N           1     -33.564  -8.972 -10.261  0.00  0.00    -0.370 N 
HETATM   14  H           1     -32.643  -8.963 -10.680  0.00  0.00     0.159 HD
HETATM   15  H           1     -33.946  -9.835  -9.896  0.00  0.00     0.159 HD
ENDBRANCH  10  11
ENDBRANCH   9  10
ENDBRANCH   5   9
ENDBRANCH   3   5
BRANCH   2  16
HETATM   16  C           1     -36.296  -0.885 -10.724  0.00  0.00     0.275 C 
BRANCH  16  17
HETATM   17  C           1     -36.003   0.046 -11.893  0.00  0.00     0.053 C 
BRANCH  17  18
HETATM   18  C           1     -36.955  -0.266 -13.042  0.00  0.00     0.076 C 
BRANCH  18  19
HETATM   19  S           1     -36.172   0.185 -14.616  0.00  0.00    -0.173 SA
HETATM   20  C           1     -34.738   1.030 -13.889  0.00  0.00     0.089 C 
ENDBRANCH  18  19
ENDBRANCH  17  18
ENDBRANCH  16  17
BRANCH  16  21
HETATM   21  N           1     -36.394  -0.082  -9.460  0.00  0.00    -0.066 N 
HETATM   22  H           1     -35.799  -0.520  -8.722  0.00  0.00     0.275 HD
HETATM   23  H           1     -36.063   0.892  -9.642  0.00  0.00     0.275 HD
HETATM   24  H           1     -37.388  -0.059  -9.138  0.00  0.00     0.275 HD
ENDBRANCH  16  21
ENDBRANCH   2  16
TORSDOF 10
ENDMDL
MODEL 4
REMARK VINA RESULT:      -5.8      2.094      3.085
REMARK  10 active torsions:
REMARK  status: ('A' for Active; 'I' for Inactive)
REMARK    1  A    between atoms: C_2  and  C_3 
REMARK    2  A    between atoms: C_3  and  C_20 
REMARK    3  A    between atoms: C_3  and  N_14 
REMARK    4  A    between atoms: C_4  and  C_12 
REMARK    5  A    between atoms: C_4  and  C_7 
REMARK    6  A    between atoms: C_4  and  N_13 
REMARK    7  A    between atoms: C_5  and  C_7 
REMARK    8  A    between atoms: C_5  and  S_18 
REMARK    9  A    between atoms: C_10  and  C_11 
REMARK   10  A    between atoms: C_10  and  C_20 
REMARK       I    between atoms: C_11  and  N_15 
REMARK       I    between atoms: C_12  and  N_14 
ROOT
HETATM    1  O           1     -19.697  -4.965  -9.886  0.00  0.00    -0.271 OA
HETATM    2  C           1     -20.578  -4.437  -9.249  0.00  0.00     0.249 C 
HETATM    3  N           1     -21.770  -4.136  -9.851  0.00  0.00    -0.345 N 
HETATM    4  H           1     -22.508  -3.694  -9.319  0.00  0.00     0.163 HD
ENDROOT
BRANCH   3   5
HETATM    5  C           1     -21.976  -4.452 -11.252  0.00  0.00     0.186 C 
BRANCH   5   6
HETATM    6  C           1     -21.898  -3.186 -12.069  0.00  0.00     0.196 C 
HETATM    7  O           1     -21.239  -2.212 -11.650  0.00  0.00    -0.646 OA
HETATM    8  O           1     -22.495  -3.112 -13.165  0.00  0.00    -0.646 OA
ENDBRANCH   5   6
BRANCH   5   9
HETATM    9  C           1     -23.347  -5.090 -11.431  0.00  0.00     0.045 C 
BRANCH   9  10
HETATM   10  C           1     -24.141  -4.960 -10.139  0.00  0.00     0.105 C 
BRANCH  10  11
HETATM   11  C           1     -24.830  -3.617 -10.104  0.00  0.00     0.215 C 
HETATM   12  O           1     -25.256  -3.130 -11.124  0.00  0.00    -0.274 OA
HETATM   13  N           1     -24.970  -2.950  -8.916  0.00  0.00    -0.370 N 
HETATM   14  H           1     -24.613  -3.358  -8.061  0.00  0.00     0.159 HD
HETATM   15  H           1     -25.432  -2.050  -8.893  0.00  0.00     0.159 HD
ENDBRANCH  10  11
ENDBRANCH   9  10
ENDBRANCH   5   9
ENDBRANCH   3   5
BRANCH   2  16
HETATM   16  C           1     -20.364  -4.108  -7.793  0.00  0.00     0.275 C 
BRANCH  16  17
HETATM   17  C           1     -20.104  -5.391  -7.015  0.00  0.00     0.053 C 
BRANCH  17  18
HETATM   18  C           1     -21.382  -5.826  -6.310  0.00  0.00     0.076 C 
BRANCH  18  19
HETATM   19  S           1     -21.026  -7.241  -5.230  0.00  0.00    -0.173 SA
HETATM   20  C           1     -21.582  -6.458  -3.689  0.00  0.00     0.089 C 
ENDBRANCH  18  19
ENDBRANCH  17  18
ENDBRANCH  16  17
BRANCH  16  21
HETATM   21  N           1     -21.589  -3.434  -7.248  0.00  0.00    -0.066 N 
HETATM   22  H           1     -22.358  -3.485  -7.954  0.00  0.00     0.275 HD
HETATM   23  H           1     -21.889  -3.916  -6.371  0.00  0.00     0.275 HD
HETATM   24  H           1     -21.373  -2.433  -7.041  0.00  0.00     0.275 HD
ENDBRANCH  16  21
ENDBRANCH   2  16
TORSDOF 10
ENDMDL
MODEL 5
REMARK VINA RESULT:      -5.7      1.579      2.048
REMARK  10 active torsions:
REMARK  status: ('A' for Active; 'I' for Inactive)
REMARK    1  A    between atoms: C_2  and  C_3 
REMARK    2  A    between atoms: C_3  and  C_20 
REMARK    3  A    between atoms: C_3  and  N_14 
REMARK    4  A    between atoms: C_4  and  C_12 
REMARK    5  A    between atoms: C_4  and  C_7 
REMARK    6  A    between atoms: C_4  and  N_13 
REMARK    7  A    between atoms: C_5  and  C_7 
REMARK    8  A    between atoms: C_5  and  S_18 
REMARK    9  A    between atoms: C_10  and  C_11 
REMARK   10  A    between atoms: C_10  and  C_20 
REMARK       I    between atoms: C_11  and  N_15 
REMARK       I    between atoms: C_12  and  N_14 
ROOT
HETATM    1  O           1     -21.776  -3.422  -7.197  0.00  0.00    -0.271 OA
HETATM    2  C           1     -21.928  -4.521  -7.674  0.00  0.00     0.249 C 
HETATM    3  N           1     -22.725  -4.684  -8.776  0.00  0.00    -0.345 N 
HETATM    4  H           1     -22.853  -5.604  -9.175  0.00  0.00     0.163 HD
ENDROOT
BRANCH   3   5
HETATM    5  C           1     -23.386  -3.537  -9.369  0.00  0.00     0.186 C 
BRANCH   5   6
HETATM    6  C           1     -24.839  -3.865  -9.612  0.00  0.00     0.196 C 
HETATM    7  O           1     -25.211  -5.056  -9.662  0.00  0.00    -0.646 OA
HETATM    8  O           1     -25.670  -2.944  -9.763  0.00  0.00    -0.646 OA
ENDBRANCH   5   6
BRANCH   5   9
HETATM    9  C           1     -22.714  -3.193 -10.691  0.00  0.00     0.045 C 
BRANCH   9  10
HETATM   10  C           1     -21.927  -4.398 -11.189  0.00  0.00     0.105 C 
BRANCH  10  11
HETATM   11  C           1     -20.448  -4.113 -11.079  0.00  0.00     0.215 C 
HETATM   12  O           1     -19.702  -4.956 -10.641  0.00  0.00    -0.274 OA
HETATM   13  N           1     -19.954  -2.900 -11.477  0.00  0.00    -0.370 N 
HETATM   14  H           1     -20.579  -2.194 -11.844  0.00  0.00     0.159 HD
HETATM   15  H           1     -18.963  -2.709 -11.403  0.00  0.00     0.159 HD
ENDBRANCH  10  11
ENDBRANCH   9  10
ENDBRANCH   5   9
ENDBRANCH   3   5
BRANCH   2  16
HETATM   16  C           1     -21.241  -5.714  -7.058  0.00  0.00     0.275 C 
BRANCH  16  17
HETATM   17  C           1     -21.044  -5.472  -5.567  0.00  0.00     0.053 C 
BRANCH  17  18
HETATM   18  C           1     -21.758  -6.560  -4.776  0.00  0.00     0.076 C 
BRANCH  18  19
HETATM   19  S           1     -21.528  -6.267  -3.000  0.00  0.00    -0.173 SA
HETATM   20  C           1     -21.321  -8.010  -2.536  0.00  0.00     0.089 C 
ENDBRANCH  18  19
ENDBRANCH  17  18
ENDBRANCH  16  17
BRANCH  16  21
HETATM   21  N           1     -19.906  -5.915  -7.712  0.00  0.00    -0.066 N 
HETATM   22  H           1     -19.204  -6.196  -6.991  0.00  0.00     0.275 HD
HETATM   23  H           1     -19.983  -6.665  -8.434  0.00  0.00     0.275 HD
HETATM   24  H           1     -19.602  -5.023  -8.164  0.00  0.00     0.275 HD
ENDBRANCH  16  21
ENDBRANCH   2  16
TORSDOF 10
ENDMDL
MODEL 6
REMARK VINA RESULT:      -5.6      2.353      3.124
REMARK  10 active torsions:
REMARK  status: ('A' for Active; 'I' for Inactive)
REMARK    1  A    between atoms: C_2  and  C_3 
REMARK    2  A    between atoms: C_3  and  C_20 
REMARK    3  A    between atoms: C_3  and  N_14 
REMARK    4  A    between atoms: C_4  and  C_12 
REMARK    5  A    between atoms: C_4  and  C_7 
REMARK    6  A    between atoms: C_4  and  N_13 
REMARK    7  A    between atoms: C_5  and  C_7 
REMARK    8  A    between atoms: C_5  and  S_18 
REMARK    9  A    between atoms: C_10  and  C_11 
REMARK   10  A    between atoms: C_10  and  C_20 
REMARK       I    between atoms: C_11  and  N_15 
REMARK       I    between atoms: C_12  and  N_14 
ROOT
HETATM    1  O           1     -21.070  -6.954  -7.044  0.00  0.00    -0.271 OA
HETATM    2  C           1     -21.353  -5.977  -6.393  0.00  0.00     0.249 C 
HETATM    3  N           1     -21.761  -4.831  -7.021  0.00  0.00    -0.345 N 
HETATM    4  H           1     -21.997  -4.012  -6.476  0.00  0.00     0.163 HD
ENDROOT
BRANCH   3   5
HETATM    5  C           1     -21.852  -4.791  -8.468  0.00  0.00     0.186 C 
BRANCH   5   6
HETATM    6  C           1     -20.591  -4.187  -9.034  0.00  0.00     0.196 C 
HETATM    7  O           1     -19.695  -3.777  -8.266  0.00  0.00    -0.646 OA
HETATM    8  O           1     -20.442  -4.097 -10.272  0.00  0.00    -0.646 OA
ENDBRANCH   5   6
BRANCH   5   9
HETATM    9  C           1     -23.049  -3.943  -8.876  0.00  0.00     0.045 C 
BRANCH   9  10
HETATM   10  C           1     -23.909  -4.719  -9.865  0.00  0.00     0.105 C 
BRANCH  10  11
HETATM   11  C           1     -23.922  -4.001 -11.193  0.00  0.00     0.215 C 
HETATM   12  O           1     -24.789  -3.195 -11.435  0.00  0.00    -0.274 OA
HETATM   13  N           1     -22.952  -4.264 -12.123  0.00  0.00    -0.370 N 
HETATM   14  H           1     -22.226  -4.939 -11.920  0.00  0.00     0.159 HD
HETATM   15  H           1     -22.961  -3.783 -13.013  0.00  0.00     0.159 HD
ENDBRANCH  10  11
ENDBRANCH   9  10
ENDBRANCH   5   9
ENDBRANCH   3   5
BRANCH   2  16
HETATM   16  C           1     -21.258  -6.019  -4.888  0.00  0.00     0.275 C 
BRANCH  16  17
HETATM   17  C           1     -20.434  -7.229  -4.464  0.00  0.00     0.053 C 
BRANCH  17  18
HETATM   18  C           1     -21.285  -8.142  -3.591  0.00  0.00     0.076 C 
BRANCH  18  19
HETATM   19  S           1     -20.517  -8.299  -1.953  0.00  0.00    -0.173 SA
HETATM   20  C           1     -19.220  -9.467  -2.454  0.00  0.00     0.089 C 
ENDBRANCH  18  19
ENDBRANCH  17  18
ENDBRANCH  16  17
BRANCH  16  21
HETATM   21  N           1     -22.635  -6.124  -4.303  0.00  0.00    -0.066 N 
HETATM   22  H           1     -23.345  -6.011  -5.061  0.00  0.00     0.275 HD
HETATM   23  H           1     -22.751  -7.061  -3.854  0.00  0.00     0.275 HD
HETATM   24  H           1     -22.767  -5.375  -3.587  0.00  0.00     0.275 HD
ENDBRANCH  16  21
ENDBRANCH   2  16
TORSDOF 10
ENDMDL
MODEL 7
REMARK VINA RESULT:      -5.5     12.566     14.380
REMARK  10 active torsions:
REMARK  status: ('A' for Active; 'I' for Inactive)
REMARK    1  A    between atoms: C_2  and  C_3 
REMARK    2  A    between atoms: C_3  and  C_20 
REMARK    3  A    between atoms: C_3  and  N_14 
REMARK    4  A    between atoms: C_4  and  C_12 
REMARK    5  A    between atoms: C_4  and  C_7 
REMARK    6  A    between atoms: C_4  and  N_13 
REMARK    7  A    between atoms: C_5  and  C_7 
REMARK    8  A    between atoms: C_5  and  S_18 
REMARK    9  A    between atoms: C_10  and  C_11 
REMARK   10  A    between atoms: C_10  and  C_20 
REMARK       I    between atoms: C_11  and  N_15 
REMARK       I    between atoms: C_12  and  N_14 
ROOT
HETATM    1  O           1     -33.955  -1.066 -11.378  0.00  0.00    -0.271 OA
HETATM    2  C           1     -35.111  -1.411 -11.445  0.00  0.00     0.249 C 
HETATM    3  N           1     -35.421  -2.740 -11.556  0.00  0.00    -0.345 N 
HETATM    4  H           1     -36.389  -3.030 -11.613  0.00  0.00     0.163 HD
ENDROOT
BRANCH   3   5
HETATM    5  C           1     -34.363  -3.732 -11.593  0.00  0.00     0.186 C 
BRANCH   5   6
HETATM    6  C           1     -34.332  -4.381 -12.955  0.00  0.00     0.196 C 
HETATM    7  O           1     -33.436  -4.079 -13.771  0.00  0.00    -0.646 OA
HETATM    8  O           1     -35.202  -5.224 -13.265  0.00  0.00    -0.646 OA
ENDBRANCH   5   6
BRANCH   5   9
HETATM    9  C           1     -34.624  -4.791 -10.530  0.00  0.00     0.045 C 
BRANCH   9  10
HETATM   10  C           1     -33.724  -5.993 -10.779  0.00  0.00     0.105 C 
BRANCH  10  11
HETATM   11  C           1     -34.377  -7.235 -10.223  0.00  0.00     0.215 C 
HETATM   12  O           1     -35.387  -7.144  -9.566  0.00  0.00    -0.274 OA
HETATM   13  N           1     -33.825  -8.465 -10.463  0.00  0.00    -0.370 N 
HETATM   14  H           1     -32.979  -8.541 -11.013  0.00  0.00     0.159 HD
HETATM   15  H           1     -34.263  -9.297 -10.090  0.00  0.00     0.159 HD
ENDBRANCH  10  11
ENDBRANCH   9  10
ENDBRANCH   5   9
ENDBRANCH   3   5
BRANCH   2  16
HETATM   16  C           1     -36.211  -0.380 -11.407  0.00  0.00     0.275 C 
BRANCH  16  17
HETATM   17  C           1     -37.281  -0.814 -10.413  0.00  0.00     0.053 C 
BRANCH  17  18
HETATM   18  C           1     -38.067   0.405  -9.949  0.00  0.00     0.076 C 
BRANCH  18  19
HETATM   19  S           1     -37.155   1.245  -8.624  0.00  0.00    -0.173 SA
HETATM   20  C           1     -37.492   0.009  -7.337  0.00  0.00     0.089 C 
ENDBRANCH  18  19
ENDBRANCH  17  18
ENDBRANCH  16  17
BRANCH  16  21
HETATM   21  N           1     -36.821  -0.251 -12.772  0.00  0.00    -0.066 N 
HETATM   22  H           1     -36.438  -0.995 -13.397  0.00  0.00     0.275 HD
HETATM   23  H           1     -37.858  -0.358 -12.699  0.00  0.00     0.275 HD
HETATM   24  H           1     -36.593   0.688 -13.168  0.00  0.00     0.275 HD
ENDBRANCH  16  21
ENDBRANCH   2  16
TORSDOF 10
ENDMDL
MODEL 8
REMARK VINA RESULT:      -5.4      2.350      2.732
REMARK  10 active torsions:
REMARK  status: ('A' for Active; 'I' for Inactive)
REMARK    1  A    between atoms: C_2  and  C_3 
REMARK    2  A    between atoms: C_3  and  C_20 
REMARK    3  A    between atoms: C_3  and  N_14 
REMARK    4  A    between atoms: C_4  and  C_12 
REMARK    5  A    between atoms: C_4  and  C_7 
REMARK    6  A    between atoms: C_4  and  N_13 
REMARK    7  A    between atoms: C_5  and  C_7 
REMARK    8  A    between atoms: C_5  and  S_18 
REMARK    9  A    between atoms: C_10  and  C_11 
REMARK   10  A    between atoms: C_10  and  C_20 
REMARK       I    between atoms: C_11  and  N_15 
REMARK       I    between atoms: C_12  and  N_14 
ROOT
HETATM    1  O           1     -21.084  -5.208  -8.934  0.00  0.00    -0.271 OA
HETATM    2  C           1     -21.893  -4.389  -8.568  0.00  0.00     0.249 C 
HETATM    3  N           1     -22.623  -3.690  -9.491  0.00  0.00    -0.345 N 
HETATM    4  H           1     -23.301  -3.004  -9.186  0.00  0.00     0.163 HD
ENDROOT
BRANCH   3   5
HETATM    5  C           1     -22.427  -3.935 -10.907  0.00  0.00     0.186 C 
BRANCH   5   6
HETATM    6  C           1     -21.040  -3.491 -11.305  0.00  0.00     0.196 C 
HETATM    7  O           1     -20.755  -2.275 -11.328  0.00  0.00    -0.646 OA
HETATM    8  O           1     -20.177  -4.341 -11.612  0.00  0.00    -0.646 OA
ENDBRANCH   5   6
BRANCH   5   9
HETATM    9  C           1     -23.460  -3.151 -11.705  0.00  0.00     0.045 C 
BRANCH   9  10
HETATM   10  C           1     -23.560  -3.726 -13.112  0.00  0.00     0.105 C 
BRANCH  10  11
HETATM   11  C           1     -23.365  -2.621 -14.122  0.00  0.00     0.215 C 
HETATM   12  O           1     -22.633  -2.790 -15.068  0.00  0.00    -0.274 OA
HETATM   13  N           1     -24.017  -1.427 -13.965  0.00  0.00    -0.370 N 
HETATM   14  H           1     -24.630  -1.286 -13.172  0.00  0.00     0.159 HD
HETATM   15  H           1     -23.887  -0.687 -14.642  0.00  0.00     0.159 HD
ENDBRANCH  10  11
ENDBRANCH   9  10
ENDBRANCH   5   9
ENDBRANCH   3   5
BRANCH   2  16
HETATM   16  C           1     -22.097  -4.135  -7.095  0.00  0.00     0.275 C 
BRANCH  16  17
HETATM   17  C           1     -21.034  -4.880  -6.298  0.00  0.00     0.053 C 
BRANCH  17  18
HETATM   18  C           1     -21.692  -5.989  -5.487  0.00  0.00     0.076 C 
BRANCH  18  19
HETATM   19  S           1     -20.511  -7.348  -5.252  0.00  0.00    -0.173 SA
HETATM   20  C           1     -21.648  -8.445  -4.357  0.00  0.00     0.089 C 
ENDBRANCH  18  19
ENDBRANCH  17  18
ENDBRANCH  16  17
BRANCH  16  21
HETATM   21  N           1     -23.457  -4.621  -6.689  0.00  0.00    -0.066 N 
HETATM   22  H           1     -23.358  -5.453  -6.065  0.00  0.00     0.275 HD
HETATM   23  H           1     -23.958  -3.860  -6.177  0.00  0.00     0.275 HD
HETATM   24  H           1     -24.001  -4.886  -7.540  0.00  0.00     0.275 HD
ENDBRANCH  16  21
ENDBRANCH   2  16
TORSDOF 10
ENDMDL
MODEL 9
REMARK VINA RESULT:      -5.3      3.949      7.949
REMARK  10 active torsions:
REMARK  status: ('A' for Active; 'I' for Inactive)
REMARK    1  A    between atoms: C_2  and  C_3 
REMARK    2  A    between atoms: C_3  and  C_20 
REMARK    3  A    between atoms: C_3  and  N_14 
REMARK    4  A    between atoms: C_4  and  C_12 
REMARK    5  A    between atoms: C_4  and  C_7 
REMARK    6  A    between atoms: C_4  and  N_13 
REMARK    7  A    between atoms: C_5  and  C_7 
REMARK    8  A    between atoms: C_5  and  S_18 
REMARK    9  A    between atoms: C_10  and  C_11 
REMARK   10  A    between atoms: C_10  and  C_20 
REMARK       I    between atoms: C_11  and  N_15 
REMARK       I    between atoms: C_12  and  N_14 
ROOT
HETATM    1  O           1     -22.671  -5.609  -5.765  0.00  0.00    -0.271 OA
HETATM    2  C           1     -21.468  -5.722  -5.792  0.00  0.00     0.249 C 
HETATM    3  N           1     -20.848  -6.624  -4.970  0.00  0.00    -0.345 N 
HETATM    4  H           1     -19.841  -6.719  -4.992  0.00  0.00     0.163 HD
ENDROOT
BRANCH   3   5
HETATM    5  C           1     -21.634  -7.443  -4.068  0.00  0.00     0.186 C 
BRANCH   5   6
HETATM    6  C           1     -21.585  -6.851  -2.681  0.00  0.00     0.196 C 
HETATM    7  O           1     -20.791  -7.311  -1.833  0.00  0.00    -0.646 OA
HETATM    8  O           1     -22.339  -5.900  -2.380  0.00  0.00    -0.646 OA
ENDBRANCH   5   6
BRANCH   5   9
HETATM    9  C           1     -21.064  -8.855  -4.039  0.00  0.00     0.045 C 
BRANCH   9  10
HETATM   10  C           1     -19.794  -8.907  -4.877  0.00  0.00     0.105 C 
BRANCH  10  11
HETATM   11  C           1     -18.629  -9.301  -4.002  0.00  0.00     0.215 C 
HETATM   12  O           1     -17.577  -9.619  -4.504  0.00  0.00    -0.274 OA
HETATM   13  N           1     -18.764  -9.297  -2.639  0.00  0.00    -0.370 N 
HETATM   14  H           1     -19.645  -9.030  -2.219  0.00  0.00     0.159 HD
HETATM   15  H           1     -17.983  -9.560  -2.053  0.00  0.00     0.159 HD
ENDBRANCH  10  11
ENDBRANCH   9  10
ENDBRANCH   5   9
ENDBRANCH   3   5
BRANCH   2  16
HETATM   16  C           1     -20.651  -4.870  -6.730  0.00  0.00     0.275 C 
BRANCH  16  17
HETATM   17  C           1     -21.528  -3.768  -7.311  0.00  0.00     0.053 C 
BRANCH  17  18
HETATM   18  C           1     -21.835  -4.078  -8.770  0.00  0.00     0.076 C 
BRANCH  18  19
HETATM   19  S           1     -23.628  -4.005  -9.040  0.00  0.00    -0.173 SA
HETATM   20  C           1     -23.625  -4.881 -10.630  0.00  0.00     0.089 C 
ENDBRANCH  18  19
ENDBRANCH  17  18
ENDBRANCH  16  17
BRANCH  16  21
HETATM   21  N           1     -20.119  -5.722  -7.844  0.00  0.00    -0.066 N 
HETATM   22  H           1     -20.135  -6.726  -7.553  0.00  0.00     0.275 HD
HETATM   23  H           1     -20.715  -5.596  -8.692  0.00  0.00     0.275 HD
HETATM   24  H           1     -19.137  -5.438  -8.061  0.00  0.00     0.275 HD
ENDBRANCH  16  21
ENDBRANCH   2  16
TORSDOF 10
ENDMDL
