MODEL 1
REMARK VINA RESULT:      -6.5      0.000      0.000
REMARK  10 active torsions:
REMARK  status: ('A' for Active; 'I' for Inactive)
REMARK    1  A    between atoms: O_1  and  C_2 
REMARK    2  A    between atoms: C_2  and  C_3 
REMARK    3  A    between atoms: C_3  and  C_4 
REMARK    4  A    between atoms: C_3  and  N_18 
REMARK    5  A    between atoms: N_9  and  C_16 
REMARK    6  A    between atoms: O_12  and  P_13 
REMARK    7  A    between atoms: P_13  and  O_14 
REMARK    8  A    between atoms: O_14  and  C_15 
REMARK    9  A    between atoms: C_15  and  C_16 
REMARK   10  A    between atoms: C_16  and  C_17 
REMARK       I    between atoms: C_17  and  N_18 
ROOT
HETATM    1  C           1     -29.038  -6.677 -17.257  0.00  0.00     0.298 C 
ENDROOT
BRANCH   1   2
HETATM    2  N           1     -29.560  -8.084 -17.259  0.00  0.00    -0.064 N 
HETATM    3  H           1     -30.038  -8.277 -18.168  0.00  0.00     0.275 HD
HETATM    4  H           1     -28.765  -8.751 -17.135  0.00  0.00     0.275 HD
HETATM    5  H           1     -30.242  -8.203 -16.476  0.00  0.00     0.275 HD
ENDBRANCH   1   2
BRANCH   1   6
HETATM    6  C           1     -28.008  -6.520 -16.146  0.00  0.00     0.224 C 
BRANCH   6   7
HETATM    7  O           1     -26.840  -5.946 -16.668  0.00  0.00    -0.287 OA
BRANCH   7   8
HETATM    8  P           1     -25.455  -6.409 -15.979  0.00  0.00     0.406 P 
HETATM    9  O           1     -25.686  -7.639 -15.188  0.00  0.00    -0.624 OA
HETATM   10  O           1     -24.965  -5.334 -15.088  0.00  0.00    -0.624 OA
BRANCH   8  11
HETATM   11  O           1     -24.354  -6.704 -17.123  0.00  0.00    -0.300 OA
HETATM   12  H           1     -23.573  -6.269 -16.828  0.00  0.00     0.223 HD
ENDBRANCH   8  11
ENDBRANCH   7   8
ENDBRANCH   6   7
ENDBRANCH   1   6
BRANCH   1  13
HETATM   13  C           1     -28.392  -6.380 -18.588  0.00  0.00     0.251 C 
HETATM   14  O           1     -28.596  -5.321 -19.135  0.00  0.00    -0.271 OA
HETATM   15  N           1     -27.576  -7.308 -19.177  0.00  0.00    -0.343 N 
HETATM   16  H           1     -27.405  -8.194 -18.719  0.00  0.00     0.163 HD
BRANCH  15  17
HETATM   17  C           1     -26.957  -7.021 -20.456  0.00  0.00     0.209 C 
BRANCH  17  18
HETATM   18  C           1     -25.541  -6.508 -20.229  0.00  0.00     0.200 C 
BRANCH  18  19
HETATM   19  O           1     -24.764  -7.520 -19.646  0.00  0.00    -0.398 OA
HETATM   20  H           1     -25.022  -7.577 -18.742  0.00  0.00     0.209 HD
ENDBRANCH  18  19
ENDBRANCH  17  18
BRANCH  17  21
HETATM   21  C           1     -26.909  -8.281 -21.285  0.00  0.00     0.198 C 
HETATM   22  O           1     -27.929  -8.995 -21.395  0.00  0.00    -0.646 OA
HETATM   23  O           1     -25.849  -8.611 -21.861  0.00  0.00    -0.646 OA
ENDBRANCH  17  21
ENDBRANCH  15  17
ENDBRANCH   1  13
TORSDOF 10
ENDMDL
MODEL 2
REMARK VINA RESULT:      -6.0      8.332     11.285
REMARK  10 active torsions:
REMARK  status: ('A' for Active; 'I' for Inactive)
REMARK    1  A    between atoms: O_1  and  C_2 
REMARK    2  A    between atoms: C_2  and  C_3 
REMARK    3  A    between atoms: C_3  and  C_4 
REMARK    4  A    between atoms: C_3  and  N_18 
REMARK    5  A    between atoms: N_9  and  C_16 
REMARK    6  A    between atoms: O_12  and  P_13 
REMARK    7  A    between atoms: P_13  and  O_14 
REMARK    8  A    between atoms: O_14  and  C_15 
REMARK    9  A    between atoms: C_15  and  C_16 
REMARK   10  A    between atoms: C_16  and  C_17 
REMARK       I    between atoms: C_17  and  N_18 
ROOT
HETATM    1  C           1     -22.769  -4.084 -11.155  0.00  0.00     0.298 C 
ENDROOT
BRANCH   1   2
HETATM    2  N           1     -23.692  -5.224 -11.468  0.00  0.00    -0.064 N 
HETATM    3  H           1     -23.698  -5.898 -10.669  0.00  0.00     0.275 HD
HETATM    4  H           1     -24.659  -4.858 -11.621  0.00  0.00     0.275 HD
HETATM    5  H           1     -23.363  -5.713 -12.331  0.00  0.00     0.275 HD
ENDBRANCH   1   2
BRANCH   1   6
HETATM    6  C           1     -23.241  -2.833 -11.884  0.00  0.00     0.224 C 
BRANCH   6   7
HETATM    7  O           1     -22.476  -2.651 -13.045  0.00  0.00    -0.287 OA
BRANCH   7   8
HETATM    8  P           1     -23.281  -2.730 -14.443  0.00  0.00     0.406 P 
HETATM    9  O           1     -22.320  -2.676 -15.568  0.00  0.00    -0.624 OA
HETATM   10  O           1     -24.217  -1.588 -14.537  0.00  0.00    -0.624 OA
BRANCH   8  11
HETATM   11  O           1     -24.111  -4.113 -14.511  0.00  0.00    -0.300 OA
HETATM   12  H           1     -25.010  -3.854 -14.615  0.00  0.00     0.223 HD
ENDBRANCH   8  11
ENDBRANCH   7   8
ENDBRANCH   6   7
ENDBRANCH   1   6
BRANCH   1  13
HETATM   13  C           1     -22.769  -3.831  -9.668  0.00  0.00     0.251 C 
HETATM   14  O           1     -23.645  -3.164  -9.169  0.00  0.00    -0.271 OA
HETATM   15  N           1     -21.778  -4.358  -8.883  0.00  0.00    -0.343 N 
HETATM   16  H           1     -21.046  -4.917  -9.300  0.00  0.00     0.163 HD
BRANCH  15  17
HETATM   17  C           1     -21.780  -4.114  -7.453  0.00  0.00     0.209 C 
BRANCH  17  18
HETATM   18  C           1     -22.723  -5.098  -6.773  0.00  0.00     0.200 C 
BRANCH  18  19
HETATM   19  O           1     -23.977  -4.496  -6.594  0.00  0.00    -0.398 OA
HETATM   20  H           1     -24.165  -4.524  -5.672  0.00  0.00     0.209 HD
ENDBRANCH  18  19
ENDBRANCH  17  18
BRANCH  17  21
HETATM   21  C           1     -20.384  -4.298  -6.911  0.00  0.00     0.198 C 
HETATM   22  O           1     -20.209  -4.497  -5.690  0.00  0.00    -0.646 OA
HETATM   23  O           1     -19.402  -4.252  -7.684  0.00  0.00    -0.646 OA
ENDBRANCH  17  21
ENDBRANCH  15  17
ENDBRANCH   1  13
TORSDOF 10
ENDMDL
MODEL 3
REMARK VINA RESULT:      -5.9      8.214     11.064
REMARK  10 active torsions:
REMARK  status: ('A' for Active; 'I' for Inactive)
REMARK    1  A    between atoms: O_1  and  C_2 
REMARK    2  A    between atoms: C_2  and  C_3 
REMARK    3  A    between atoms: C_3  and  C_4 
REMARK    4  A    between atoms: C_3  and  N_18 
REMARK    5  A    between atoms: N_9  and  C_16 
REMARK    6  A    between atoms: O_12  and  P_13 
REMARK    7  A    between atoms: P_13  and  O_14 
REMARK    8  A    between atoms: O_14  and  C_15 
REMARK    9  A    between atoms: C_15  and  C_16 
REMARK   10  A    between atoms: C_16  and  C_17 
REMARK       I    between atoms: C_17  and  N_18 
ROOT
HETATM    1  C           1     -23.882  -4.394 -10.646  0.00  0.00     0.298 C 
ENDROOT
BRANCH   1   2
HETATM    2  N           1     -24.957  -4.531  -9.609  0.00  0.00    -0.064 N 
HETATM    3  H           1     -25.603  -5.308  -9.876  0.00  0.00     0.275 HD
HETATM    4  H           1     -24.523  -4.742  -8.682  0.00  0.00     0.275 HD
HETATM    5  H           1     -25.496  -3.638  -9.547  0.00  0.00     0.275 HD
ENDBRANCH   1   2
BRANCH   1   6
HETATM    6  C           1     -23.946  -3.003 -11.263  0.00  0.00     0.224 C 
BRANCH   6   7
HETATM    7  O           1     -24.596  -3.072 -12.504  0.00  0.00    -0.287 OA
BRANCH   7   8
HETATM    8  P           1     -23.644  -3.010 -13.806  0.00  0.00     0.406 P 
HETATM    9  O           1     -23.787  -1.688 -14.458  0.00  0.00    -0.624 OA
HETATM   10  O           1     -24.039  -4.074 -14.756  0.00  0.00    -0.624 OA
BRANCH   8  11
HETATM   11  O           1     -22.107  -3.227 -13.363  0.00  0.00    -0.300 OA
HETATM   12  H           1     -21.670  -2.426 -13.593  0.00  0.00     0.223 HD
ENDBRANCH   8  11
ENDBRANCH   7   8
ENDBRANCH   6   7
ENDBRANCH   1   6
BRANCH   1  13
HETATM   13  C           1     -22.533  -4.598 -10.000  0.00  0.00     0.251 C 
HETATM   14  O           1     -21.528  -4.521 -10.666  0.00  0.00    -0.271 OA
HETATM   15  N           1     -22.449  -4.870  -8.661  0.00  0.00    -0.343 N 
HETATM   16  H           1     -23.291  -4.934  -8.104  0.00  0.00     0.163 HD
BRANCH  15  17
HETATM   17  C           1     -21.153  -5.065  -8.041  0.00  0.00     0.209 C 
BRANCH  17  18
HETATM   18  C           1     -20.591  -3.718  -7.606  0.00  0.00     0.200 C 
BRANCH  18  19
HETATM   19  O           1     -21.621  -2.934  -7.068  0.00  0.00    -0.398 OA
HETATM   20  H           1     -22.019  -3.439  -6.379  0.00  0.00     0.209 HD
ENDBRANCH  18  19
ENDBRANCH  17  18
BRANCH  17  21
HETATM   21  C           1     -21.302  -5.962  -6.837  0.00  0.00     0.198 C 
HETATM   22  O           1     -22.080  -5.641  -5.913  0.00  0.00    -0.646 OA
HETATM   23  O           1     -20.648  -7.024  -6.764  0.00  0.00    -0.646 OA
ENDBRANCH  17  21
ENDBRANCH  15  17
ENDBRANCH   1  13
TORSDOF 10
ENDMDL
MODEL 4
REMARK VINA RESULT:      -5.7      9.625     12.149
REMARK  10 active torsions:
REMARK  status: ('A' for Active; 'I' for Inactive)
REMARK    1  A    between atoms: O_1  and  C_2 
REMARK    2  A    between atoms: C_2  and  C_3 
REMARK    3  A    between atoms: C_3  and  C_4 
REMARK    4  A    between atoms: C_3  and  N_18 
REMARK    5  A    between atoms: N_9  and  C_16 
REMARK    6  A    between atoms: O_12  and  P_13 
REMARK    7  A    between atoms: P_13  and  O_14 
REMARK    8  A    between atoms: O_14  and  C_15 
REMARK    9  A    between atoms: C_15  and  C_16 
REMARK   10  A    between atoms: C_16  and  C_17 
REMARK       I    between atoms: C_17  and  N_18 
ROOT
HETATM    1  C           1     -21.296  -3.286 -10.565  0.00  0.00     0.298 C 
ENDROOT
BRANCH   1   2
HETATM    2  N           1     -20.310  -2.861 -11.613  0.00  0.00    -0.064 N 
HETATM    3  H           1     -20.322  -3.547 -12.402  0.00  0.00     0.275 HD
HETATM    4  H           1     -20.567  -1.914 -11.971  0.00  0.00     0.275 HD
HETATM    5  H           1     -19.352  -2.829 -11.196  0.00  0.00     0.275 HD
ENDBRANCH   1   2
BRANCH   1   6
HETATM    6  C           1     -22.531  -3.872 -11.238  0.00  0.00     0.224 C 
BRANCH   6   7
HETATM    7  O           1     -23.660  -3.121 -10.879  0.00  0.00    -0.287 OA
BRANCH   7   8
HETATM    8  P           1     -24.612  -3.773  -9.749  0.00  0.00     0.406 P 
HETATM    9  O           1     -24.770  -5.221 -10.014  0.00  0.00    -0.624 OA
HETATM   10  O           1     -25.938  -3.116  -9.785  0.00  0.00    -0.624 OA
BRANCH   8  11
HETATM   11  O           1     -23.946  -3.561  -8.294  0.00  0.00    -0.300 OA
HETATM   12  H           1     -24.560  -3.938  -7.687  0.00  0.00     0.223 HD
ENDBRANCH   8  11
ENDBRANCH   7   8
ENDBRANCH   6   7
ENDBRANCH   1   6
BRANCH   1  13
HETATM   13  C           1     -20.665  -4.328  -9.675  0.00  0.00     0.251 C 
HETATM   14  O           1     -19.812  -5.062 -10.115  0.00  0.00    -0.271 OA
HETATM   15  N           1     -21.058  -4.442  -8.368  0.00  0.00    -0.343 N 
HETATM   16  H           1     -21.772  -3.827  -7.999  0.00  0.00     0.163 HD
BRANCH  15  17
HETATM   17  C           1     -20.451  -5.444  -7.513  0.00  0.00     0.209 C 
BRANCH  17  18
HETATM   18  C           1     -19.349  -4.799  -6.683  0.00  0.00     0.200 C 
BRANCH  18  19
HETATM   19  O           1     -19.808  -4.594  -5.374  0.00  0.00    -0.398 OA
HETATM   20  H           1     -19.185  -4.030  -4.950  0.00  0.00     0.209 HD
ENDBRANCH  18  19
ENDBRANCH  17  18
BRANCH  17  21
HETATM   21  C           1     -21.499  -6.023  -6.596  0.00  0.00     0.198 C 
HETATM   22  O           1     -22.466  -5.321  -6.230  0.00  0.00    -0.646 OA
HETATM   23  O           1     -21.401  -7.206  -6.203  0.00  0.00    -0.646 OA
ENDBRANCH  17  21
ENDBRANCH  15  17
ENDBRANCH   1  13
TORSDOF 10
ENDMDL
MODEL 5
REMARK VINA RESULT:      -5.7      7.902     10.769
REMARK  10 active torsions:
REMARK  status: ('A' for Active; 'I' for Inactive)
REMARK    1  A    between atoms: O_1  and  C_2 
REMARK    2  A    between atoms: C_2  and  C_3 
REMARK    3  A    between atoms: C_3  and  C_4 
REMARK    4  A    between atoms: C_3  and  N_18 
REMARK    5  A    between atoms: N_9  and  C_16 
REMARK    6  A    between atoms: O_12  and  P_13 
REMARK    7  A    between atoms: P_13  and  O_14 
REMARK    8  A    between atoms: O_14  and  C_15 
REMARK    9  A    between atoms: C_15  and  C_16 
REMARK   10  A    between atoms: C_16  and  C_17 
REMARK       I    between atoms: C_17  and  N_18 
ROOT
HETATM    1  C           1     -23.768  -3.844 -11.552  0.00  0.00     0.298 C 
ENDROOT
BRANCH   1   2
HETATM    2  N           1     -25.088  -3.214 -11.216  0.00  0.00    -0.064 N 
HETATM    3  H           1     -25.653  -3.875 -10.637  0.00  0.00     0.275 HD
HETATM    4  H           1     -24.927  -2.332 -10.680  0.00  0.00     0.275 HD
HETATM    5  H           1     -25.605  -2.998 -12.099  0.00  0.00     0.275 HD
ENDBRANCH   1   2
BRANCH   1   6
HETATM    6  C           1     -22.764  -2.757 -11.913  0.00  0.00     0.224 C 
BRANCH   6   7
HETATM    7  O           1     -22.259  -2.996 -13.199  0.00  0.00    -0.287 OA
BRANCH   7   8
HETATM    8  P           1     -23.250  -2.646 -14.425  0.00  0.00     0.406 P 
HETATM    9  O           1     -23.952  -3.875 -14.857  0.00  0.00    -0.624 OA
HETATM   10  O           1     -22.462  -2.104 -15.555  0.00  0.00    -0.624 OA
BRANCH   8  11
HETATM   11  O           1     -24.332  -1.547 -13.948  0.00  0.00    -0.300 OA
HETATM   12  H           1     -25.115  -2.038 -13.765  0.00  0.00     0.223 HD
ENDBRANCH   8  11
ENDBRANCH   7   8
ENDBRANCH   6   7
ENDBRANCH   1   6
BRANCH   1  13
HETATM   13  C           1     -23.265  -4.619 -10.359  0.00  0.00     0.251 C 
HETATM   14  O           1     -23.852  -5.608  -9.990  0.00  0.00    -0.271 OA
HETATM   15  N           1     -22.142  -4.201  -9.694  0.00  0.00    -0.343 N 
HETATM   16  H           1     -21.650  -3.373 -10.004  0.00  0.00     0.163 HD
BRANCH  15  17
HETATM   17  C           1     -21.659  -4.947  -8.548  0.00  0.00     0.209 C 
BRANCH  17  18
HETATM   18  C           1     -20.139  -5.031  -8.603  0.00  0.00     0.200 C 
BRANCH  18  19
HETATM   19  O           1     -19.660  -5.606  -7.418  0.00  0.00    -0.398 OA
HETATM   20  H           1     -20.378  -5.619  -6.810  0.00  0.00     0.209 HD
ENDBRANCH  18  19
ENDBRANCH  17  18
BRANCH  17  21
HETATM   21  C           1     -22.079  -4.245  -7.280  0.00  0.00     0.198 C 
HETATM   22  O           1     -21.362  -3.342  -6.799  0.00  0.00    -0.646 OA
HETATM   23  O           1     -23.144  -4.568  -6.711  0.00  0.00    -0.646 OA
ENDBRANCH  17  21
ENDBRANCH  15  17
ENDBRANCH   1  13
TORSDOF 10
ENDMDL
MODEL 6
REMARK VINA RESULT:      -5.6      6.297      8.743
REMARK  10 active torsions:
REMARK  status: ('A' for Active; 'I' for Inactive)
REMARK    1  A    between atoms: O_1  and  C_2 
REMARK    2  A    between atoms: C_2  and  C_3 
REMARK    3  A    between atoms: C_3  and  C_4 
REMARK    4  A    between atoms: C_3  and  N_18 
REMARK    5  A    between atoms: N_9  and  C_16 
REMARK    6  A    between atoms: O_12  and  P_13 
REMARK    7  A    between atoms: P_13  and  O_14 
REMARK    8  A    between atoms: O_14  and  C_15 
REMARK    9  A    between atoms: C_15  and  C_16 
REMARK   10  A    between atoms: C_16  and  C_17 
REMARK       I    between atoms: C_17  and  N_18 
ROOT
HETATM    1  C           1     -33.148  -4.492 -16.792  0.00  0.00     0.298 C 
ENDROOT
BRANCH   1   2
HETATM    2  N           1     -33.241  -3.104 -17.353  0.00  0.00    -0.064 N 
HETATM    3  H           1     -33.990  -3.071 -18.081  0.00  0.00     0.275 HD
HETATM    4  H           1     -33.471  -2.432 -16.586  0.00  0.00     0.275 HD
HETATM    5  H           1     -32.326  -2.842 -17.785  0.00  0.00     0.275 HD
ENDBRANCH   1   2
BRANCH   1   6
HETATM    6  C           1     -31.687  -4.842 -16.541  0.00  0.00     0.224 C 
BRANCH   6   7
HETATM    7  O           1     -31.376  -6.045 -17.191  0.00  0.00    -0.287 OA
BRANCH   7   8
HETATM    8  P           1     -29.812  -6.446 -17.226  0.00  0.00     0.406 P 
HETATM    9  O           1     -29.167  -6.021 -15.963  0.00  0.00    -0.624 OA
HETATM   10  O           1     -29.156  -5.769 -18.367  0.00  0.00    -0.624 OA
BRANCH   8  11
HETATM   11  O           1     -29.668  -8.045 -17.393  0.00  0.00    -0.300 OA
HETATM   12  H           1     -29.654  -8.194 -18.323  0.00  0.00     0.223 HD
ENDBRANCH   8  11
ENDBRANCH   7   8
ENDBRANCH   6   7
ENDBRANCH   1   6
BRANCH   1  13
HETATM   13  C           1     -33.913  -4.560 -15.493  0.00  0.00     0.251 C 
HETATM   14  O           1     -35.003  -5.081 -15.461  0.00  0.00    -0.271 OA
HETATM   15  N           1     -33.373  -4.032 -14.351  0.00  0.00    -0.343 N 
HETATM   16  H           1     -32.460  -3.596 -14.377  0.00  0.00     0.163 HD
BRANCH  15  17
HETATM   17  C           1     -34.109  -4.098 -13.103  0.00  0.00     0.209 C 
BRANCH  17  18
HETATM   18  C           1     -33.135  -4.307 -11.951  0.00  0.00     0.200 C 
BRANCH  18  19
HETATM   19  O           1     -32.839  -3.072 -11.358  0.00  0.00    -0.398 OA
HETATM   20  H           1     -32.489  -3.255 -10.503  0.00  0.00     0.209 HD
ENDBRANCH  18  19
ENDBRANCH  17  18
BRANCH  17  21
HETATM   21  C           1     -34.863  -2.807 -12.897  0.00  0.00     0.198 C 
HETATM   22  O           1     -35.651  -2.691 -11.934  0.00  0.00    -0.646 OA
HETATM   23  O           1     -34.700  -1.854 -13.689  0.00  0.00    -0.646 OA
ENDBRANCH  17  21
ENDBRANCH  15  17
ENDBRANCH   1  13
TORSDOF 10
ENDMDL
MODEL 7
REMARK VINA RESULT:      -5.5      8.719     11.518
REMARK  10 active torsions:
REMARK  status: ('A' for Active; 'I' for Inactive)
REMARK    1  A    between atoms: O_1  and  C_2 
REMARK    2  A    between atoms: C_2  and  C_3 
REMARK    3  A    between atoms: C_3  and  C_4 
REMARK    4  A    between atoms: C_3  and  N_18 
REMARK    5  A    between atoms: N_9  and  C_16 
REMARK    6  A    between atoms: O_12  and  P_13 
REMARK    7  A    between atoms: P_13  and  O_14 
REMARK    8  A    between atoms: O_14  and  C_15 
REMARK    9  A    between atoms: C_15  and  C_16 
REMARK   10  A    between atoms: C_16  and  C_17 
REMARK       I    between atoms: C_17  and  N_18 
ROOT
HETATM    1  C           1     -21.661  -3.187 -10.859  0.00  0.00     0.298 C 
ENDROOT
BRANCH   1   2
HETATM    2  N           1     -20.566  -3.581 -11.806  0.00  0.00    -0.064 N 
HETATM    3  H           1     -20.984  -3.982 -12.675  0.00  0.00     0.275 HD
HETATM    4  H           1     -19.996  -2.739 -12.050  0.00  0.00     0.275 HD
HETATM    5  H           1     -19.954  -4.297 -11.352  0.00  0.00     0.275 HD
ENDBRANCH   1   2
BRANCH   1   6
HETATM    6  C           1     -22.964  -3.025 -11.629  0.00  0.00     0.224 C 
BRANCH   6   7
HETATM    7  O           1     -22.756  -2.179 -12.728  0.00  0.00    -0.287 OA
BRANCH   7   8
HETATM    8  P           1     -23.459  -2.628 -14.110  0.00  0.00     0.406 P 
HETATM    9  O           1     -24.235  -1.492 -14.659  0.00  0.00    -0.624 OA
HETATM   10  O           1     -24.368  -3.768 -13.853  0.00  0.00    -0.624 OA
BRANCH   8  11
HETATM   11  O           1     -22.328  -3.070 -15.173  0.00  0.00    -0.300 OA
HETATM   12  H           1     -21.822  -3.730 -14.732  0.00  0.00     0.223 HD
ENDBRANCH   8  11
ENDBRANCH   7   8
ENDBRANCH   6   7
ENDBRANCH   1   6
BRANCH   1  13
HETATM   13  C           1     -21.825  -4.258  -9.809  0.00  0.00     0.251 C 
HETATM   14  O           1     -22.794  -4.980  -9.829  0.00  0.00    -0.271 OA
HETATM   15  N           1     -20.877  -4.414  -8.834  0.00  0.00    -0.343 N 
HETATM   16  H           1     -20.064  -3.810  -8.817  0.00  0.00     0.163 HD
BRANCH  15  17
HETATM   17  C           1     -21.035  -5.443  -7.826  0.00  0.00     0.209 C 
BRANCH  17  18
HETATM   18  C           1     -19.675  -6.046  -7.499  0.00  0.00     0.200 C 
BRANCH  18  19
HETATM   19  O           1     -19.811  -6.965  -6.449  0.00  0.00    -0.398 OA
HETATM   20  H           1     -19.079  -7.554  -6.504  0.00  0.00     0.209 HD
ENDBRANCH  18  19
ENDBRANCH  17  18
BRANCH  17  21
HETATM   21  C           1     -21.631  -4.838  -6.579  0.00  0.00     0.198 C 
HETATM   22  O           1     -22.871  -4.804  -6.431  0.00  0.00    -0.646 OA
HETATM   23  O           1     -20.883  -4.369  -5.693  0.00  0.00    -0.646 OA
ENDBRANCH  17  21
ENDBRANCH  15  17
ENDBRANCH   1  13
TORSDOF 10
ENDMDL
MODEL 8
REMARK VINA RESULT:      -5.5      9.597     11.666
REMARK  10 active torsions:
REMARK  status: ('A' for Active; 'I' for Inactive)
REMARK    1  A    between atoms: O_1  and  C_2 
REMARK    2  A    between atoms: C_2  and  C_3 
REMARK    3  A    between atoms: C_3  and  C_4 
REMARK    4  A    between atoms: C_3  and  N_18 
REMARK    5  A    between atoms: N_9  and  C_16 
REMARK    6  A    between atoms: O_12  and  P_13 
REMARK    7  A    between atoms: P_13  and  O_14 
REMARK    8  A    between atoms: O_14  and  C_15 
REMARK    9  A    between atoms: C_15  and  C_16 
REMARK   10  A    between atoms: C_16  and  C_17 
REMARK       I    between atoms: C_17  and  N_18 
ROOT
HETATM    1  C           1     -22.131  -4.266  -7.216  0.00  0.00     0.298 C 
ENDROOT
BRANCH   1   2
HETATM    2  N           1     -23.593  -4.496  -6.970  0.00  0.00    -0.064 N 
HETATM    3  H           1     -23.721  -4.967  -6.046  0.00  0.00     0.275 HD
HETATM    4  H           1     -24.094  -3.580  -6.966  0.00  0.00     0.275 HD
HETATM    5  H           1     -23.981  -5.105  -7.726  0.00  0.00     0.275 HD
ENDBRANCH   1   2
BRANCH   1   6
HETATM    6  C           1     -21.361  -5.550  -6.935  0.00  0.00     0.224 C 
BRANCH   6   7
HETATM    7  O           1     -20.788  -5.481  -5.656  0.00  0.00    -0.287 OA
BRANCH   7   8
HETATM    8  P           1     -21.479  -6.399  -4.521  0.00  0.00     0.406 P 
HETATM    9  O           1     -22.948  -6.391  -4.709  0.00  0.00    -0.624 OA
HETATM   10  O           1     -21.150  -5.858  -3.184  0.00  0.00    -0.624 OA
BRANCH   8  11
HETATM   11  O           1     -20.929  -7.912  -4.641  0.00  0.00    -0.300 OA
HETATM   12  H           1     -20.082  -7.897  -4.229  0.00  0.00     0.223 HD
ENDBRANCH   8  11
ENDBRANCH   7   8
ENDBRANCH   6   7
ENDBRANCH   1   6
BRANCH   1  13
HETATM   13  C           1     -21.922  -3.858  -8.654  0.00  0.00     0.251 C 
HETATM   14  O           1     -20.805  -3.667  -9.071  0.00  0.00    -0.271 OA
HETATM   15  N           1     -22.999  -3.704  -9.485  0.00  0.00    -0.343 N 
HETATM   16  H           1     -23.935  -3.864  -9.136  0.00  0.00     0.163 HD
BRANCH  15  17
HETATM   17  C           1     -22.798  -3.311 -10.866  0.00  0.00     0.209 C 
BRANCH  17  18
HETATM   18  C           1     -22.056  -4.418 -11.604  0.00  0.00     0.200 C 
BRANCH  18  19
HETATM   19  O           1     -21.589  -3.930 -12.833  0.00  0.00    -0.398 OA
HETATM   20  H           1     -22.326  -3.914 -13.419  0.00  0.00     0.209 HD
ENDBRANCH  18  19
ENDBRANCH  17  18
BRANCH  17  21
HETATM   21  C           1     -24.136  -3.077 -11.522  0.00  0.00     0.198 C 
HETATM   22  O           1     -25.187  -3.201 -10.858  0.00  0.00    -0.646 OA
HETATM   23  O           1     -24.194  -2.760 -12.730  0.00  0.00    -0.646 OA
ENDBRANCH  17  21
ENDBRANCH  15  17
ENDBRANCH   1  13
TORSDOF 10
ENDMDL
MODEL 9
REMARK VINA RESULT:      -5.5      9.004     11.755
REMARK  10 active torsions:
REMARK  status: ('A' for Active; 'I' for Inactive)
REMARK    1  A    between atoms: O_1  and  C_2 
REMARK    2  A    between atoms: C_2  and  C_3 
REMARK    3  A    between atoms: C_3  and  C_4 
REMARK    4  A    between atoms: C_3  and  N_18 
REMARK    5  A    between atoms: N_9  and  C_16 
REMARK    6  A    between atoms: O_12  and  P_13 
REMARK    7  A    between atoms: P_13  and  O_14 
REMARK    8  A    between atoms: O_14  and  C_15 
REMARK    9  A    between atoms: C_15  and  C_16 
REMARK   10  A    between atoms: C_16  and  C_17 
REMARK       I    between atoms: C_17  and  N_18 
ROOT
HETATM    1  C           1     -21.379  -3.419 -10.736  0.00  0.00     0.298 C 
ENDROOT
BRANCH   1   2
HETATM    2  N           1     -20.379  -2.572 -11.465  0.00  0.00    -0.064 N 
HETATM    3  H           1     -19.977  -1.865 -10.808  0.00  0.00     0.275 HD
HETATM    4  H           1     -19.612  -3.178 -11.835  0.00  0.00     0.275 HD
HETATM    5  H           1     -20.850  -2.081 -12.257  0.00  0.00     0.275 HD
ENDBRANCH   1   2
BRANCH   1   6
HETATM    6  C           1     -22.236  -4.174 -11.745  0.00  0.00     0.224 C 
BRANCH   6   7
HETATM    7  O           1     -22.479  -3.355 -12.857  0.00  0.00    -0.287 OA
BRANCH   7   8
HETATM    8  P           1     -24.027  -3.175 -13.278  0.00  0.00     0.406 P 
HETATM    9  O           1     -24.178  -1.941 -14.082  0.00  0.00    -0.624 OA
HETATM   10  O           1     -24.860  -3.075 -12.059  0.00  0.00    -0.624 OA
BRANCH   8  11
HETATM   11  O           1     -24.501  -4.448 -14.151  0.00  0.00    -0.300 OA
HETATM   12  H           1     -25.356  -4.219 -14.472  0.00  0.00     0.223 HD
ENDBRANCH   8  11
ENDBRANCH   7   8
ENDBRANCH   6   7
ENDBRANCH   1   6
BRANCH   1  13
HETATM   13  C           1     -20.654  -4.405  -9.853  0.00  0.00     0.251 C 
HETATM   14  O           1     -19.761  -5.080 -10.308  0.00  0.00    -0.271 OA
HETATM   15  N           1     -21.007  -4.535  -8.537  0.00  0.00    -0.343 N 
HETATM   16  H           1     -21.755  -3.969  -8.155  0.00  0.00     0.163 HD
BRANCH  15  17
HETATM   17  C           1     -20.310  -5.482  -7.689  0.00  0.00     0.209 C 
BRANCH  17  18
HETATM   18  C           1     -19.235  -4.753  -6.892  0.00  0.00     0.200 C 
BRANCH  18  19
HETATM   19  O           1     -19.663  -4.595  -5.566  0.00  0.00    -0.398 OA
HETATM   20  H           1     -19.531  -3.690  -5.342  0.00  0.00     0.209 HD
ENDBRANCH  18  19
ENDBRANCH  17  18
BRANCH  17  21
HETATM   21  C           1     -21.291  -6.124  -6.740  0.00  0.00     0.198 C 
HETATM   22  O           1     -22.276  -5.476  -6.326  0.00  0.00    -0.646 OA
HETATM   23  O           1     -21.119  -7.306  -6.368  0.00  0.00    -0.646 OA
ENDBRANCH  17  21
ENDBRANCH  15  17
ENDBRANCH   1  13
TORSDOF 10
ENDMDL
