MODEL 1
REMARK VINA RESULT:      -6.5      0.000      0.000
REMARK  7 active torsions:
REMARK  status: ('A' for Active; 'I' for Inactive)
REMARK    1  A    between atoms: C_4  and  N_5 
REMARK    2  A    between atoms: C_4  and  C_16 
REMARK    3  A    between atoms: C_9  and  C_11 
REMARK    4  A    between atoms: C_11  and  C_14 
REMARK    5  A    between atoms: C_11  and  N_20 
REMARK    6  A    between atoms: C_12  and  C_19 
REMARK    7  A    between atoms: C_14  and  C_16 
REMARK       I    between atoms: C_19  and  N_20 
ROOT
HETATM    1  C           1     -35.837  -0.839 -13.077  0.00  0.00     0.185 C 
ENDROOT
BRANCH   1   2
HETATM    2  C           1     -35.129   0.124 -13.998  0.00  0.00     0.196 C 
HETATM    3  O           1     -34.733   1.227 -13.564  0.00  0.00    -0.646 OA
HETATM    4  O           1     -34.940  -0.181 -15.195  0.00  0.00    -0.646 OA
ENDBRANCH   1   2
BRANCH   1   5
HETATM    5  C           1     -36.934  -0.103 -12.320  0.00  0.00     0.038 C 
BRANCH   5   6
HETATM    6  C           1     -36.970  -0.589 -10.877  0.00  0.00     0.030 C 
BRANCH   6   7
HETATM    7  C           1     -37.582   0.489  -9.992  0.00  0.00     0.230 C 
BRANCH   7   8
HETATM    8  N           1     -36.490   1.236  -9.285  0.00  0.00    -0.079 N 
HETATM    9  H           1     -36.854   2.160  -8.959  0.00  0.00     0.274 HD
HETATM   10  H           1     -36.164   0.681  -8.463  0.00  0.00     0.274 HD
HETATM   11  H           1     -35.691   1.389  -9.942  0.00  0.00     0.274 HD
ENDBRANCH   7   8
ENDBRANCH   6   7
ENDBRANCH   5   6
ENDBRANCH   1   5
BRANCH   1  12
HETATM   12  N           1     -34.885  -1.391 -12.132  0.00  0.00    -0.345 N 
HETATM   13  H           1     -34.712  -0.919 -11.253  0.00  0.00     0.163 HD
HETATM   14  C           1     -34.220  -2.550 -12.428  0.00  0.00     0.251 C 
HETATM   15  O           1     -34.426  -3.113 -13.477  0.00  0.00    -0.271 OA
BRANCH  14  16
HETATM   16  C           1     -33.229  -3.124 -11.445  0.00  0.00     0.311 C 
HETATM   17  C           1     -32.622  -4.410 -11.977  0.00  0.00     0.047 C 
HETATM   18  C           1     -33.472  -5.526 -11.383  0.00  0.00     0.033 C 
HETATM   19  C           1     -34.518  -4.820 -10.536  0.00  0.00     0.271 C 
HETATM   20  N           1     -33.898  -3.537 -10.215  0.00  0.00     0.097 N 
HETATM   21  H           1     -33.223  -3.665  -9.461  0.00  0.00     0.317 HD
ENDBRANCH  14  16
ENDBRANCH   1  12
TORSDOF 7
ENDMDL
MODEL 2
REMARK VINA RESULT:      -6.3      2.568      5.581
REMARK  7 active torsions:
REMARK  status: ('A' for Active; 'I' for Inactive)
REMARK    1  A    between atoms: C_4  and  N_5 
REMARK    2  A    between atoms: C_4  and  C_16 
REMARK    3  A    between atoms: C_9  and  C_11 
REMARK    4  A    between atoms: C_11  and  C_14 
REMARK    5  A    between atoms: C_11  and  N_20 
REMARK    6  A    between atoms: C_12  and  C_19 
REMARK    7  A    between atoms: C_14  and  C_16 
REMARK       I    between atoms: C_19  and  N_20 
ROOT
HETATM    1  C           1     -34.887  -2.482 -12.087  0.00  0.00     0.185 C 
ENDROOT
BRANCH   1   2
HETATM    2  C           1     -34.453  -1.827 -10.799  0.00  0.00     0.196 C 
HETATM    3  O           1     -33.244  -1.813 -10.481  0.00  0.00    -0.646 OA
HETATM    4  O           1     -35.302  -1.298 -10.050  0.00  0.00    -0.646 OA
ENDBRANCH   1   2
BRANCH   1   5
HETATM    5  C           1     -33.981  -3.670 -12.382  0.00  0.00     0.038 C 
BRANCH   5   6
HETATM    6  C           1     -34.702  -4.962 -12.019  0.00  0.00     0.030 C 
BRANCH   6   7
HETATM    7  C           1     -33.947  -5.667 -10.899  0.00  0.00     0.230 C 
BRANCH   7   8
HETATM    8  N           1     -34.356  -7.110 -10.851  0.00  0.00    -0.079 N 
HETATM    9  H           1     -34.639  -7.424 -11.806  0.00  0.00     0.274 HD
HETATM   10  H           1     -33.553  -7.688 -10.516  0.00  0.00     0.274 HD
HETATM   11  H           1     -35.163  -7.221 -10.195  0.00  0.00     0.274 HD
ENDBRANCH   7   8
ENDBRANCH   6   7
ENDBRANCH   5   6
ENDBRANCH   1   5
BRANCH   1  12
HETATM   12  N           1     -34.796  -1.524 -13.172  0.00  0.00    -0.345 N 
HETATM   13  H           1     -33.911  -1.372 -13.640  0.00  0.00     0.163 HD
HETATM   14  C           1     -35.905  -0.823 -13.561  0.00  0.00     0.251 C 
HETATM   15  O           1     -36.960  -1.004 -13.002  0.00  0.00    -0.271 OA
BRANCH  14  16
HETATM   16  C           1     -35.809   0.175 -14.689  0.00  0.00     0.311 C 
HETATM   17  C           1     -37.118   0.254 -15.454  0.00  0.00     0.047 C 
HETATM   18  C           1     -36.953  -0.704 -16.626  0.00  0.00     0.033 C 
HETATM   19  C           1     -35.553  -1.277 -16.475  0.00  0.00     0.271 C 
HETATM   20  N           1     -34.846  -0.267 -15.693  0.00  0.00     0.097 N 
HETATM   21  H           1     -34.576   0.506 -16.301  0.00  0.00     0.317 HD
ENDBRANCH  14  16
ENDBRANCH   1  12
TORSDOF 7
ENDMDL
MODEL 3
REMARK VINA RESULT:      -6.0      2.452      5.242
REMARK  7 active torsions:
REMARK  status: ('A' for Active; 'I' for Inactive)
REMARK    1  A    between atoms: C_4  and  N_5 
REMARK    2  A    between atoms: C_4  and  C_16 
REMARK    3  A    between atoms: C_9  and  C_11 
REMARK    4  A    between atoms: C_11  and  C_14 
REMARK    5  A    between atoms: C_11  and  N_20 
REMARK    6  A    between atoms: C_12  and  C_19 
REMARK    7  A    between atoms: C_14  and  C_16 
REMARK       I    between atoms: C_19  and  N_20 
ROOT
HETATM    1  C           1     -35.287  -1.748 -11.615  0.00  0.00     0.185 C 
ENDROOT
BRANCH   1   2
HETATM    2  C           1     -36.305  -1.268 -10.609  0.00  0.00     0.196 C 
HETATM    3  O           1     -35.927  -0.736  -9.543  0.00  0.00    -0.646 OA
HETATM    4  O           1     -37.525  -1.402 -10.843  0.00  0.00    -0.646 OA
ENDBRANCH   1   2
BRANCH   1   5
HETATM    5  C           1     -33.921  -1.841 -10.949  0.00  0.00     0.038 C 
BRANCH   5   6
HETATM    6  C           1     -33.268  -3.168 -11.313  0.00  0.00     0.030 C 
BRANCH   6   7
HETATM    7  C           1     -34.293  -4.289 -11.198  0.00  0.00     0.230 C 
BRANCH   7   8
HETATM    8  N           1     -34.374  -5.029 -12.500  0.00  0.00    -0.079 N 
HETATM    9  H           1     -35.078  -5.797 -12.421  0.00  0.00     0.274 HD
HETATM   10  H           1     -34.661  -4.370 -13.257  0.00  0.00     0.274 HD
HETATM   11  H           1     -33.440  -5.437 -12.728  0.00  0.00     0.274 HD
ENDBRANCH   7   8
ENDBRANCH   6   7
ENDBRANCH   5   6
ENDBRANCH   1   5
BRANCH   1  12
HETATM   12  N           1     -35.222  -0.812 -12.721  0.00  0.00    -0.345 N 
HETATM   13  H           1     -35.318   0.181 -12.549  0.00  0.00     0.163 HD
HETATM   14  C           1     -35.031  -1.270 -13.996  0.00  0.00     0.251 C 
HETATM   15  O           1     -34.916  -2.455 -14.201  0.00  0.00    -0.271 OA
BRANCH  14  16
HETATM   16  C           1     -34.964  -0.296 -15.146  0.00  0.00     0.311 C 
HETATM   17  C           1     -35.798   0.939 -14.858  0.00  0.00     0.047 C 
HETATM   18  C           1     -37.151   0.665 -15.501  0.00  0.00     0.033 C 
HETATM   19  C           1     -37.019  -0.711 -16.131  0.00  0.00     0.271 C 
HETATM   20  N           1     -35.583  -0.861 -16.342  0.00  0.00     0.097 N 
HETATM   21  H           1     -35.306  -0.340 -17.174  0.00  0.00     0.317 HD
ENDBRANCH  14  16
ENDBRANCH   1  12
TORSDOF 7
ENDMDL
MODEL 4
REMARK VINA RESULT:      -5.6     11.978     13.847
REMARK  7 active torsions:
REMARK  status: ('A' for Active; 'I' for Inactive)
REMARK    1  A    between atoms: C_4  and  N_5 
REMARK    2  A    between atoms: C_4  and  C_16 
REMARK    3  A    between atoms: C_9  and  C_11 
REMARK    4  A    between atoms: C_11  and  C_14 
REMARK    5  A    between atoms: C_11  and  N_20 
REMARK    6  A    between atoms: C_12  and  C_19 
REMARK    7  A    between atoms: C_14  and  C_16 
REMARK       I    between atoms: C_19  and  N_20 
ROOT
HETATM    1  C           1     -21.948  -4.467 -10.905  0.00  0.00     0.185 C 
ENDROOT
BRANCH   1   2
HETATM    2  C           1     -21.731  -3.304 -11.843  0.00  0.00     0.196 C 
HETATM    3  O           1     -20.907  -2.411 -11.551  0.00  0.00    -0.646 OA
HETATM    4  O           1     -22.374  -3.235 -12.912  0.00  0.00    -0.646 OA
ENDBRANCH   1   2
BRANCH   1   5
HETATM    5  C           1     -23.382  -4.961 -11.035  0.00  0.00     0.038 C 
BRANCH   5   6
HETATM    6  C           1     -24.163  -4.588  -9.781  0.00  0.00     0.030 C 
BRANCH   6   7
HETATM    7  C           1     -25.046  -3.381 -10.071  0.00  0.00     0.230 C 
BRANCH   7   8
HETATM    8  N           1     -25.138  -3.172 -11.554  0.00  0.00    -0.079 N 
HETATM    9  H           1     -24.590  -2.324 -11.821  0.00  0.00     0.274 HD
HETATM   10  H           1     -24.750  -4.007 -12.047  0.00  0.00     0.274 HD
HETATM   11  H           1     -26.138  -3.040 -11.825  0.00  0.00     0.274 HD
ENDBRANCH   7   8
ENDBRANCH   6   7
ENDBRANCH   5   6
ENDBRANCH   1   5
BRANCH   1  12
HETATM   12  N           1     -21.706  -4.038  -9.541  0.00  0.00    -0.345 N 
HETATM   13  H           1     -22.395  -3.477  -9.057  0.00  0.00     0.163 HD
HETATM   14  C           1     -20.545  -4.392  -8.908  0.00  0.00     0.251 C 
HETATM   15  O           1     -19.722  -5.062  -9.486  0.00  0.00    -0.271 OA
BRANCH  14  16
HETATM   16  C           1     -20.293  -3.946  -7.489  0.00  0.00     0.311 C 
HETATM   17  C           1     -19.355  -4.905  -6.779  0.00  0.00     0.047 C 
HETATM   18  C           1     -20.265  -5.879  -6.041  0.00  0.00     0.033 C 
HETATM   19  C           1     -21.678  -5.422  -6.363  0.00  0.00     0.271 C 
HETATM   20  N           1     -21.519  -4.010  -6.699  0.00  0.00     0.097 N 
HETATM   21  H           1     -21.427  -3.464  -5.842  0.00  0.00     0.317 HD
ENDBRANCH  14  16
ENDBRANCH   1  12
TORSDOF 7
ENDMDL
MODEL 5
REMARK VINA RESULT:      -5.4      2.682      5.777
REMARK  7 active torsions:
REMARK  status: ('A' for Active; 'I' for Inactive)
REMARK    1  A    between atoms: C_4  and  N_5 
REMARK    2  A    between atoms: C_4  and  C_16 
REMARK    3  A    between atoms: C_9  and  C_11 
REMARK    4  A    between atoms: C_11  and  C_14 
REMARK    5  A    between atoms: C_11  and  N_20 
REMARK    6  A    between atoms: C_12  and  C_19 
REMARK    7  A    between atoms: C_14  and  C_16 
REMARK       I    between atoms: C_19  and  N_20 
ROOT
HETATM    1  C           1     -34.928  -2.888 -12.045  0.00  0.00     0.185 C 
ENDROOT
BRANCH   1   2
HETATM    2  C           1     -33.927  -2.727 -10.927  0.00  0.00     0.196 C 
HETATM    3  O           1     -33.540  -3.727 -10.285  0.00  0.00    -0.646 OA
HETATM    4  O           1     -33.485  -1.593 -10.643  0.00  0.00    -0.646 OA
ENDBRANCH   1   2
BRANCH   1   5
HETATM    5  C           1     -34.702  -4.225 -12.738  0.00  0.00     0.038 C 
BRANCH   5   6
HETATM    6  C           1     -33.687  -4.050 -13.860  0.00  0.00     0.030 C 
BRANCH   6   7
HETATM    7  C           1     -34.328  -4.428 -15.189  0.00  0.00     0.230 C 
BRANCH   7   8
HETATM    8  N           1     -33.294  -4.384 -16.275  0.00  0.00    -0.079 N 
HETATM    9  H           1     -32.341  -4.380 -15.848  0.00  0.00     0.274 HD
HETATM   10  H           1     -33.398  -5.224 -16.888  0.00  0.00     0.274 HD
HETATM   11  H           1     -33.424  -3.518 -16.844  0.00  0.00     0.274 HD
ENDBRANCH   7   8
ENDBRANCH   6   7
ENDBRANCH   5   6
ENDBRANCH   1   5
BRANCH   1  12
HETATM   12  N           1     -34.759  -1.812 -13.003  0.00  0.00    -0.345 N 
HETATM   13  H           1     -33.863  -1.672 -13.453  0.00  0.00     0.163 HD
HETATM   14  C           1     -35.810  -0.986 -13.297  0.00  0.00     0.251 C 
HETATM   15  O           1     -36.879  -1.154 -12.760  0.00  0.00    -0.271 OA
BRANCH  14  16
HETATM   16  C           1     -35.634   0.133 -14.294  0.00  0.00     0.311 C 
HETATM   17  C           1     -36.944   0.444 -14.996  0.00  0.00     0.047 C 
HETATM   18  C           1     -36.907  -0.368 -16.284  0.00  0.00     0.033 C 
HETATM   19  C           1     -35.573  -1.096 -16.256  0.00  0.00     0.271 C 
HETATM   20  N           1     -34.745  -0.273 -15.379  0.00  0.00     0.097 N 
HETATM   21  H           1     -34.408   0.540 -15.895  0.00  0.00     0.317 HD
ENDBRANCH  14  16
ENDBRANCH   1  12
TORSDOF 7
ENDMDL
MODEL 6
REMARK VINA RESULT:      -5.3     12.676     14.364
REMARK  7 active torsions:
REMARK  status: ('A' for Active; 'I' for Inactive)
REMARK    1  A    between atoms: C_4  and  N_5 
REMARK    2  A    between atoms: C_4  and  C_16 
REMARK    3  A    between atoms: C_9  and  C_11 
REMARK    4  A    between atoms: C_11  and  C_14 
REMARK    5  A    between atoms: C_11  and  N_20 
REMARK    6  A    between atoms: C_12  and  C_19 
REMARK    7  A    between atoms: C_14  and  C_16 
REMARK       I    between atoms: C_19  and  N_20 
ROOT
HETATM    1  C           1     -21.983  -4.270 -10.188  0.00  0.00     0.185 C 
ENDROOT
BRANCH   1   2
HETATM    2  C           1     -20.709  -3.819 -10.860  0.00  0.00     0.196 C 
HETATM    3  O           1     -19.741  -4.604 -10.956  0.00  0.00    -0.646 OA
HETATM    4  O           1     -20.623  -2.661 -11.321  0.00  0.00    -0.646 OA
ENDBRANCH   1   2
BRANCH   1   5
HETATM    5  C           1     -23.167  -3.536 -10.801  0.00  0.00     0.038 C 
BRANCH   5   6
HETATM    6  C           1     -23.628  -4.271 -12.053  0.00  0.00     0.030 C 
BRANCH   6   7
HETATM    7  C           1     -23.756  -3.283 -13.205  0.00  0.00     0.230 C 
BRANCH   7   8
HETATM    8  N           1     -22.432  -3.142 -13.895  0.00  0.00    -0.079 N 
HETATM    9  H           1     -21.874  -4.015 -13.760  0.00  0.00     0.274 HD
HETATM   10  H           1     -22.586  -2.981 -14.915  0.00  0.00     0.274 HD
HETATM   11  H           1     -21.912  -2.332 -13.488  0.00  0.00     0.274 HD
ENDBRANCH   7   8
ENDBRANCH   6   7
ENDBRANCH   5   6
ENDBRANCH   1   5
BRANCH   1  12
HETATM   12  N           1     -21.912  -3.973  -8.770  0.00  0.00    -0.345 N 
HETATM   13  H           1     -22.205  -3.067  -8.427  0.00  0.00     0.163 HD
HETATM   14  C           1     -21.447  -4.918  -7.895  0.00  0.00     0.251 C 
HETATM   15  O           1     -21.098  -5.999  -8.304  0.00  0.00    -0.271 OA
BRANCH  14  16
HETATM   16  C           1     -21.373  -4.609  -6.420  0.00  0.00     0.311 C 
HETATM   17  C           1     -20.038  -5.045  -5.843  0.00  0.00     0.047 C 
HETATM   18  C           1     -20.285  -6.438  -5.279  0.00  0.00     0.033 C 
HETATM   19  C           1     -21.752  -6.724  -5.557  0.00  0.00     0.271 C 
HETATM   20  N           1     -22.349  -5.397  -5.674  0.00  0.00     0.097 N 
HETATM   21  H           1     -22.495  -5.007  -4.743  0.00  0.00     0.317 HD
ENDBRANCH  14  16
ENDBRANCH   1  12
TORSDOF 7
ENDMDL
MODEL 7
REMARK VINA RESULT:      -5.3     15.143     17.340
REMARK  7 active torsions:
REMARK  status: ('A' for Active; 'I' for Inactive)
REMARK    1  A    between atoms: C_4  and  N_5 
REMARK    2  A    between atoms: C_4  and  C_16 
REMARK    3  A    between atoms: C_9  and  C_11 
REMARK    4  A    between atoms: C_11  and  C_14 
REMARK    5  A    between atoms: C_11  and  N_20 
REMARK    6  A    between atoms: C_12  and  C_19 
REMARK    7  A    between atoms: C_14  and  C_16 
REMARK       I    between atoms: C_19  and  N_20 
ROOT
HETATM    1  C           1     -21.626  -7.262  -4.133  0.00  0.00     0.185 C 
ENDROOT
BRANCH   1   2
HETATM    2  C           1     -21.701  -6.938  -2.661  0.00  0.00     0.196 C 
HETATM    3  O           1     -22.419  -5.995  -2.265  0.00  0.00    -0.646 OA
HETATM    4  O           1     -21.045  -7.613  -1.839  0.00  0.00    -0.646 OA
ENDBRANCH   1   2
BRANCH   1   5
HETATM    5  C           1     -20.980  -8.628  -4.319  0.00  0.00     0.038 C 
BRANCH   5   6
HETATM    6  C           1     -19.601  -8.457  -4.944  0.00  0.00     0.030 C 
BRANCH   6   7
HETATM    7  C           1     -18.619  -9.415  -4.281  0.00  0.00     0.230 C 
BRANCH   7   8
HETATM    8  N           1     -18.600  -9.167  -2.801  0.00  0.00    -0.079 N 
HETATM    9  H           1     -19.499  -8.721  -2.511  0.00  0.00     0.274 HD
HETATM   10  H           1     -18.483 -10.075  -2.298  0.00  0.00     0.274 HD
HETATM   11  H           1     -17.804  -8.532  -2.565  0.00  0.00     0.274 HD
ENDBRANCH   7   8
ENDBRANCH   6   7
ENDBRANCH   5   6
ENDBRANCH   1   5
BRANCH   1  12
HETATM   12  N           1     -20.830  -6.255  -4.810  0.00  0.00    -0.345 N 
HETATM   13  H           1     -19.831  -6.210  -4.652  0.00  0.00     0.163 HD
HETATM   14  C           1     -21.430  -5.366  -5.660  0.00  0.00     0.251 C 
HETATM   15  O           1     -22.622  -5.420  -5.848  0.00  0.00    -0.271 OA
BRANCH  14  16
HETATM   16  C           1     -20.602  -4.318  -6.363  0.00  0.00     0.311 C 
HETATM   17  C           1     -21.420  -3.605  -7.424  0.00  0.00     0.047 C 
HETATM   18  C           1     -21.122  -4.346  -8.721  0.00  0.00     0.033 C 
HETATM   19  C           1     -20.142  -5.442  -8.336  0.00  0.00     0.271 C 
HETATM   20  N           1     -19.515  -4.936  -7.118  0.00  0.00     0.097 N 
HETATM   21  H           1     -18.806  -4.245  -7.363  0.00  0.00     0.317 HD
ENDBRANCH  14  16
ENDBRANCH   1  12
TORSDOF 7
ENDMDL
MODEL 8
REMARK VINA RESULT:      -5.1     16.147     18.256
REMARK  7 active torsions:
REMARK  status: ('A' for Active; 'I' for Inactive)
REMARK    1  A    between atoms: C_4  and  N_5 
REMARK    2  A    between atoms: C_4  and  C_16 
REMARK    3  A    between atoms: C_9  and  C_11 
REMARK    4  A    between atoms: C_11  and  C_14 
REMARK    5  A    between atoms: C_11  and  N_20 
REMARK    6  A    between atoms: C_12  and  C_19 
REMARK    7  A    between atoms: C_14  and  C_16 
REMARK       I    between atoms: C_19  and  N_20 
ROOT
HETATM    1  C           1     -21.200  -7.856  -1.824  0.00  0.00     0.185 C 
ENDROOT
BRANCH   1   2
HETATM    2  C           1     -22.282  -6.918  -1.347  0.00  0.00     0.196 C 
HETATM    3  O           1     -22.937  -7.191  -0.318  0.00  0.00    -0.646 OA
HETATM    4  O           1     -22.523  -5.869  -1.981  0.00  0.00    -0.646 OA
ENDBRANCH   1   2
BRANCH   1   5
HETATM    5  C           1     -20.652  -7.361  -3.155  0.00  0.00     0.038 C 
BRANCH   5   6
HETATM    6  C           1     -21.299  -8.141  -4.292  0.00  0.00     0.030 C 
BRANCH   6   7
HETATM    7  C           1     -21.637  -7.190  -5.434  0.00  0.00     0.230 C 
BRANCH   7   8
HETATM    8  N           1     -22.667  -6.201  -4.974  0.00  0.00    -0.079 N 
HETATM    9  H           1     -22.199  -5.302  -4.722  0.00  0.00     0.274 HD
HETATM   10  H           1     -23.355  -6.033  -5.742  0.00  0.00     0.274 HD
HETATM   11  H           1     -23.164  -6.581  -4.137  0.00  0.00     0.274 HD
ENDBRANCH   7   8
ENDBRANCH   6   7
ENDBRANCH   5   6
ENDBRANCH   1   5
BRANCH   1  12
HETATM   12  N           1     -21.753  -9.186  -1.993  0.00  0.00    -0.345 N 
HETATM   13  H           1     -22.514  -9.338  -2.644  0.00  0.00     0.163 HD
HETATM   14  C           1     -21.248 -10.235  -1.273  0.00  0.00     0.251 C 
HETATM   15  O           1     -20.341 -10.052  -0.497  0.00  0.00    -0.271 OA
BRANCH  14  16
HETATM   16  C           1     -21.824 -11.618  -1.449  0.00  0.00     0.311 C 
HETATM   17  C           1     -23.176 -11.557  -2.137  0.00  0.00     0.047 C 
HETATM   18  C           1     -24.198 -11.551  -1.006  0.00  0.00     0.033 C 
HETATM   19  C           1     -23.377 -11.616   0.271  0.00  0.00     0.271 C 
HETATM   20  N           1     -22.120 -12.226  -0.154  0.00  0.00     0.097 N 
HETATM   21  H           1     -22.246 -13.234  -0.248  0.00  0.00     0.317 HD
ENDBRANCH  14  16
ENDBRANCH   1  12
TORSDOF 7
ENDMDL
MODEL 9
REMARK VINA RESULT:      -5.1     12.856     14.811
REMARK  7 active torsions:
REMARK  status: ('A' for Active; 'I' for Inactive)
REMARK    1  A    between atoms: C_4  and  N_5 
REMARK    2  A    between atoms: C_4  and  C_16 
REMARK    3  A    between atoms: C_9  and  C_11 
REMARK    4  A    between atoms: C_11  and  C_14 
REMARK    5  A    between atoms: C_11  and  N_20 
REMARK    6  A    between atoms: C_12  and  C_19 
REMARK    7  A    between atoms: C_14  and  C_16 
REMARK       I    between atoms: C_19  and  N_20 
ROOT
HETATM    1  C           1     -21.656  -4.788  -8.593  0.00  0.00     0.185 C 
ENDROOT
BRANCH   1   2
HETATM    2  C           1     -20.341  -4.295  -9.147  0.00  0.00     0.196 C 
HETATM    3  O           1     -19.877  -4.796 -10.193  0.00  0.00    -0.646 OA
HETATM    4  O           1     -19.718  -3.385  -8.560  0.00  0.00    -0.646 OA
ENDBRANCH   1   2
BRANCH   1   5
HETATM    5  C           1     -22.753  -3.784  -8.923  0.00  0.00     0.038 C 
BRANCH   5   6
HETATM    6  C           1     -22.915  -3.688 -10.434  0.00  0.00     0.030 C 
BRANCH   6   7
HETATM    7  C           1     -24.380  -3.443 -10.774  0.00  0.00     0.230 C 
BRANCH   7   8
HETATM    8  N           1     -25.225  -3.700  -9.561  0.00  0.00    -0.079 N 
HETATM    9  H           1     -24.934  -4.599  -9.117  0.00  0.00     0.274 HD
HETATM   10  H           1     -25.100  -2.918  -8.879  0.00  0.00     0.274 HD
HETATM   11  H           1     -26.230  -3.759  -9.843  0.00  0.00     0.274 HD
ENDBRANCH   7   8
ENDBRANCH   6   7
ENDBRANCH   5   6
ENDBRANCH   1   5
BRANCH   1  12
HETATM   12  N           1     -21.550  -4.932  -7.154  0.00  0.00    -0.345 N 
HETATM   13  H           1     -22.086  -4.327  -6.544  0.00  0.00     0.163 HD
HETATM   14  C           1     -20.725  -5.886  -6.621  0.00  0.00     0.251 C 
HETATM   15  O           1     -20.086  -6.607  -7.349  0.00  0.00    -0.271 OA
BRANCH  14  16
HETATM   16  C           1     -20.615  -6.035  -5.123  0.00  0.00     0.311 C 
HETATM   17  C           1     -20.208  -7.449  -4.750  0.00  0.00     0.047 C 
HETATM   18  C           1     -21.516  -8.178  -4.471  0.00  0.00     0.033 C 
HETATM   19  C           1     -22.604  -7.141  -4.692  0.00  0.00     0.271 C 
HETATM   20  N           1     -21.918  -5.868  -4.487  0.00  0.00     0.097 N 
HETATM   21  H           1     -21.814  -5.696  -3.487  0.00  0.00     0.317 HD
ENDBRANCH  14  16
ENDBRANCH   1  12
TORSDOF 7
ENDMDL
