MODEL 1
REMARK VINA RESULT:      -6.3      0.000      0.000
REMARK  5 active torsions:
REMARK  status: ('A' for Active; 'I' for Inactive)
REMARK    1  A    between atoms: C_1  and  C_4 
REMARK    2  A    between atoms: C_4  and  C_17 
REMARK    3  A    between atoms: C_4  and  N_7 
REMARK       I    between atoms: N_7  and  C_8 
REMARK    4  A    between atoms: C_8  and  C_12 
REMARK    5  A    between atoms: O_16  and  C_17 
ROOT
HETATM    1  O           1     -22.723  -3.792  -7.647  0.00  0.00    -0.271 OA
HETATM    2  N           1     -21.917  -4.560  -9.582  0.00  0.00    -0.342 N 
HETATM    3  C           1     -22.067  -4.626  -8.223  0.00  0.00     0.251 C 
HETATM    4  H           1     -21.367  -5.259 -10.065  0.00  0.00     0.163 HD
ENDROOT
BRANCH   2   5
HETATM    5  C           1     -22.546  -3.489 -10.330  0.00  0.00     0.214 C 
BRANCH   5   6
HETATM    6  C           1     -23.786  -4.013 -11.011  0.00  0.00     0.199 C 
HETATM    7  O           1     -24.801  -3.289 -11.104  0.00  0.00    -0.646 OA
HETATM    8  O           1     -23.798  -5.170 -11.484  0.00  0.00    -0.646 OA
ENDBRANCH   5   6
BRANCH   5   9
HETATM    9  C           1     -21.574  -2.963 -11.379  0.00  0.00     0.147 C 
HETATM   10  C           1     -20.285  -3.773 -11.327  0.00  0.00     0.042 C 
BRANCH   9  11
HETATM   11  O           1     -22.150  -3.082 -12.650  0.00  0.00    -0.393 OA
HETATM   12  H           1     -21.471  -2.899 -13.277  0.00  0.00     0.210 HD
ENDBRANCH   9  11
ENDBRANCH   5   9
ENDBRANCH   2   5
BRANCH   3  13
HETATM   13  C           1     -21.412  -5.741  -7.444  0.00  0.00     0.311 C 
HETATM   14  N           1     -20.001  -5.861  -7.796  0.00  0.00     0.097 N 
HETATM   15  H           1     -19.627  -6.761  -7.492  0.00  0.00     0.317 HD
HETATM   16  C           1     -19.336  -4.785  -7.066  0.00  0.00     0.271 C 
HETATM   17  C           1     -20.024  -4.787  -5.712  0.00  0.00     0.033 C 
HETATM   18  C           1     -21.388  -5.419  -5.960  0.00  0.00     0.047 C 
ENDBRANCH   3  13
TORSDOF 5
ENDMDL
MODEL 2
REMARK VINA RESULT:      -6.0     12.033     14.052
REMARK  5 active torsions:
REMARK  status: ('A' for Active; 'I' for Inactive)
REMARK    1  A    between atoms: C_1  and  C_4 
REMARK    2  A    between atoms: C_4  and  C_17 
REMARK    3  A    between atoms: C_4  and  N_7 
REMARK       I    between atoms: N_7  and  C_8 
REMARK    4  A    between atoms: C_8  and  C_12 
REMARK    5  A    between atoms: O_16  and  C_17 
ROOT
HETATM    1  O           1     -34.365  -3.216 -13.510  0.00  0.00    -0.271 OA
HETATM    2  N           1     -34.842  -1.424 -12.268  0.00  0.00    -0.342 N 
HETATM    3  C           1     -34.179  -2.601 -12.488  0.00  0.00     0.251 C 
HETATM    4  H           1     -34.686  -0.908 -11.411  0.00  0.00     0.163 HD
ENDROOT
BRANCH   2   5
HETATM    5  C           1     -35.766  -0.915 -13.263  0.00  0.00     0.214 C 
BRANCH   5   6
HETATM    6  C           1     -35.066   0.108 -14.122  0.00  0.00     0.199 C 
HETATM    7  O           1     -34.825  -0.144 -15.324  0.00  0.00    -0.646 OA
HETATM    8  O           1     -34.728   1.209 -13.635  0.00  0.00    -0.646 OA
ENDBRANCH   5   6
BRANCH   5   9
HETATM    9  C           1     -36.954  -0.264 -12.566  0.00  0.00     0.147 C 
HETATM   10  C           1     -38.075  -0.043 -13.572  0.00  0.00     0.042 C 
BRANCH   9  11
HETATM   11  O           1     -37.408  -1.101 -11.537  0.00  0.00    -0.393 OA
HETATM   12  H           1     -37.272  -1.987 -11.825  0.00  0.00     0.210 HD
ENDBRANCH   9  11
ENDBRANCH   5   9
ENDBRANCH   2   5
BRANCH   3  13
HETATM   13  C           1     -33.217  -3.131 -11.453  0.00  0.00     0.311 C 
HETATM   14  N           1     -33.926  -3.530 -10.241  0.00  0.00     0.097 N 
HETATM   15  H           1     -33.278  -3.626  -9.458  0.00  0.00     0.317 HD
HETATM   16  C           1     -34.509  -4.831 -10.555  0.00  0.00     0.271 C 
HETATM   17  C           1     -33.419  -5.536 -11.343  0.00  0.00     0.033 C 
HETATM   18  C           1     -32.566  -4.418 -11.931  0.00  0.00     0.047 C 
ENDBRANCH   3  13
TORSDOF 5
ENDMDL
MODEL 3
REMARK VINA RESULT:      -5.9     12.772     15.032
REMARK  5 active torsions:
REMARK  status: ('A' for Active; 'I' for Inactive)
REMARK    1  A    between atoms: C_1  and  C_4 
REMARK    2  A    between atoms: C_4  and  C_17 
REMARK    3  A    between atoms: C_4  and  N_7 
REMARK       I    between atoms: N_7  and  C_8 
REMARK    4  A    between atoms: C_8  and  C_12 
REMARK    5  A    between atoms: O_16  and  C_17 
ROOT
HETATM    1  O           1     -36.872  -1.072 -12.984  0.00  0.00    -0.271 OA
HETATM    2  N           1     -34.705  -1.560 -13.204  0.00  0.00    -0.342 N 
HETATM    3  C           1     -35.831  -0.871 -13.563  0.00  0.00     0.251 C 
HETATM    4  H           1     -33.832  -1.392 -13.690  0.00  0.00     0.163 HD
ENDROOT
BRANCH   2   5
HETATM    5  C           1     -34.759  -2.531 -12.128  0.00  0.00     0.214 C 
BRANCH   5   6
HETATM    6  C           1     -34.384  -1.863 -10.830  0.00  0.00     0.199 C 
HETATM    7  O           1     -33.181  -1.756 -10.506  0.00  0.00    -0.646 OA
HETATM    8  O           1     -35.276  -1.414 -10.077  0.00  0.00    -0.646 OA
ENDBRANCH   5   6
BRANCH   5   9
HETATM    9  C           1     -33.784  -3.664 -12.417  0.00  0.00     0.147 C 
HETATM   10  C           1     -34.184  -4.896 -11.615  0.00  0.00     0.042 C 
BRANCH   9  11
HETATM   11  O           1     -33.812  -3.968 -13.785  0.00  0.00    -0.393 OA
HETATM   12  H           1     -33.373  -3.265 -14.231  0.00  0.00     0.210 HD
ENDBRANCH   9  11
ENDBRANCH   5   9
ENDBRANCH   2   5
BRANCH   3  13
HETATM   13  C           1     -35.775   0.139 -14.683  0.00  0.00     0.311 C 
HETATM   14  N           1     -34.838  -0.286 -15.718  0.00  0.00     0.097 N 
HETATM   15  H           1     -34.591   0.497 -16.326  0.00  0.00     0.317 HD
HETATM   16  C           1     -35.559  -1.294 -16.490  0.00  0.00     0.271 C 
HETATM   17  C           1     -36.966  -0.732 -16.596  0.00  0.00     0.033 C 
HETATM   18  C           1     -37.107   0.214 -15.409  0.00  0.00     0.047 C 
ENDBRANCH   3  13
TORSDOF 5
ENDMDL
MODEL 4
REMARK VINA RESULT:      -5.8     13.170     14.455
REMARK  5 active torsions:
REMARK  status: ('A' for Active; 'I' for Inactive)
REMARK    1  A    between atoms: C_1  and  C_4 
REMARK    2  A    between atoms: C_4  and  C_17 
REMARK    3  A    between atoms: C_4  and  N_7 
REMARK       I    between atoms: N_7  and  C_8 
REMARK    4  A    between atoms: C_8  and  C_12 
REMARK    5  A    between atoms: O_16  and  C_17 
ROOT
HETATM    1  O           1     -36.239  -1.670 -12.120  0.00  0.00    -0.271 OA
HETATM    2  N           1     -34.891  -1.339 -13.868  0.00  0.00    -0.342 N 
HETATM    3  C           1     -35.143  -1.808 -12.607  0.00  0.00     0.251 C 
HETATM    4  H           1     -33.972  -1.454 -14.277  0.00  0.00     0.163 HD
ENDROOT
BRANCH   2   5
HETATM    5  C           1     -35.939  -0.676 -14.619  0.00  0.00     0.214 C 
BRANCH   5   6
HETATM    6  C           1     -35.796  -1.010 -16.083  0.00  0.00     0.199 C 
HETATM    7  O           1     -36.767  -0.863 -16.857  0.00  0.00    -0.646 OA
HETATM    8  O           1     -34.705  -1.433 -16.524  0.00  0.00    -0.646 OA
ENDBRANCH   5   6
BRANCH   5   9
HETATM    9  C           1     -35.826   0.830 -14.429  0.00  0.00     0.147 C 
HETATM   10  C           1     -34.440   1.173 -13.899  0.00  0.00     0.042 C 
BRANCH   9  11
HETATM   11  O           1     -36.028   1.473 -15.657  0.00  0.00    -0.393 OA
HETATM   12  H           1     -35.506   1.018 -16.294  0.00  0.00     0.210 HD
ENDBRANCH   9  11
ENDBRANCH   5   9
ENDBRANCH   2   5
BRANCH   3  13
HETATM   13  C           1     -34.051  -2.497 -11.825  0.00  0.00     0.311 C 
HETATM   14  N           1     -34.563  -3.005 -10.556  0.00  0.00     0.097 N 
HETATM   15  H           1     -33.796  -3.220  -9.917  0.00  0.00     0.317 HD
HETATM   16  C           1     -35.271  -4.234 -10.899  0.00  0.00     0.271 C 
HETATM   17  C           1     -34.380  -4.887 -11.942  0.00  0.00     0.033 C 
HETATM   18  C           1     -33.575  -3.745 -12.549  0.00  0.00     0.047 C 
ENDBRANCH   3  13
TORSDOF 5
ENDMDL
MODEL 5
REMARK VINA RESULT:      -5.7     12.652     14.430
REMARK  5 active torsions:
REMARK  status: ('A' for Active; 'I' for Inactive)
REMARK    1  A    between atoms: C_1  and  C_4 
REMARK    2  A    between atoms: C_4  and  C_17 
REMARK    3  A    between atoms: C_4  and  N_7 
REMARK       I    between atoms: N_7  and  C_8 
REMARK    4  A    between atoms: C_8  and  C_12 
REMARK    5  A    between atoms: O_16  and  C_17 
ROOT
HETATM    1  O           1     -36.312  -3.495 -10.918  0.00  0.00    -0.271 OA
HETATM    2  N           1     -35.576  -1.398 -10.711  0.00  0.00    -0.342 N 
HETATM    3  C           1     -35.394  -2.753 -10.663  0.00  0.00     0.251 C 
HETATM    4  H           1     -34.807  -0.776 -10.496  0.00  0.00     0.163 HD
ENDROOT
BRANCH   2   5
HETATM    5  C           1     -36.871  -0.851 -11.069  0.00  0.00     0.214 C 
BRANCH   5   6
HETATM    6  C           1     -36.816  -0.314 -12.478  0.00  0.00     0.199 C 
HETATM    7  O           1     -35.880   0.439 -12.824  0.00  0.00    -0.646 OA
HETATM    8  O           1     -37.706  -0.624 -13.300  0.00  0.00    -0.646 OA
ENDBRANCH   5   6
BRANCH   5   9
HETATM    9  C           1     -37.229   0.275 -10.110  0.00  0.00     0.147 C 
HETATM   10  C           1     -37.417  -0.291  -8.709  0.00  0.00     0.042 C 
BRANCH   9  11
HETATM   11  O           1     -36.198   1.223 -10.095  0.00  0.00    -0.393 OA
HETATM   12  H           1     -35.888   1.278  -9.208  0.00  0.00     0.210 HD
ENDBRANCH   9  11
ENDBRANCH   5   9
ENDBRANCH   2   5
BRANCH   3  13
HETATM   13  C           1     -34.047  -3.322 -10.289  0.00  0.00     0.311 C 
HETATM   14  N           1     -34.071  -4.781 -10.323  0.00  0.00     0.097 N 
HETATM   15  H           1     -33.273  -5.168  -9.819  0.00  0.00     0.317 HD
HETATM   16  C           1     -33.970  -5.128 -11.738  0.00  0.00     0.271 C 
HETATM   17  C           1     -32.952  -4.140 -12.281  0.00  0.00     0.033 C 
HETATM   18  C           1     -33.000  -2.954 -11.326  0.00  0.00     0.047 C 
ENDBRANCH   3  13
TORSDOF 5
ENDMDL
MODEL 6
REMARK VINA RESULT:      -5.6      1.643      2.752
REMARK  5 active torsions:
REMARK  status: ('A' for Active; 'I' for Inactive)
REMARK    1  A    between atoms: C_1  and  C_4 
REMARK    2  A    between atoms: C_4  and  C_17 
REMARK    3  A    between atoms: C_4  and  N_7 
REMARK       I    between atoms: N_7  and  C_8 
REMARK    4  A    between atoms: C_8  and  C_12 
REMARK    5  A    between atoms: O_16  and  C_17 
ROOT
HETATM    1  O           1     -20.167  -4.880 -10.236  0.00  0.00    -0.271 OA
HETATM    2  N           1     -22.020  -3.703  -9.826  0.00  0.00    -0.342 N 
HETATM    3  C           1     -20.772  -4.151  -9.487  0.00  0.00     0.251 C 
HETATM    4  H           1     -22.527  -3.093  -9.198  0.00  0.00     0.163 HD
ENDROOT
BRANCH   2   5
HETATM    5  C           1     -22.616  -4.103 -11.087  0.00  0.00     0.214 C 
BRANCH   5   6
HETATM    6  C           1     -22.345  -3.045 -12.127  0.00  0.00     0.199 C 
HETATM    7  O           1     -22.427  -3.327 -13.343  0.00  0.00    -0.646 OA
HETATM    8  O           1     -22.042  -1.884 -11.775  0.00  0.00    -0.646 OA
ENDBRANCH   5   6
BRANCH   5   9
HETATM    9  C           1     -24.119  -4.267 -10.908  0.00  0.00     0.147 C 
HETATM   10  C           1     -24.455  -4.287  -9.423  0.00  0.00     0.042 C 
BRANCH   9  11
HETATM   11  O           1     -24.782  -3.196 -11.522  0.00  0.00    -0.393 OA
HETATM   12  H           1     -25.430  -3.568 -12.096  0.00  0.00     0.210 HD
ENDBRANCH   9  11
ENDBRANCH   5   9
ENDBRANCH   2   5
BRANCH   3  13
HETATM   13  C           1     -20.152  -3.736  -8.174  0.00  0.00     0.311 C 
HETATM   14  N           1     -21.167  -3.625  -7.132  0.00  0.00     0.097 N 
HETATM   15  H           1     -20.813  -3.093  -6.336  0.00  0.00     0.317 HD
HETATM   16  C           1     -21.437  -4.999  -6.719  0.00  0.00     0.271 C 
HETATM   17  C           1     -20.064  -5.648  -6.700  0.00  0.00     0.033 C 
HETATM   18  C           1     -19.217  -4.815  -7.655  0.00  0.00     0.047 C 
ENDBRANCH   3  13
TORSDOF 5
ENDMDL
MODEL 7
REMARK VINA RESULT:      -5.4      2.216      5.424
REMARK  5 active torsions:
REMARK  status: ('A' for Active; 'I' for Inactive)
REMARK    1  A    between atoms: C_1  and  C_4 
REMARK    2  A    between atoms: C_4  and  C_17 
REMARK    3  A    between atoms: C_4  and  N_7 
REMARK       I    between atoms: N_7  and  C_8 
REMARK    4  A    between atoms: C_8  and  C_12 
REMARK    5  A    between atoms: O_16  and  C_17 
ROOT
HETATM    1  O           1     -20.589  -3.079 -10.614  0.00  0.00    -0.271 OA
HETATM    2  N           1     -21.569  -4.496  -9.194  0.00  0.00    -0.342 N 
HETATM    3  C           1     -21.392  -3.965 -10.443  0.00  0.00     0.251 C 
HETATM    4  H           1     -22.242  -5.238  -9.050  0.00  0.00     0.163 HD
ENDROOT
BRANCH   2   5
HETATM    5  C           1     -20.792  -3.996  -8.076  0.00  0.00     0.214 C 
BRANCH   5   6
HETATM    6  C           1     -19.641  -4.933  -7.806  0.00  0.00     0.199 C 
HETATM    7  O           1     -19.824  -6.171  -7.826  0.00  0.00    -0.646 OA
HETATM    8  O           1     -18.504  -4.474  -7.564  0.00  0.00    -0.646 OA
ENDBRANCH   5   6
BRANCH   5   9
HETATM    9  C           1     -21.677  -3.910  -6.840  0.00  0.00     0.147 C 
HETATM   10  C           1     -23.029  -4.545  -7.139  0.00  0.00     0.042 C 
BRANCH   9  11
HETATM   11  O           1     -21.066  -4.590  -5.779  0.00  0.00    -0.393 OA
HETATM   12  H           1     -21.445  -4.256  -4.984  0.00  0.00     0.210 HD
ENDBRANCH   9  11
ENDBRANCH   5   9
ENDBRANCH   2   5
BRANCH   3  13
HETATM   13  C           1     -22.201  -4.484 -11.606  0.00  0.00     0.311 C 
HETATM   14  N           1     -23.567  -4.788 -11.194  0.00  0.00     0.097 N 
HETATM   15  H           1     -24.030  -5.383 -11.883  0.00  0.00     0.317 HD
HETATM   16  C           1     -24.242  -3.495 -11.135  0.00  0.00     0.271 C 
HETATM   17  C           1     -23.715  -2.755 -12.352  0.00  0.00     0.033 C 
HETATM   18  C           1     -22.374  -3.409 -12.665  0.00  0.00     0.047 C 
ENDBRANCH   3  13
TORSDOF 5
ENDMDL
MODEL 8
REMARK VINA RESULT:      -5.0     10.375     11.851
REMARK  5 active torsions:
REMARK  status: ('A' for Active; 'I' for Inactive)
REMARK    1  A    between atoms: C_1  and  C_4 
REMARK    2  A    between atoms: C_4  and  C_17 
REMARK    3  A    between atoms: C_4  and  N_7 
REMARK       I    between atoms: N_7  and  C_8 
REMARK    4  A    between atoms: C_8  and  C_12 
REMARK    5  A    between atoms: O_16  and  C_17 
ROOT
HETATM    1  O           1     -28.248  -5.311 -19.142  0.00  0.00    -0.271 OA
HETATM    2  N           1     -27.229  -7.294 -19.264  0.00  0.00    -0.342 N 
HETATM    3  C           1     -28.287  -6.497 -18.920  0.00  0.00     0.251 C 
HETATM    4  H           1     -27.262  -8.288 -19.078  0.00  0.00     0.163 HD
ENDROOT
BRANCH   2   5
HETATM    5  C           1     -26.060  -6.713 -19.897  0.00  0.00     0.214 C 
BRANCH   5   6
HETATM    6  C           1     -25.682  -7.535 -21.104  0.00  0.00     0.199 C 
HETATM    7  O           1     -24.714  -7.192 -21.817  0.00  0.00    -0.646 OA
HETATM    8  O           1     -26.336  -8.562 -21.391  0.00  0.00    -0.646 OA
ENDBRANCH   5   6
BRANCH   5   9
HETATM    9  C           1     -24.901  -6.701 -18.908  0.00  0.00     0.147 C 
HETATM   10  C           1     -25.447  -6.687 -17.486  0.00  0.00     0.042 C 
BRANCH   9  11
HETATM   11  O           1     -24.115  -7.845 -19.095  0.00  0.00    -0.393 OA
HETATM   12  H           1     -23.711  -7.764 -19.942  0.00  0.00     0.210 HD
ENDBRANCH   9  11
ENDBRANCH   5   9
ENDBRANCH   2   5
BRANCH   3  13
HETATM   13  C           1     -29.504  -7.101 -18.261  0.00  0.00     0.311 C 
HETATM   14  N           1     -29.115  -8.040 -17.214  0.00  0.00     0.097 N 
HETATM   15  H           1     -29.898  -8.643 -16.959  0.00  0.00     0.317 HD
HETATM   16  C           1     -28.751  -7.206 -16.073  0.00  0.00     0.271 C 
HETATM   17  C           1     -29.799  -6.106 -16.079  0.00  0.00     0.033 C 
HETATM   18  C           1     -30.297  -6.040 -17.518  0.00  0.00     0.047 C 
ENDBRANCH   3  13
TORSDOF 5
ENDMDL
MODEL 9
REMARK VINA RESULT:      -4.9     12.523     14.152
REMARK  5 active torsions:
REMARK  status: ('A' for Active; 'I' for Inactive)
REMARK    1  A    between atoms: C_1  and  C_4 
REMARK    2  A    between atoms: C_4  and  C_17 
REMARK    3  A    between atoms: C_4  and  N_7 
REMARK       I    between atoms: N_7  and  C_8 
REMARK    4  A    between atoms: C_8  and  C_12 
REMARK    5  A    between atoms: O_16  and  C_17 
ROOT
HETATM    1  O           1     -36.296  -2.417 -11.317  0.00  0.00    -0.271 OA
HETATM    2  N           1     -34.592  -1.015 -11.652  0.00  0.00    -0.342 N 
HETATM    3  C           1     -35.114  -2.197 -11.202  0.00  0.00     0.251 C 
HETATM    4  H           1     -33.601  -0.829 -11.555  0.00  0.00     0.163 HD
ENDROOT
BRANCH   2   5
HETATM    5  C           1     -35.457  -0.027 -12.268  0.00  0.00     0.214 C 
BRANCH   5   6
HETATM    6  C           1     -36.612   0.274 -11.346  0.00  0.00     0.199 C 
HETATM    7  O           1     -36.395   0.633 -10.168  0.00  0.00    -0.646 OA
HETATM    8  O           1     -37.787   0.165 -11.759  0.00  0.00    -0.646 OA
ENDBRANCH   5   6
BRANCH   5   9
HETATM    9  C           1     -35.989  -0.570 -13.588  0.00  0.00     0.147 C 
HETATM   10  C           1     -35.990   0.540 -14.630  0.00  0.00     0.042 C 
BRANCH   9  11
HETATM   11  O           1     -35.170  -1.620 -14.025  0.00  0.00    -0.393 OA
HETATM   12  H           1     -35.704  -2.176 -14.566  0.00  0.00     0.210 HD
ENDBRANCH   9  11
ENDBRANCH   5   9
ENDBRANCH   2   5
BRANCH   3  13
HETATM   13  C           1     -34.214  -3.224 -10.560  0.00  0.00     0.311 C 
HETATM   14  N           1     -34.733  -4.572 -10.769  0.00  0.00     0.097 N 
HETATM   15  H           1     -34.297  -5.232 -10.123  0.00  0.00     0.317 HD
HETATM   16  C           1     -34.361  -4.913 -12.139  0.00  0.00     0.271 C 
HETATM   17  C           1     -32.954  -4.359 -12.280  0.00  0.00     0.033 C 
HETATM   18  C           1     -32.856  -3.251 -11.239  0.00  0.00     0.047 C 
ENDBRANCH   3  13
TORSDOF 5
ENDMDL
