MODEL 1
REMARK VINA RESULT:      -5.8      0.000      0.000
REMARK  10 active torsions:
REMARK  status: ('A' for Active; 'I' for Inactive)
REMARK    1  A    between atoms: Se_1  and  C_2 
REMARK    2  A    between atoms: C_2  and  C_3 
REMARK    3  A    between atoms: C_3  and  C_4 
REMARK    4  A    between atoms: C_3  and  N_7 
REMARK       I    between atoms: N_7  and  C_8 
REMARK    5  A    between atoms: C_8  and  C_9 
REMARK    6  A    between atoms: C_9  and  C_10 
REMARK    7  A    between atoms: C_9  and  N_16 
REMARK    8  A    between atoms: C_10  and  O_11 
REMARK    9  A    between atoms: O_11  and  P_12 
REMARK   10  A    between atoms: P_12  and  O_13 
ROOT
HETATM    1  C           1     -33.683  -2.075 -11.380  0.00  0.00     0.298 C 
ENDROOT
BRANCH   1   2
HETATM    2  C           1     -34.592  -1.936 -12.577  0.00  0.00     0.251 C 
HETATM    3  N           1     -35.334  -0.797 -12.744  0.00  0.00    -0.345 N 
HETATM    4  H           1     -35.272  -0.049 -12.065  0.00  0.00     0.163 HD
HETATM    5  O           1     -34.666  -2.829 -13.386  0.00  0.00    -0.271 OA
BRANCH   3   6
HETATM    6  C           1     -36.207  -0.663 -13.894  0.00  0.00     0.185 C 
BRANCH   6   7
HETATM    7  C           1     -37.543  -0.081 -13.450  0.00  0.00     0.039 C 
BRANCH   7   8
HETATM    8 Se           1     -37.673  -0.159 -11.507  0.00  0.00     0.000 Se
HETATM    9  H           1     -36.924  -1.421 -11.392  0.00  0.00     0.000 HD
ENDBRANCH   7   8
ENDBRANCH   6   7
BRANCH   6  10
HETATM   10  C           1     -35.568   0.256 -14.905  0.00  0.00     0.196 C 
HETATM   11  O           1     -36.212   0.621 -15.913  0.00  0.00    -0.646 OA
HETATM   12  O           1     -34.395   0.652 -14.736  0.00  0.00    -0.646 OA
ENDBRANCH   6  10
ENDBRANCH   3   6
ENDBRANCH   1   2
BRANCH   1  13
HETATM   13  C           1     -33.135  -3.494 -11.320  0.00  0.00     0.224 C 
BRANCH  13  14
HETATM   14  O           1     -33.952  -4.278 -10.494  0.00  0.00    -0.287 OA
BRANCH  14  15
HETATM   15  P           1     -34.178  -5.807 -10.964  0.00  0.00     0.406 P 
HETATM   16  O           1     -34.852  -6.560  -9.884  0.00  0.00    -0.624 OA
HETATM   17  O           1     -35.019  -5.829 -12.182  0.00  0.00    -0.624 OA
BRANCH  15  18
HETATM   18  O           1     -32.750  -6.488 -11.285  0.00  0.00    -0.300 OA
HETATM   19  H           1     -32.853  -7.394 -11.048  0.00  0.00     0.223 HD
ENDBRANCH  15  18
ENDBRANCH  14  15
ENDBRANCH  13  14
ENDBRANCH   1  13
BRANCH   1  20
HETATM   20  N           1     -34.458  -1.786 -10.129  0.00  0.00    -0.064 N 
HETATM   21  H           1     -34.993  -0.896 -10.246  0.00  0.00     0.275 HD
HETATM   22  H           1     -35.124  -2.570  -9.943  0.00  0.00     0.275 HD
HETATM   23  H           1     -33.798  -1.691  -9.324  0.00  0.00     0.275 HD
ENDBRANCH   1  20
TORSDOF 10
ENDMDL
MODEL 2
REMARK VINA RESULT:      -5.7     12.236     14.609
REMARK  10 active torsions:
REMARK  status: ('A' for Active; 'I' for Inactive)
REMARK    1  A    between atoms: Se_1  and  C_2 
REMARK    2  A    between atoms: C_2  and  C_3 
REMARK    3  A    between atoms: C_3  and  C_4 
REMARK    4  A    between atoms: C_3  and  N_7 
REMARK       I    between atoms: N_7  and  C_8 
REMARK    5  A    between atoms: C_8  and  C_9 
REMARK    6  A    between atoms: C_9  and  C_10 
REMARK    7  A    between atoms: C_9  and  N_16 
REMARK    8  A    between atoms: C_10  and  O_11 
REMARK    9  A    between atoms: O_11  and  P_12 
REMARK   10  A    between atoms: P_12  and  O_13 
ROOT
HETATM    1  C           1     -23.355  -4.230  -9.121  0.00  0.00     0.298 C 
ENDROOT
BRANCH   1   2
HETATM    2  C           1     -22.497  -4.264  -7.880  0.00  0.00     0.251 C 
HETATM    3  N           1     -22.406  -5.415  -7.143  0.00  0.00    -0.345 N 
HETATM    4  H           1     -22.915  -6.241  -7.431  0.00  0.00     0.163 HD
HETATM    5  O           1     -21.891  -3.279  -7.537  0.00  0.00    -0.271 OA
BRANCH   3   6
HETATM    6  C           1     -21.581  -5.449  -5.951  0.00  0.00     0.185 C 
BRANCH   6   7
HETATM    7  C           1     -22.072  -6.556  -5.027  0.00  0.00     0.039 C 
BRANCH   7   8
HETATM    8 Se           1     -21.391  -6.251  -3.227  0.00  0.00     0.000 Se
HETATM    9  H           1     -21.798  -4.837  -3.188  0.00  0.00     0.000 HD
ENDBRANCH   7   8
ENDBRANCH   6   7
BRANCH   6  10
HETATM   10  C           1     -20.148  -5.716  -6.339  0.00  0.00     0.196 C 
HETATM   11  O           1     -19.295  -4.807  -6.243  0.00  0.00    -0.646 OA
HETATM   12  O           1     -19.813  -6.845  -6.756  0.00  0.00    -0.646 OA
ENDBRANCH   6  10
ENDBRANCH   3   6
ENDBRANCH   1   2
BRANCH   1  13
HETATM   13  C           1     -22.539  -3.688 -10.287  0.00  0.00     0.224 C 
BRANCH  13  14
HETATM   14  O           1     -22.946  -4.314 -11.474  0.00  0.00    -0.287 OA
BRANCH  14  15
HETATM   15  P           1     -23.805  -3.406 -12.497  0.00  0.00     0.406 P 
HETATM   16  O           1     -25.087  -3.027 -11.862  0.00  0.00    -0.624 OA
HETATM   17  O           1     -23.039  -2.185 -12.834  0.00  0.00    -0.624 OA
BRANCH  15  18
HETATM   18  O           1     -24.100  -4.245 -13.844  0.00  0.00    -0.300 OA
HETATM   19  H           1     -24.818  -3.797 -14.259  0.00  0.00     0.223 HD
ENDBRANCH  15  18
ENDBRANCH  14  15
ENDBRANCH  13  14
ENDBRANCH   1  13
BRANCH   1  20
HETATM   20  N           1     -24.539  -3.340  -8.884  0.00  0.00    -0.064 N 
HETATM   21  H           1     -24.686  -3.220  -7.856  0.00  0.00     0.275 HD
HETATM   22  H           1     -24.367  -2.407  -9.322  0.00  0.00     0.275 HD
HETATM   23  H           1     -25.390  -3.772  -9.308  0.00  0.00     0.275 HD
ENDBRANCH   1  20
TORSDOF 10
ENDMDL
MODEL 3
REMARK VINA RESULT:      -5.5      2.498      3.458
REMARK  10 active torsions:
REMARK  status: ('A' for Active; 'I' for Inactive)
REMARK    1  A    between atoms: Se_1  and  C_2 
REMARK    2  A    between atoms: C_2  and  C_3 
REMARK    3  A    between atoms: C_3  and  C_4 
REMARK    4  A    between atoms: C_3  and  N_7 
REMARK       I    between atoms: N_7  and  C_8 
REMARK    5  A    between atoms: C_8  and  C_9 
REMARK    6  A    between atoms: C_9  and  C_10 
REMARK    7  A    between atoms: C_9  and  N_16 
REMARK    8  A    between atoms: C_10  and  O_11 
REMARK    9  A    between atoms: O_11  and  P_12 
REMARK   10  A    between atoms: P_12  and  O_13 
ROOT
HETATM    1  C           1     -33.781  -3.459 -11.614  0.00  0.00     0.298 C 
ENDROOT
BRANCH   1   2
HETATM    2  C           1     -35.123  -2.773 -11.544  0.00  0.00     0.251 C 
HETATM    3  N           1     -35.273  -1.510 -12.050  0.00  0.00    -0.345 N 
HETATM    4  H           1     -34.483  -1.037 -12.471  0.00  0.00     0.163 HD
HETATM    5  O           1     -36.065  -3.337 -11.041  0.00  0.00    -0.271 OA
BRANCH   3   6
HETATM    6  C           1     -36.562  -0.849 -11.983  0.00  0.00     0.185 C 
BRANCH   6   7
HETATM    7  C           1     -36.491   0.302 -10.988  0.00  0.00     0.039 C 
BRANCH   7   8
HETATM    8 Se           1     -37.035  -0.328  -9.226  0.00  0.00     0.000 Se
HETATM    9  H           1     -37.232  -1.721  -9.657  0.00  0.00     0.000 HD
ENDBRANCH   7   8
ENDBRANCH   6   7
BRANCH   6  10
HETATM   10  C           1     -36.923  -0.315 -13.347  0.00  0.00     0.196 C 
HETATM   11  O           1     -36.165   0.497 -13.922  0.00  0.00    -0.646 OA
HETATM   12  O           1     -37.980  -0.683 -13.904  0.00  0.00    -0.646 OA
ENDBRANCH   6  10
ENDBRANCH   3   6
ENDBRANCH   1   2
BRANCH   1  13
HETATM   13  C           1     -33.610  -4.102 -12.984  0.00  0.00     0.224 C 
BRANCH  13  14
HETATM   14  O           1     -34.355  -3.387 -13.933  0.00  0.00    -0.287 OA
BRANCH  14  15
HETATM   15  P           1     -34.247  -3.908 -15.458  0.00  0.00     0.406 P 
HETATM   16  O           1     -34.839  -2.900 -16.366  0.00  0.00    -0.624 OA
HETATM   17  O           1     -32.824  -4.115 -15.808  0.00  0.00    -0.624 OA
BRANCH  15  18
HETATM   18  O           1     -35.046  -5.302 -15.608  0.00  0.00    -0.300 OA
HETATM   19  H           1     -34.958  -5.537 -16.517  0.00  0.00     0.223 HD
ENDBRANCH  15  18
ENDBRANCH  14  15
ENDBRANCH  13  14
ENDBRANCH   1  13
BRANCH   1  20
HETATM   20  N           1     -33.706  -4.518 -10.554  0.00  0.00    -0.064 N 
HETATM   21  H           1     -34.543  -4.449  -9.932  0.00  0.00     0.275 HD
HETATM   22  H           1     -33.684  -5.461 -11.004  0.00  0.00     0.275 HD
HETATM   23  H           1     -32.840  -4.382  -9.986  0.00  0.00     0.275 HD
ENDBRANCH   1  20
TORSDOF 10
ENDMDL
MODEL 4
REMARK VINA RESULT:      -5.3     12.973     15.524
REMARK  10 active torsions:
REMARK  status: ('A' for Active; 'I' for Inactive)
REMARK    1  A    between atoms: Se_1  and  C_2 
REMARK    2  A    between atoms: C_2  and  C_3 
REMARK    3  A    between atoms: C_3  and  C_4 
REMARK    4  A    between atoms: C_3  and  N_7 
REMARK       I    between atoms: N_7  and  C_8 
REMARK    5  A    between atoms: C_8  and  C_9 
REMARK    6  A    between atoms: C_9  and  C_10 
REMARK    7  A    between atoms: C_9  and  N_16 
REMARK    8  A    between atoms: C_10  and  O_11 
REMARK    9  A    between atoms: O_11  and  P_12 
REMARK   10  A    between atoms: P_12  and  O_13 
ROOT
HETATM    1  C           1     -21.089  -3.959  -7.875  0.00  0.00     0.298 C 
ENDROOT
BRANCH   1   2
HETATM    2  C           1     -20.656  -4.795  -6.696  0.00  0.00     0.251 C 
HETATM    3  N           1     -21.492  -5.756  -6.194  0.00  0.00    -0.345 N 
HETATM    4  H           1     -22.401  -5.905  -6.615  0.00  0.00     0.163 HD
HETATM    5  O           1     -19.572  -4.617  -6.194  0.00  0.00    -0.271 OA
BRANCH   3   6
HETATM    6  C           1     -21.077  -6.560  -5.061  0.00  0.00     0.185 C 
BRANCH   6   7
HETATM    7  C           1     -22.270  -6.800  -4.145  0.00  0.00     0.039 C 
BRANCH   7   8
HETATM    8 Se           1     -21.813  -6.264  -2.328  0.00  0.00     0.000 Se
HETATM    9  H           1     -23.048  -6.801  -1.735  0.00  0.00     0.000 HD
ENDBRANCH   7   8
ENDBRANCH   6   7
BRANCH   6  10
HETATM   10  C           1     -20.546  -7.884  -5.553  0.00  0.00     0.196 C 
HETATM   11  O           1     -21.330  -8.836  -5.755  0.00  0.00    -0.646 OA
HETATM   12  O           1     -19.322  -8.029  -5.759  0.00  0.00    -0.646 OA
ENDBRANCH   6  10
ENDBRANCH   3   6
ENDBRANCH   1   2
BRANCH   1  13
HETATM   13  C           1     -22.480  -4.391  -8.320  0.00  0.00     0.224 C 
BRANCH  13  14
HETATM   14  O           1     -23.128  -3.313  -8.940  0.00  0.00    -0.287 OA
BRANCH  14  15
HETATM   15  P           1     -24.140  -3.690 -10.142  0.00  0.00     0.406 P 
HETATM   16  O           1     -23.759  -2.942 -11.360  0.00  0.00    -0.624 OA
HETATM   17  O           1     -24.066  -5.144 -10.410  0.00  0.00    -0.624 OA
BRANCH  15  18
HETATM   18  O           1     -25.648  -3.297  -9.719  0.00  0.00    -0.300 OA
HETATM   19  H           1     -26.191  -3.964 -10.104  0.00  0.00     0.223 HD
ENDBRANCH  15  18
ENDBRANCH  14  15
ENDBRANCH  13  14
ENDBRANCH   1  13
BRANCH   1  20
HETATM   20  N           1     -20.121  -4.151  -9.005  0.00  0.00    -0.064 N 
HETATM   21  H           1     -20.093  -5.161  -9.273  0.00  0.00     0.275 HD
HETATM   22  H           1     -20.428  -3.582  -9.826  0.00  0.00     0.275 HD
HETATM   23  H           1     -19.169  -3.845  -8.705  0.00  0.00     0.275 HD
ENDBRANCH   1  20
TORSDOF 10
ENDMDL
MODEL 5
REMARK VINA RESULT:      -5.2     13.765     16.154
REMARK  10 active torsions:
REMARK  status: ('A' for Active; 'I' for Inactive)
REMARK    1  A    between atoms: Se_1  and  C_2 
REMARK    2  A    between atoms: C_2  and  C_3 
REMARK    3  A    between atoms: C_3  and  C_4 
REMARK    4  A    between atoms: C_3  and  N_7 
REMARK       I    between atoms: N_7  and  C_8 
REMARK    5  A    between atoms: C_8  and  C_9 
REMARK    6  A    between atoms: C_9  and  C_10 
REMARK    7  A    between atoms: C_9  and  N_16 
REMARK    8  A    between atoms: C_10  and  O_11 
REMARK    9  A    between atoms: O_11  and  P_12 
REMARK   10  A    between atoms: P_12  and  O_13 
ROOT
HETATM    1  C           1     -21.258  -5.099  -6.611  0.00  0.00     0.298 C 
ENDROOT
BRANCH   1   2
HETATM    2  C           1     -21.888  -5.970  -5.552  0.00  0.00     0.251 C 
HETATM    3  N           1     -21.101  -6.770  -4.767  0.00  0.00    -0.345 N 
HETATM    4  H           1     -20.097  -6.778  -4.899  0.00  0.00     0.163 HD
HETATM    5  O           1     -23.085  -5.962  -5.395  0.00  0.00    -0.271 OA
BRANCH   3   6
HETATM    6  C           1     -21.706  -7.608  -3.749  0.00  0.00     0.185 C 
BRANCH   6   7
HETATM    7  C           1     -21.000  -8.957  -3.718  0.00  0.00     0.039 C 
BRANCH   7   8
HETATM    8 Se           1     -19.431  -8.897  -4.872  0.00  0.00     0.000 Se
HETATM    9  H           1     -20.154  -9.351  -6.071  0.00  0.00     0.000 HD
ENDBRANCH   7   8
ENDBRANCH   6   7
BRANCH   6  10
HETATM   10  C           1     -21.571  -6.937  -2.404  0.00  0.00     0.196 C 
HETATM   11  O           1     -20.775  -7.395  -1.555  0.00  0.00    -0.646 OA
HETATM   12  O           1     -22.254  -5.925  -2.138  0.00  0.00    -0.646 OA
ENDBRANCH   6  10
ENDBRANCH   3   6
ENDBRANCH   1   2
BRANCH   1  13
HETATM   13  C           1     -22.349  -4.370  -7.383  0.00  0.00     0.224 C 
BRANCH  13  14
HETATM   14  O           1     -22.076  -4.439  -8.757  0.00  0.00    -0.287 OA
BRANCH  14  15
HETATM   15  P           1     -23.300  -4.062  -9.742  0.00  0.00     0.406 P 
HETATM   16  O           1     -22.816  -3.152 -10.803  0.00  0.00    -0.624 OA
HETATM   17  O           1     -23.836  -5.298 -10.357  0.00  0.00    -0.624 OA
BRANCH  15  18
HETATM   18  O           1     -24.466  -3.332  -8.898  0.00  0.00    -0.300 OA
HETATM   19  H           1     -25.269  -3.586  -9.320  0.00  0.00     0.223 HD
ENDBRANCH  15  18
ENDBRANCH  14  15
ENDBRANCH  13  14
ENDBRANCH   1  13
BRANCH   1  20
HETATM   20  N           1     -20.466  -5.955  -7.554  0.00  0.00    -0.064 N 
HETATM   21  H           1     -20.458  -5.515  -8.502  0.00  0.00     0.275 HD
HETATM   22  H           1     -19.485  -6.043  -7.205  0.00  0.00     0.275 HD
HETATM   23  H           1     -20.901  -6.903  -7.614  0.00  0.00     0.275 HD
ENDBRANCH   1  20
TORSDOF 10
ENDMDL
MODEL 6
REMARK VINA RESULT:      -5.2     12.696     14.522
REMARK  10 active torsions:
REMARK  status: ('A' for Active; 'I' for Inactive)
REMARK    1  A    between atoms: Se_1  and  C_2 
REMARK    2  A    between atoms: C_2  and  C_3 
REMARK    3  A    between atoms: C_3  and  C_4 
REMARK    4  A    between atoms: C_3  and  N_7 
REMARK       I    between atoms: N_7  and  C_8 
REMARK    5  A    between atoms: C_8  and  C_9 
REMARK    6  A    between atoms: C_9  and  C_10 
REMARK    7  A    between atoms: C_9  and  N_16 
REMARK    8  A    between atoms: C_10  and  O_11 
REMARK    9  A    between atoms: O_11  and  P_12 
REMARK   10  A    between atoms: P_12  and  O_13 
ROOT
HETATM    1  C           1     -21.465  -5.389  -6.093  0.00  0.00     0.298 C 
ENDROOT
BRANCH   1   2
HETATM    2  C           1     -21.762  -4.373  -7.168  0.00  0.00     0.251 C 
HETATM    3  N           1     -22.541  -4.719  -8.240  0.00  0.00    -0.345 N 
HETATM    4  H           1     -22.917  -5.657  -8.310  0.00  0.00     0.163 HD
HETATM    5  O           1     -21.313  -3.255  -7.085  0.00  0.00    -0.271 OA
BRANCH   3   6
HETATM    6  C           1     -22.828  -3.744  -9.274  0.00  0.00     0.185 C 
BRANCH   6   7
HETATM    7  C           1     -21.979  -4.043 -10.503  0.00  0.00     0.039 C 
BRANCH   7   8
HETATM    8 Se           1     -22.447  -2.806 -11.934  0.00  0.00     0.000 Se
HETATM    9  H           1     -22.330  -3.813 -13.000  0.00  0.00     0.000 HD
ENDBRANCH   7   8
ENDBRANCH   6   7
BRANCH   6  10
HETATM   10  C           1     -24.289  -3.816  -9.641  0.00  0.00     0.196 C 
HETATM   11  O           1     -25.015  -2.805  -9.521  0.00  0.00    -0.646 OA
HETATM   12  O           1     -24.775  -4.887 -10.067  0.00  0.00    -0.646 OA
ENDBRANCH   6  10
ENDBRANCH   3   6
ENDBRANCH   1   2
BRANCH   1  13
HETATM   13  C           1     -20.848  -6.631  -6.723  0.00  0.00     0.224 C 
BRANCH  13  14
HETATM   14  O           1     -19.807  -7.101  -5.910  0.00  0.00    -0.287 OA
BRANCH  14  15
HETATM   15  P           1     -20.164  -8.356  -4.958  0.00  0.00     0.406 P 
HETATM   16  O           1     -20.957  -9.345  -5.721  0.00  0.00    -0.624 OA
HETATM   17  O           1     -18.912  -8.986  -4.484  0.00  0.00    -0.624 OA
BRANCH  15  18
HETATM   18  O           1     -21.021  -7.843  -3.690  0.00  0.00    -0.300 OA
HETATM   19  H           1     -21.385  -8.625  -3.308  0.00  0.00     0.223 HD
ENDBRANCH  15  18
ENDBRANCH  14  15
ENDBRANCH  13  14
ENDBRANCH   1  13
BRANCH   1  20
HETATM   20  N           1     -22.738  -5.764  -5.395  0.00  0.00    -0.064 N 
HETATM   21  H           1     -23.181  -6.573  -5.886  0.00  0.00     0.275 HD
HETATM   22  H           1     -22.527  -6.031  -4.406  0.00  0.00     0.275 HD
HETATM   23  H           1     -23.394  -4.951  -5.404  0.00  0.00     0.275 HD
ENDBRANCH   1  20
TORSDOF 10
ENDMDL
MODEL 7
REMARK VINA RESULT:      -5.2     12.430     14.193
REMARK  10 active torsions:
REMARK  status: ('A' for Active; 'I' for Inactive)
REMARK    1  A    between atoms: Se_1  and  C_2 
REMARK    2  A    between atoms: C_2  and  C_3 
REMARK    3  A    between atoms: C_3  and  C_4 
REMARK    4  A    between atoms: C_3  and  N_7 
REMARK       I    between atoms: N_7  and  C_8 
REMARK    5  A    between atoms: C_8  and  C_9 
REMARK    6  A    between atoms: C_9  and  C_10 
REMARK    7  A    between atoms: C_9  and  N_16 
REMARK    8  A    between atoms: C_10  and  O_11 
REMARK    9  A    between atoms: O_11  and  P_12 
REMARK   10  A    between atoms: P_12  and  O_13 
ROOT
HETATM    1  C           1     -20.422  -4.859  -7.517  0.00  0.00     0.298 C 
ENDROOT
BRANCH   1   2
HETATM    2  C           1     -21.474  -4.141  -8.328  0.00  0.00     0.251 C 
HETATM    3  N           1     -21.544  -4.333  -9.681  0.00  0.00    -0.345 N 
HETATM    4  H           1     -20.890  -4.957 -10.138  0.00  0.00     0.163 HD
HETATM    5  O           1     -22.253  -3.397  -7.783  0.00  0.00    -0.271 OA
BRANCH   3   6
HETATM    6  C           1     -22.554  -3.643 -10.461  0.00  0.00     0.185 C 
BRANCH   6   7
HETATM    7  C           1     -22.040  -3.427 -11.878  0.00  0.00     0.039 C 
BRANCH   7   8
HETATM    8 Se           1     -23.453  -2.645 -12.969  0.00  0.00     0.000 Se
HETATM    9  H           1     -24.126  -1.992 -11.835  0.00  0.00     0.000 HD
ENDBRANCH   7   8
ENDBRANCH   6   7
BRANCH   6  10
HETATM   10  C           1     -23.811  -4.477 -10.502  0.00  0.00     0.196 C 
HETATM   11  O           1     -24.873  -4.030 -10.017  0.00  0.00    -0.646 OA
HETATM   12  O           1     -23.791  -5.613 -11.023  0.00  0.00    -0.646 OA
ENDBRANCH   6  10
ENDBRANCH   3   6
ENDBRANCH   1   2
BRANCH   1  13
HETATM   13  C           1     -20.663  -4.608  -6.035  0.00  0.00     0.224 C 
BRANCH  13  14
HETATM   14  O           1     -20.286  -5.741  -5.300  0.00  0.00    -0.287 OA
BRANCH  14  15
HETATM   15  P           1     -21.463  -6.796  -4.970  0.00  0.00     0.406 P 
HETATM   16  O           1     -21.323  -7.271  -3.576  0.00  0.00    -0.624 OA
HETATM   17  O           1     -22.778  -6.136  -5.138  0.00  0.00    -0.624 OA
BRANCH  15  18
HETATM   18  O           1     -21.359  -8.052  -5.979  0.00  0.00    -0.300 OA
HETATM   19  H           1     -20.642  -8.569  -5.652  0.00  0.00     0.223 HD
ENDBRANCH  15  18
ENDBRANCH  14  15
ENDBRANCH  13  14
ENDBRANCH   1  13
BRANCH   1  20
HETATM   20  N           1     -19.064  -4.348  -7.896  0.00  0.00    -0.064 N 
HETATM   21  H           1     -18.341  -5.060  -7.648  0.00  0.00     0.275 HD
HETATM   22  H           1     -19.035  -4.167  -8.925  0.00  0.00     0.275 HD
HETATM   23  H           1     -18.870  -3.460  -7.381  0.00  0.00     0.275 HD
ENDBRANCH   1  20
TORSDOF 10
ENDMDL
MODEL 8
REMARK VINA RESULT:      -5.1     12.764     14.377
REMARK  10 active torsions:
REMARK  status: ('A' for Active; 'I' for Inactive)
REMARK    1  A    between atoms: Se_1  and  C_2 
REMARK    2  A    between atoms: C_2  and  C_3 
REMARK    3  A    between atoms: C_3  and  C_4 
REMARK    4  A    between atoms: C_3  and  N_7 
REMARK       I    between atoms: N_7  and  C_8 
REMARK    5  A    between atoms: C_8  and  C_9 
REMARK    6  A    between atoms: C_9  and  C_10 
REMARK    7  A    between atoms: C_9  and  N_16 
REMARK    8  A    between atoms: C_10  and  O_11 
REMARK    9  A    between atoms: O_11  and  P_12 
REMARK   10  A    between atoms: P_12  and  O_13 
ROOT
HETATM    1  C           1     -20.054  -4.166  -7.932  0.00  0.00     0.298 C 
ENDROOT
BRANCH   1   2
HETATM    2  C           1     -20.541  -4.502  -9.320  0.00  0.00     0.251 C 
HETATM    3  N           1     -21.796  -4.124  -9.716  0.00  0.00    -0.345 N 
HETATM    4  H           1     -22.397  -3.620  -9.076  0.00  0.00     0.163 HD
HETATM    5  O           1     -19.823  -5.103 -10.082  0.00  0.00    -0.271 OA
BRANCH   3   6
HETATM    6  C           1     -22.264  -4.446 -11.050  0.00  0.00     0.185 C 
BRANCH   6   7
HETATM    7  C           1     -23.742  -4.811 -10.994  0.00  0.00     0.039 C 
BRANCH   7   8
HETATM    8 Se           1     -24.681  -3.546  -9.848  0.00  0.00     0.000 Se
HETATM    9  H           1     -24.792  -2.510 -10.887  0.00  0.00     0.000 HD
ENDBRANCH   7   8
ENDBRANCH   6   7
BRANCH   6  10
HETATM   10  C           1     -22.073  -3.251 -11.951  0.00  0.00     0.196 C 
HETATM   11  O           1     -22.666  -3.197 -13.050  0.00  0.00    -0.646 OA
HETATM   12  O           1     -21.324  -2.315 -11.598  0.00  0.00    -0.646 OA
ENDBRANCH   6  10
ENDBRANCH   3   6
ENDBRANCH   1   2
BRANCH   1  13
HETATM   13  C           1     -19.575  -5.435  -7.240  0.00  0.00     0.224 C 
BRANCH  13  14
HETATM   14  O           1     -20.672  -6.270  -6.981  0.00  0.00    -0.287 OA
BRANCH  14  15
HETATM   15  P           1     -20.921  -6.652  -5.432  0.00  0.00     0.406 P 
HETATM   16  O           1     -20.755  -5.444  -4.593  0.00  0.00    -0.624 OA
HETATM   17  O           1     -22.294  -7.181  -5.270  0.00  0.00    -0.624 OA
BRANCH  15  18
HETATM   18  O           1     -19.855  -7.774  -4.975  0.00  0.00    -0.300 OA
HETATM   19  H           1     -19.879  -8.425  -5.656  0.00  0.00     0.223 HD
ENDBRANCH  15  18
ENDBRANCH  14  15
ENDBRANCH  13  14
ENDBRANCH   1  13
BRANCH   1  20
HETATM   20  N           1     -21.177  -3.561  -7.142  0.00  0.00    -0.064 N 
HETATM   21  H           1     -21.241  -2.539  -7.352  0.00  0.00     0.275 HD
HETATM   22  H           1     -22.076  -4.026  -7.403  0.00  0.00     0.275 HD
HETATM   23  H           1     -20.998  -3.695  -6.122  0.00  0.00     0.275 HD
ENDBRANCH   1  20
TORSDOF 10
ENDMDL
MODEL 9
REMARK VINA RESULT:      -5.1     12.735     15.150
REMARK  10 active torsions:
REMARK  status: ('A' for Active; 'I' for Inactive)
REMARK    1  A    between atoms: Se_1  and  C_2 
REMARK    2  A    between atoms: C_2  and  C_3 
REMARK    3  A    between atoms: C_3  and  C_4 
REMARK    4  A    between atoms: C_3  and  N_7 
REMARK       I    between atoms: N_7  and  C_8 
REMARK    5  A    between atoms: C_8  and  C_9 
REMARK    6  A    between atoms: C_9  and  C_10 
REMARK    7  A    between atoms: C_9  and  N_16 
REMARK    8  A    between atoms: C_10  and  O_11 
REMARK    9  A    between atoms: O_11  and  P_12 
REMARK   10  A    between atoms: P_12  and  O_13 
ROOT
HETATM    1  C           1     -21.935  -3.911  -7.938  0.00  0.00     0.298 C 
ENDROOT
BRANCH   1   2
HETATM    2  C           1     -22.337  -4.884  -6.856  0.00  0.00     0.251 C 
HETATM    3  N           1     -21.428  -5.789  -6.378  0.00  0.00    -0.345 N 
HETATM    4  H           1     -20.487  -5.806  -6.752  0.00  0.00     0.163 HD
HETATM    5  O           1     -23.459  -4.864  -6.412  0.00  0.00    -0.271 OA
BRANCH   3   6
HETATM    6  C           1     -21.812  -6.724  -5.339  0.00  0.00     0.185 C 
BRANCH   6   7
HETATM    7  C           1     -20.937  -7.968  -5.426  0.00  0.00     0.039 C 
BRANCH   7   8
HETATM    8 Se           1     -21.561  -9.294  -4.141  0.00  0.00     0.000 Se
HETATM    9  H           1     -20.696  -8.814  -3.052  0.00  0.00     0.000 HD
ENDBRANCH   7   8
ENDBRANCH   6   7
BRANCH   6  10
HETATM   10  C           1     -21.633  -6.075  -3.989  0.00  0.00     0.196 C 
HETATM   11  O           1     -22.554  -6.125  -3.144  0.00  0.00    -0.646 OA
HETATM   12  O           1     -20.564  -5.489  -3.714  0.00  0.00    -0.646 OA
ENDBRANCH   6  10
ENDBRANCH   3   6
ENDBRANCH   1   2
BRANCH   1  13
HETATM   13  C           1     -23.062  -3.788  -8.954  0.00  0.00     0.224 C 
BRANCH  13  14
HETATM   14  O           1     -22.521  -3.589 -10.232  0.00  0.00    -0.287 OA
BRANCH  14  15
HETATM   15  P           1     -23.582  -3.510 -11.447  0.00  0.00     0.406 P 
HETATM   16  O           1     -24.934  -3.250 -10.905  0.00  0.00    -0.624 OA
HETATM   17  O           1     -23.198  -2.415 -12.366  0.00  0.00    -0.624 OA
BRANCH  15  18
HETATM   18  O           1     -23.585  -4.910 -12.251  0.00  0.00    -0.300 OA
HETATM   19  H           1     -23.772  -4.678 -13.145  0.00  0.00     0.223 HD
ENDBRANCH  15  18
ENDBRANCH  14  15
ENDBRANCH  13  14
ENDBRANCH   1  13
BRANCH   1  20
HETATM   20  N           1     -20.697  -4.409  -8.623  0.00  0.00    -0.064 N 
HETATM   21  H           1     -20.693  -4.084  -9.616  0.00  0.00     0.275 HD
HETATM   22  H           1     -19.854  -4.036  -8.132  0.00  0.00     0.275 HD
HETATM   23  H           1     -20.682  -5.453  -8.599  0.00  0.00     0.275 HD
ENDBRANCH   1  20
TORSDOF 10
ENDMDL
