MODEL 1
REMARK VINA RESULT:      -6.2      0.000      0.000
REMARK  9 active torsions:
REMARK  status: ('A' for Active; 'I' for Inactive)
REMARK    1  A    between atoms: N_1  and  C_2 
REMARK       I    between atoms: N_1  and  C_6 
REMARK    2  A    between atoms: C_2  and  C_15 
REMARK    3  A    between atoms: C_2  and  C_3 
REMARK    4  A    between atoms: C_5  and  C_7 
REMARK    5  A    between atoms: C_5  and  C_10 
REMARK    6  A    between atoms: C_6  and  C_7 
REMARK    7  A    between atoms: C_7  and  N_18 
REMARK    8  A    between atoms: C_10  and  C_11 
REMARK       I    between atoms: C_11  and  N_12 
REMARK    9  A    between atoms: Se_14  and  C_15 
ROOT
HETATM    1  C           1     -33.591  -2.250 -11.417  0.00  0.00     0.275 C 
ENDROOT
BRANCH   1   2
HETATM    2  C           1     -33.117  -3.697 -11.435  0.00  0.00     0.052 C 
BRANCH   2   3
HETATM    3  C           1     -33.991  -4.530 -10.506  0.00  0.00     0.105 C 
BRANCH   3   4
HETATM    4  C           1     -34.390  -5.809 -11.202  0.00  0.00     0.215 C 
HETATM    5  N           1     -34.755  -5.785 -12.521  0.00  0.00    -0.370 N 
HETATM    6  H           1     -35.022  -6.641 -12.987  0.00  0.00     0.159 HD
HETATM    7  H           1     -34.756  -4.909 -13.030  0.00  0.00     0.159 HD
HETATM    8  O           1     -34.388  -6.853 -10.594  0.00  0.00    -0.274 OA
ENDBRANCH   3   4
ENDBRANCH   2   3
ENDBRANCH   1   2
BRANCH   1   9
HETATM    9  C           1     -34.545  -2.018 -12.563  0.00  0.00     0.249 C 
HETATM   10  N           1     -35.262  -0.853 -12.632  0.00  0.00    -0.345 N 
HETATM   11  H           1     -35.151  -0.147 -11.915  0.00  0.00     0.163 HD
HETATM   12  O           1     -34.677  -2.860 -13.419  0.00  0.00    -0.271 OA
BRANCH  10  13
HETATM   13  C           1     -36.178  -0.631 -13.733  0.00  0.00     0.185 C 
BRANCH  13  14
HETATM   14  C           1     -37.493  -0.083 -13.194  0.00  0.00     0.039 C 
BRANCH  14  15
HETATM   15 Se           1     -37.475  -0.148 -11.246  0.00  0.00     0.000 Se
HETATM   16  H           1     -38.685   0.674 -11.091  0.00  0.00     0.000 HD
ENDBRANCH  14  15
ENDBRANCH  13  14
BRANCH  13  17
HETATM   17  C           1     -35.576   0.363 -14.696  0.00  0.00     0.196 C 
HETATM   18  O           1     -36.291   0.901 -15.568  0.00  0.00    -0.646 OA
HETATM   19  O           1     -34.361   0.649 -14.620  0.00  0.00    -0.646 OA
ENDBRANCH  13  17
ENDBRANCH  10  13
ENDBRANCH   1   9
BRANCH   1  20
HETATM   20  N           1     -34.291  -1.971 -10.120  0.00  0.00    -0.066 N 
HETATM   21  H           1     -33.657  -2.207  -9.324  0.00  0.00     0.275 HD
HETATM   22  H           1     -34.547  -0.959 -10.073  0.00  0.00     0.275 HD
HETATM   23  H           1     -35.158  -2.551 -10.060  0.00  0.00     0.275 HD
ENDBRANCH   1  20
TORSDOF 9
ENDMDL
MODEL 2
REMARK VINA RESULT:      -5.7     12.336     14.239
REMARK  9 active torsions:
REMARK  status: ('A' for Active; 'I' for Inactive)
REMARK    1  A    between atoms: N_1  and  C_2 
REMARK       I    between atoms: N_1  and  C_6 
REMARK    2  A    between atoms: C_2  and  C_15 
REMARK    3  A    between atoms: C_2  and  C_3 
REMARK    4  A    between atoms: C_5  and  C_7 
REMARK    5  A    between atoms: C_5  and  C_10 
REMARK    6  A    between atoms: C_6  and  C_7 
REMARK    7  A    between atoms: C_7  and  N_18 
REMARK    8  A    between atoms: C_10  and  C_11 
REMARK       I    between atoms: C_11  and  N_12 
REMARK    9  A    between atoms: Se_14  and  C_15 
ROOT
HETATM    1  C           1     -22.327  -3.068 -11.667  0.00  0.00     0.275 C 
ENDROOT
BRANCH   1   2
HETATM    2  C           1     -23.708  -2.835 -12.267  0.00  0.00     0.052 C 
BRANCH   2   3
HETATM    3  C           1     -23.714  -3.292 -13.720  0.00  0.00     0.105 C 
BRANCH   3   4
HETATM    4  C           1     -23.388  -2.123 -14.617  0.00  0.00     0.215 C 
HETATM    5  N           1     -24.067  -0.943 -14.477  0.00  0.00    -0.370 N 
HETATM    6  H           1     -23.849  -0.159 -15.077  0.00  0.00     0.159 HD
HETATM    7  H           1     -24.787  -0.854 -13.770  0.00  0.00     0.159 HD
HETATM    8  O           1     -22.528  -2.229 -15.459  0.00  0.00    -0.274 OA
ENDBRANCH   3   4
ENDBRANCH   2   3
ENDBRANCH   1   2
BRANCH   1   9
HETATM    9  C           1     -22.449  -3.952 -10.450  0.00  0.00     0.249 C 
HETATM   10  N           1     -21.381  -4.109  -9.607  0.00  0.00    -0.345 N 
HETATM   11  H           1     -20.510  -3.631  -9.800  0.00  0.00     0.163 HD
HETATM   12  O           1     -23.489  -4.522 -10.219  0.00  0.00    -0.271 OA
BRANCH  10  13
HETATM   13  C           1     -21.499  -4.958  -8.438  0.00  0.00     0.185 C 
BRANCH  13  14
HETATM   14  C           1     -20.119  -5.467  -8.042  0.00  0.00     0.039 C 
BRANCH  14  15
HETATM   15 Se           1     -20.228  -6.362  -6.314  0.00  0.00     0.000 Se
HETATM   16  H           1     -20.200  -7.718  -6.883  0.00  0.00     0.000 HD
ENDBRANCH  14  15
ENDBRANCH  13  14
BRANCH  13  17
HETATM   17  C           1     -22.090  -4.166  -7.299  0.00  0.00     0.196 C 
HETATM   18  O           1     -23.182  -4.511  -6.798  0.00  0.00    -0.646 OA
HETATM   19  O           1     -21.488  -3.165  -6.855  0.00  0.00    -0.646 OA
ENDBRANCH  13  17
ENDBRANCH  10  13
ENDBRANCH   1   9
BRANCH   1  20
HETATM   20  N           1     -21.448  -3.735 -12.682  0.00  0.00    -0.066 N 
HETATM   21  H           1     -22.015  -4.406 -13.248  0.00  0.00     0.275 HD
HETATM   22  H           1     -21.033  -3.012 -13.313  0.00  0.00     0.275 HD
HETATM   23  H           1     -20.682  -4.251 -12.194  0.00  0.00     0.275 HD
ENDBRANCH   1  20
TORSDOF 9
ENDMDL
MODEL 3
REMARK VINA RESULT:      -5.6     13.118     14.564
REMARK  9 active torsions:
REMARK  status: ('A' for Active; 'I' for Inactive)
REMARK    1  A    between atoms: N_1  and  C_2 
REMARK       I    between atoms: N_1  and  C_6 
REMARK    2  A    between atoms: C_2  and  C_15 
REMARK    3  A    between atoms: C_2  and  C_3 
REMARK    4  A    between atoms: C_5  and  C_7 
REMARK    5  A    between atoms: C_5  and  C_10 
REMARK    6  A    between atoms: C_6  and  C_7 
REMARK    7  A    between atoms: C_7  and  N_18 
REMARK    8  A    between atoms: C_10  and  C_11 
REMARK       I    between atoms: C_11  and  N_12 
REMARK    9  A    between atoms: Se_14  and  C_15 
ROOT
HETATM    1  C           1     -21.130  -5.891  -6.848  0.00  0.00     0.275 C 
ENDROOT
BRANCH   1   2
HETATM    2  C           1     -21.055  -5.642  -5.347  0.00  0.00     0.052 C 
BRANCH   2   3
HETATM    3  C           1     -22.058  -6.538  -4.633  0.00  0.00     0.105 C 
BRANCH   3   4
HETATM    4  C           1     -21.705  -6.621  -3.168  0.00  0.00     0.215 C 
HETATM    5  N           1     -22.377  -5.851  -2.257  0.00  0.00    -0.370 N 
HETATM    6  H           1     -22.140  -5.907  -1.275  0.00  0.00     0.159 HD
HETATM    7  H           1     -23.112  -5.227  -2.566  0.00  0.00     0.159 HD
HETATM    8  O           1     -20.829  -7.367  -2.799  0.00  0.00    -0.274 OA
ENDBRANCH   3   4
ENDBRANCH   2   3
ENDBRANCH   1   2
BRANCH   1   9
HETATM    9  C           1     -21.681  -4.665  -7.535  0.00  0.00     0.249 C 
HETATM   10  N           1     -22.274  -4.777  -8.764  0.00  0.00    -0.345 N 
HETATM   11  H           1     -22.343  -5.682  -9.212  0.00  0.00     0.163 HD
HETATM   12  O           1     -21.600  -3.585  -7.000  0.00  0.00    -0.271 OA
BRANCH  10  13
HETATM   13  C           1     -22.803  -3.599  -9.424  0.00  0.00     0.185 C 
BRANCH  13  14
HETATM   14  C           1     -22.107  -3.416 -10.767  0.00  0.00     0.039 C 
BRANCH  14  15
HETATM   15 Se           1     -20.387  -4.332 -10.738  0.00  0.00     0.000 Se
HETATM   16  H           1     -20.969  -5.664 -10.506  0.00  0.00     0.000 HD
ENDBRANCH  14  15
ENDBRANCH  13  14
BRANCH  13  17
HETATM   17  C           1     -24.286  -3.770  -9.644  0.00  0.00     0.196 C 
HETATM   18  O           1     -25.050  -2.786  -9.540  0.00  0.00    -0.646 OA
HETATM   19  O           1     -24.750  -4.894  -9.930  0.00  0.00    -0.646 OA
ENDBRANCH  13  17
ENDBRANCH  10  13
ENDBRANCH   1   9
BRANCH   1  20
HETATM   20  N           1     -19.757  -6.183  -7.375  0.00  0.00    -0.066 N 
HETATM   21  H           1     -19.231  -6.758  -6.679  0.00  0.00     0.275 HD
HETATM   22  H           1     -19.834  -6.710  -8.274  0.00  0.00     0.275 HD
HETATM   23  H           1     -19.249  -5.285  -7.541  0.00  0.00     0.275 HD
ENDBRANCH   1  20
TORSDOF 9
ENDMDL
MODEL 4
REMARK VINA RESULT:      -5.5     12.327     14.240
REMARK  9 active torsions:
REMARK  status: ('A' for Active; 'I' for Inactive)
REMARK    1  A    between atoms: N_1  and  C_2 
REMARK       I    between atoms: N_1  and  C_6 
REMARK    2  A    between atoms: C_2  and  C_15 
REMARK    3  A    between atoms: C_2  and  C_3 
REMARK    4  A    between atoms: C_5  and  C_7 
REMARK    5  A    between atoms: C_5  and  C_10 
REMARK    6  A    between atoms: C_6  and  C_7 
REMARK    7  A    between atoms: C_7  and  N_18 
REMARK    8  A    between atoms: C_10  and  C_11 
REMARK       I    between atoms: C_11  and  N_12 
REMARK    9  A    between atoms: Se_14  and  C_15 
ROOT
HETATM    1  C           1     -24.229  -4.516  -9.971  0.00  0.00     0.275 C 
ENDROOT
BRANCH   1   2
HETATM    2  C           1     -23.452  -4.079 -11.206  0.00  0.00     0.052 C 
BRANCH   2   3
HETATM    3  C           1     -24.317  -3.149 -12.048  0.00  0.00     0.105 C 
BRANCH   3   4
HETATM    4  C           1     -23.575  -2.775 -13.308  0.00  0.00     0.215 C 
HETATM    5  N           1     -22.316  -3.261 -13.531  0.00  0.00    -0.370 N 
HETATM    6  H           1     -21.819  -3.010 -14.375  0.00  0.00     0.159 HD
HETATM    7  H           1     -21.881  -3.872 -12.850  0.00  0.00     0.159 HD
HETATM    8  O           1     -24.095  -2.046 -14.120  0.00  0.00    -0.274 OA
ENDBRANCH   3   4
ENDBRANCH   2   3
ENDBRANCH   1   2
BRANCH   1   9
HETATM    9  C           1     -23.328  -4.458  -8.762  0.00  0.00     0.249 C 
HETATM   10  N           1     -22.009  -4.806  -8.874  0.00  0.00    -0.345 N 
HETATM   11  H           1     -21.637  -5.102  -9.767  0.00  0.00     0.163 HD
HETATM   12  O           1     -23.772  -4.104  -7.696  0.00  0.00    -0.271 OA
BRANCH  10  13
HETATM   13  C           1     -21.144  -4.751  -7.711  0.00  0.00     0.185 C 
BRANCH  13  14
HETATM   14  C           1     -21.044  -6.137  -7.087  0.00  0.00     0.039 C 
BRANCH  14  15
HETATM   15 Se           1     -21.370  -6.012  -5.170  0.00  0.00     0.000 Se
HETATM   16  H           1     -22.645  -5.291  -5.316  0.00  0.00     0.000 HD
ENDBRANCH  14  15
ENDBRANCH  13  14
BRANCH  13  17
HETATM   17  C           1     -19.770  -4.286  -8.129  0.00  0.00     0.196 C 
HETATM   18  O           1     -18.795  -4.453  -7.364  0.00  0.00    -0.646 OA
HETATM   19  O           1     -19.607  -3.736  -9.239  0.00  0.00    -0.646 OA
ENDBRANCH  13  17
ENDBRANCH  10  13
ENDBRANCH   1   9
BRANCH   1  20
HETATM   20  N           1     -25.398  -3.599  -9.767  0.00  0.00    -0.066 N 
HETATM   21  H           1     -25.495  -2.967 -10.593  0.00  0.00     0.275 HD
HETATM   22  H           1     -26.270  -4.165  -9.657  0.00  0.00     0.275 HD
HETATM   23  H           1     -25.245  -3.027  -8.906  0.00  0.00     0.275 HD
ENDBRANCH   1  20
TORSDOF 9
ENDMDL
MODEL 5
REMARK VINA RESULT:      -5.4     14.189     16.549
REMARK  9 active torsions:
REMARK  status: ('A' for Active; 'I' for Inactive)
REMARK    1  A    between atoms: N_1  and  C_2 
REMARK       I    between atoms: N_1  and  C_6 
REMARK    2  A    between atoms: C_2  and  C_15 
REMARK    3  A    between atoms: C_2  and  C_3 
REMARK    4  A    between atoms: C_5  and  C_7 
REMARK    5  A    between atoms: C_5  and  C_10 
REMARK    6  A    between atoms: C_6  and  C_7 
REMARK    7  A    between atoms: C_7  and  N_18 
REMARK    8  A    between atoms: C_10  and  C_11 
REMARK       I    between atoms: C_11  and  N_12 
REMARK    9  A    between atoms: Se_14  and  C_15 
ROOT
HETATM    1  C           1     -20.461  -4.993  -6.574  0.00  0.00     0.275 C 
ENDROOT
BRANCH   1   2
HETATM    2  C           1     -21.233  -3.816  -7.157  0.00  0.00     0.052 C 
BRANCH   2   3
HETATM    3  C           1     -21.454  -4.041  -8.647  0.00  0.00     0.105 C 
BRANCH   3   4
HETATM    4  C           1     -22.921  -3.886  -8.967  0.00  0.00     0.215 C 
HETATM    5  N           1     -23.858  -4.061  -7.986  0.00  0.00    -0.370 N 
HETATM    6  H           1     -24.841  -3.956  -8.200  0.00  0.00     0.159 HD
HETATM    7  H           1     -23.567  -4.293  -7.044  0.00  0.00     0.159 HD
HETATM    8  O           1     -23.267  -3.607 -10.091  0.00  0.00    -0.274 OA
ENDBRANCH   3   4
ENDBRANCH   2   3
ENDBRANCH   1   2
BRANCH   1   9
HETATM    9  C           1     -21.365  -5.787  -5.663  0.00  0.00     0.249 C 
HETATM   10  N           1     -20.830  -6.697  -4.791  0.00  0.00    -0.345 N 
HETATM   11  H           1     -19.829  -6.837  -4.757  0.00  0.00     0.163 HD
HETATM   12  O           1     -22.561  -5.619  -5.703  0.00  0.00    -0.271 OA
BRANCH  10  13
HETATM   13  C           1     -21.699  -7.460  -3.916  0.00  0.00     0.185 C 
BRANCH  13  14
HETATM   14  C           1     -21.239  -8.911  -3.886  0.00  0.00     0.039 C 
BRANCH  14  15
HETATM   15 Se           1     -19.492  -9.057  -4.736  0.00  0.00     0.000 Se
HETATM   16  H           1     -19.294 -10.465  -4.354  0.00  0.00     0.000 HD
ENDBRANCH  14  15
ENDBRANCH  13  14
BRANCH  13  17
HETATM   17  C           1     -21.641  -6.883  -2.523  0.00  0.00     0.196 C 
HETATM   18  O           1     -20.880  -7.389  -1.669  0.00  0.00    -0.646 OA
HETATM   19  O           1     -22.351  -5.900  -2.223  0.00  0.00    -0.646 OA
ENDBRANCH  13  17
ENDBRANCH  10  13
ENDBRANCH   1   9
BRANCH   1  20
HETATM   20  N           1     -19.978  -5.874  -7.688  0.00  0.00    -0.066 N 
HETATM   21  H           1     -19.905  -6.858  -7.348  0.00  0.00     0.275 HD
HETATM   22  H           1     -20.653  -5.830  -8.485  0.00  0.00     0.275 HD
HETATM   23  H           1     -19.040  -5.545  -8.010  0.00  0.00     0.275 HD
ENDBRANCH   1  20
TORSDOF 9
ENDMDL
MODEL 6
REMARK VINA RESULT:      -5.3      2.996      5.180
REMARK  9 active torsions:
REMARK  status: ('A' for Active; 'I' for Inactive)
REMARK    1  A    between atoms: N_1  and  C_2 
REMARK       I    between atoms: N_1  and  C_6 
REMARK    2  A    between atoms: C_2  and  C_15 
REMARK    3  A    between atoms: C_2  and  C_3 
REMARK    4  A    between atoms: C_5  and  C_7 
REMARK    5  A    between atoms: C_5  and  C_10 
REMARK    6  A    between atoms: C_6  and  C_7 
REMARK    7  A    between atoms: C_7  and  N_18 
REMARK    8  A    between atoms: C_10  and  C_11 
REMARK       I    between atoms: C_11  and  N_12 
REMARK    9  A    between atoms: Se_14  and  C_15 
ROOT
HETATM    1  C           1     -35.924  -0.126 -14.658  0.00  0.00     0.275 C 
ENDROOT
BRANCH   1   2
HETATM    2  C           1     -36.294  -0.948 -15.885  0.00  0.00     0.052 C 
BRANCH   2   3
HETATM    3  C           1     -35.073  -1.100 -16.783  0.00  0.00     0.105 C 
BRANCH   3   4
HETATM    4  C           1     -34.519  -2.498 -16.646  0.00  0.00     0.215 C 
HETATM    5  N           1     -33.624  -2.973 -17.567  0.00  0.00    -0.370 N 
HETATM    6  H           1     -33.253  -3.909 -17.476  0.00  0.00     0.159 HD
HETATM    7  H           1     -33.334  -2.385 -18.340  0.00  0.00     0.159 HD
HETATM    8  O           1     -34.865  -3.197 -15.724  0.00  0.00    -0.274 OA
ENDBRANCH   3   4
ENDBRANCH   2   3
ENDBRANCH   1   2
BRANCH   1   9
HETATM    9  C           1     -35.930  -1.012 -13.437  0.00  0.00     0.249 C 
HETATM   10  N           1     -34.819  -1.745 -13.116  0.00  0.00    -0.345 N 
HETATM   11  H           1     -33.993  -1.693 -13.698  0.00  0.00     0.163 HD
HETATM   12  O           1     -36.916  -1.073 -12.741  0.00  0.00    -0.271 OA
BRANCH  10  13
HETATM   13  C           1     -34.827  -2.596 -11.942  0.00  0.00     0.185 C 
BRANCH  13  14
HETATM   14  C           1     -33.911  -3.791 -12.177  0.00  0.00     0.039 C 
BRANCH  14  15
HETATM   15 Se           1     -34.263  -5.155 -10.830  0.00  0.00     0.000 Se
HETATM   16  H           1     -32.859  -5.265 -10.406  0.00  0.00     0.000 HD
ENDBRANCH  14  15
ENDBRANCH  13  14
BRANCH  13  17
HETATM   17  C           1     -34.335  -1.812 -10.750  0.00  0.00     0.196 C 
HETATM   18  O           1     -33.109  -1.718 -10.526  0.00  0.00    -0.646 OA
HETATM   19  O           1     -35.154  -1.255  -9.988  0.00  0.00    -0.646 OA
ENDBRANCH  13  17
ENDBRANCH  10  13
ENDBRANCH   1   9
BRANCH   1  20
HETATM   20  N           1     -34.555   0.458 -14.844  0.00  0.00    -0.066 N 
HETATM   21  H           1     -34.077  -0.019 -15.641  0.00  0.00     0.275 HD
HETATM   22  H           1     -34.636   1.480 -15.047  0.00  0.00     0.275 HD
HETATM   23  H           1     -33.997   0.321 -13.971  0.00  0.00     0.275 HD
ENDBRANCH   1  20
TORSDOF 9
ENDMDL
MODEL 7
REMARK VINA RESULT:      -5.3      4.728      5.693
REMARK  9 active torsions:
REMARK  status: ('A' for Active; 'I' for Inactive)
REMARK    1  A    between atoms: N_1  and  C_2 
REMARK       I    between atoms: N_1  and  C_6 
REMARK    2  A    between atoms: C_2  and  C_15 
REMARK    3  A    between atoms: C_2  and  C_3 
REMARK    4  A    between atoms: C_5  and  C_7 
REMARK    5  A    between atoms: C_5  and  C_10 
REMARK    6  A    between atoms: C_6  and  C_7 
REMARK    7  A    between atoms: C_7  and  N_18 
REMARK    8  A    between atoms: C_10  and  C_11 
REMARK       I    between atoms: C_11  and  N_12 
REMARK    9  A    between atoms: Se_14  and  C_15 
ROOT
HETATM    1  C           1     -33.114  -4.408 -16.772  0.00  0.00     0.275 C 
ENDROOT
BRANCH   1   2
HETATM    2  C           1     -31.643  -4.669 -16.479  0.00  0.00     0.052 C 
BRANCH   2   3
HETATM    3  C           1     -31.219  -5.978 -17.132  0.00  0.00     0.105 C 
BRANCH   3   4
HETATM    4  C           1     -29.830  -6.346 -16.667  0.00  0.00     0.215 C 
HETATM    5  N           1     -29.096  -7.266 -17.366  0.00  0.00    -0.370 N 
HETATM    6  H           1     -28.166  -7.512 -17.055  0.00  0.00     0.159 HD
HETATM    7  H           1     -29.484  -7.698 -18.196  0.00  0.00     0.159 HD
HETATM    8  O           1     -29.368  -5.829 -15.678  0.00  0.00    -0.274 OA
ENDBRANCH   3   4
ENDBRANCH   2   3
ENDBRANCH   1   2
BRANCH   1   9
HETATM    9  C           1     -33.904  -4.472 -15.487  0.00  0.00     0.249 C 
HETATM   10  N           1     -33.344  -4.034 -14.317  0.00  0.00    -0.345 N 
HETATM   11  H           1     -32.401  -3.667 -14.313  0.00  0.00     0.163 HD
HETATM   12  O           1     -35.030  -4.909 -15.492  0.00  0.00    -0.271 OA
BRANCH  10  13
HETATM   13  C           1     -34.103  -4.096 -13.083  0.00  0.00     0.185 C 
BRANCH  13  14
HETATM   14  C           1     -33.188  -4.535 -11.947  0.00  0.00     0.039 C 
BRANCH  14  15
HETATM   15 Se           1     -34.107  -5.853 -10.844  0.00  0.00     0.000 Se
HETATM   16  H           1     -33.395  -5.488  -9.610  0.00  0.00     0.000 HD
ENDBRANCH  14  15
ENDBRANCH  13  14
BRANCH  13  17
HETATM   17  C           1     -34.671  -2.732 -12.774  0.00  0.00     0.196 C 
HETATM   18  O           1     -34.940  -1.942 -13.705  0.00  0.00    -0.646 OA
HETATM   19  O           1     -34.873  -2.393 -11.589  0.00  0.00    -0.646 OA
ENDBRANCH  13  17
ENDBRANCH  10  13
ENDBRANCH   1   9
BRANCH   1  20
HETATM   20  N           1     -33.268  -3.048 -17.385  0.00  0.00    -0.066 N 
HETATM   21  H           1     -32.970  -3.080 -18.385  0.00  0.00     0.275 HD
HETATM   22  H           1     -34.268  -2.752 -17.329  0.00  0.00     0.275 HD
HETATM   23  H           1     -32.673  -2.363 -16.865  0.00  0.00     0.275 HD
ENDBRANCH   1  20
TORSDOF 9
ENDMDL
MODEL 8
REMARK VINA RESULT:      -5.3     12.938     14.223
REMARK  9 active torsions:
REMARK  status: ('A' for Active; 'I' for Inactive)
REMARK    1  A    between atoms: N_1  and  C_2 
REMARK       I    between atoms: N_1  and  C_6 
REMARK    2  A    between atoms: C_2  and  C_15 
REMARK    3  A    between atoms: C_2  and  C_3 
REMARK    4  A    between atoms: C_5  and  C_7 
REMARK    5  A    between atoms: C_5  and  C_10 
REMARK    6  A    between atoms: C_6  and  C_7 
REMARK    7  A    between atoms: C_7  and  N_18 
REMARK    8  A    between atoms: C_10  and  C_11 
REMARK       I    between atoms: C_11  and  N_12 
REMARK    9  A    between atoms: Se_14  and  C_15 
ROOT
HETATM    1  C           1     -20.247  -3.888  -7.764  0.00  0.00     0.275 C 
ENDROOT
BRANCH   1   2
HETATM    2  C           1     -19.767  -5.089  -6.960  0.00  0.00     0.052 C 
BRANCH   2   3
HETATM    3  C           1     -20.513  -5.143  -5.633  0.00  0.00     0.105 C 
BRANCH   3   4
HETATM    4  C           1     -21.431  -6.341  -5.620  0.00  0.00     0.215 C 
HETATM    5  N           1     -22.598  -6.302  -4.906  0.00  0.00    -0.370 N 
HETATM    6  H           1     -23.213  -7.105  -4.897  0.00  0.00     0.159 HD
HETATM    7  H           1     -22.846  -5.468  -4.387  0.00  0.00     0.159 HD
HETATM    8  O           1     -21.135  -7.335  -6.240  0.00  0.00    -0.274 OA
ENDBRANCH   3   4
ENDBRANCH   2   3
ENDBRANCH   1   2
BRANCH   1   9
HETATM    9  C           1     -20.637  -4.334  -9.152  0.00  0.00     0.249 C 
HETATM   10  N           1     -21.858  -3.988  -9.665  0.00  0.00    -0.345 N 
HETATM   11  H           1     -22.500  -3.433  -9.113  0.00  0.00     0.163 HD
HETATM   12  O           1     -19.871  -4.996  -9.811  0.00  0.00    -0.271 OA
BRANCH  10  13
HETATM   13  C           1     -22.232  -4.417 -10.998  0.00  0.00     0.185 C 
BRANCH  13  14
HETATM   14  C           1     -23.699  -4.827 -11.005  0.00  0.00     0.039 C 
BRANCH  14  15
HETATM   15 Se           1     -24.725  -3.590  -9.902  0.00  0.00     0.000 Se
HETATM   16  H           1     -25.931  -4.433  -9.873  0.00  0.00     0.000 HD
ENDBRANCH  14  15
ENDBRANCH  13  14
BRANCH  13  17
HETATM   17  C           1     -22.022  -3.280 -11.969  0.00  0.00     0.196 C 
HETATM   18  O           1     -22.535  -3.329 -13.108  0.00  0.00    -0.646 OA
HETATM   19  O           1     -21.337  -2.291 -11.633  0.00  0.00    -0.646 OA
ENDBRANCH  13  17
ENDBRANCH  10  13
ENDBRANCH   1   9
BRANCH   1  20
HETATM   20  N           1     -21.435  -3.275  -7.085  0.00  0.00    -0.066 N 
HETATM   21  H           1     -21.892  -2.592  -7.730  0.00  0.00     0.275 HD
HETATM   22  H           1     -22.117  -4.025  -6.832  0.00  0.00     0.275 HD
HETATM   23  H           1     -21.124  -2.781  -6.218  0.00  0.00     0.275 HD
ENDBRANCH   1  20
TORSDOF 9
ENDMDL
MODEL 9
REMARK VINA RESULT:      -5.3      9.401     10.779
REMARK  9 active torsions:
REMARK  status: ('A' for Active; 'I' for Inactive)
REMARK    1  A    between atoms: N_1  and  C_2 
REMARK       I    between atoms: N_1  and  C_6 
REMARK    2  A    between atoms: C_2  and  C_15 
REMARK    3  A    between atoms: C_2  and  C_3 
REMARK    4  A    between atoms: C_5  and  C_7 
REMARK    5  A    between atoms: C_5  and  C_10 
REMARK    6  A    between atoms: C_6  and  C_7 
REMARK    7  A    between atoms: C_7  and  N_18 
REMARK    8  A    between atoms: C_10  and  C_11 
REMARK       I    between atoms: C_11  and  N_12 
REMARK    9  A    between atoms: Se_14  and  C_15 
ROOT
HETATM    1  C           1     -29.840  -6.843 -17.928  0.00  0.00     0.275 C 
ENDROOT
BRANCH   1   2
HETATM    2  C           1     -30.431  -5.923 -16.868  0.00  0.00     0.052 C 
BRANCH   2   3
HETATM    3  C           1     -31.887  -5.630 -17.204  0.00  0.00     0.105 C 
BRANCH   3   4
HETATM    4  C           1     -32.124  -4.140 -17.160  0.00  0.00     0.215 C 
HETATM    5  N           1     -33.352  -3.652 -16.803  0.00  0.00    -0.370 N 
HETATM    6  H           1     -33.511  -2.654 -16.773  0.00  0.00     0.159 HD
HETATM    7  H           1     -34.102  -4.292 -16.568  0.00  0.00     0.159 HD
HETATM    8  O           1     -31.229  -3.378 -17.439  0.00  0.00    -0.274 OA
ENDBRANCH   3   4
ENDBRANCH   2   3
ENDBRANCH   1   2
BRANCH   1   9
HETATM    9  C           1     -28.570  -6.235 -18.472  0.00  0.00     0.249 C 
HETATM   10  N           1     -27.404  -6.951 -18.449  0.00  0.00    -0.345 N 
HETATM   11  H           1     -27.392  -7.889 -18.067  0.00  0.00     0.163 HD
HETATM   12  O           1     -28.584  -5.117 -18.929  0.00  0.00    -0.271 OA
BRANCH  10  13
HETATM   13  C           1     -26.184  -6.367 -18.972  0.00  0.00     0.185 C 
BRANCH  13  14
HETATM   14  C           1     -25.003  -6.811 -18.119  0.00  0.00     0.039 C 
BRANCH  14  15
HETATM   15 Se           1     -25.501  -6.746 -16.236  0.00  0.00     0.000 Se
HETATM   16  H           1     -26.865  -6.256 -16.493  0.00  0.00     0.000 HD
ENDBRANCH  14  15
ENDBRANCH  13  14
BRANCH  13  17
HETATM   17  C           1     -25.978  -6.825 -20.395  0.00  0.00     0.196 C 
HETATM   18  O           1     -26.560  -7.850 -20.812  0.00  0.00    -0.646 OA
HETATM   19  O           1     -25.227  -6.179 -21.157  0.00  0.00    -0.646 OA
ENDBRANCH  13  17
ENDBRANCH  10  13
ENDBRANCH   1   9
BRANCH   1  20
HETATM   20  N           1     -29.532  -8.177 -17.315  0.00  0.00    -0.066 N 
HETATM   21  H           1     -30.104  -8.304 -16.451  0.00  0.00     0.275 HD
HETATM   22  H           1     -29.759  -8.935 -17.998  0.00  0.00     0.275 HD
HETATM   23  H           1     -28.516  -8.222 -17.072  0.00  0.00     0.275 HD
ENDBRANCH   1  20
TORSDOF 9
ENDMDL
