MODEL 1
REMARK VINA RESULT:      -7.6      0.000      0.000
REMARK  10 active torsions:
REMARK  status: ('A' for Active; 'I' for Inactive)
REMARK    1  A    between atoms: C_1  and  C_30 
REMARK    2  A    between atoms: N_10  and  C_17 
REMARK    3  A    between atoms: O_13  and  P_14 
REMARK    4  A    between atoms: P_14  and  O_15 
REMARK    5  A    between atoms: O_15  and  C_16 
REMARK    6  A    between atoms: C_16  and  C_17 
REMARK    7  A    between atoms: C_17  and  C_18 
REMARK       I    between atoms: C_18  and  N_19 
REMARK    8  A    between atoms: N_19  and  C_30 
REMARK    9  A    between atoms: C_28  and  C_29 
REMARK   10  A    between atoms: C_29  and  C_30 
ROOT
HETATM    1  H           1     -19.883  -7.205  -7.302  0.00  0.00     0.163 HD
HETATM    2  O           1     -20.254  -4.486  -6.615  0.00  0.00    -0.271 OA
HETATM    3  C           1     -20.861  -5.389  -7.139  0.00  0.00     0.251 C 
HETATM    4  N           1     -20.589  -6.686  -6.796  0.00  0.00    -0.344 N 
ENDROOT
BRANCH   4   5
HETATM    5  C           1     -21.311  -7.315  -5.708  0.00  0.00     0.190 C 
BRANCH   5   6
HETATM    6  C           1     -22.027  -6.259  -4.902  0.00  0.00     0.197 C 
HETATM    7  O           1     -21.407  -5.612  -4.031  0.00  0.00    -0.646 OA
HETATM    8  O           1     -23.240  -6.033  -5.105  0.00  0.00    -0.646 OA
ENDBRANCH   5   6
BRANCH   5   9
HETATM    9  C           1     -20.331  -8.061  -4.812  0.00  0.00     0.077 C 
BRANCH   9  10
HETATM   10  C           1     -21.080  -9.028  -3.949  0.00  0.00    -0.028 A 
HETATM   11  C           1     -21.334  -8.886  -2.557  0.00  0.00    -0.002 A 
HETATM   12  C           1     -21.015  -7.906  -1.597  0.00  0.00     0.014 A 
HETATM   13  C           1     -22.060 -10.008  -2.155  0.00  0.00     0.042 A 
HETATM   14  C           1     -21.432  -8.083  -0.273  0.00  0.00     0.001 A 
HETATM   15  C           1     -22.155  -9.214   0.100  0.00  0.00     0.002 A 
HETATM   16  C           1     -22.484 -10.200  -0.835  0.00  0.00     0.030 A 
HETATM   17  N           1     -22.235 -10.797  -3.270  0.00  0.00    -0.365 N 
HETATM   18  H           1     -22.746 -11.714  -3.282  0.00  0.00     0.165 HD
HETATM   19  C           1     -21.646 -10.214  -4.360  0.00  0.00     0.096 A 
ENDBRANCH   9  10
ENDBRANCH   5   9
ENDBRANCH   4   5
BRANCH   3  20
HETATM   20  C           1     -21.920  -5.087  -8.171  0.00  0.00     0.298 C 
BRANCH  20  21
HETATM   21  N           1     -22.945  -4.166  -7.579  0.00  0.00    -0.064 N 
HETATM   22  H           1     -22.978  -3.280  -8.133  0.00  0.00     0.275 HD
HETATM   23  H           1     -22.689  -3.948  -6.590  0.00  0.00     0.275 HD
HETATM   24  H           1     -23.883  -4.627  -7.602  0.00  0.00     0.275 HD
ENDBRANCH  20  21
BRANCH  20  25
HETATM   25  C           1     -21.276  -4.422  -9.380  0.00  0.00     0.224 C 
BRANCH  25  26
HETATM   26  O           1     -22.160  -3.475  -9.918  0.00  0.00    -0.287 OA
BRANCH  26  27
HETATM   27  P           1     -22.675  -3.762 -11.421  0.00  0.00     0.406 P 
HETATM   28  O           1     -23.540  -4.964 -11.425  0.00  0.00    -0.624 OA
HETATM   29  O           1     -23.445  -2.597 -11.909  0.00  0.00    -0.624 OA
BRANCH  27  30
HETATM   30  O           1     -21.406  -4.011 -12.389  0.00  0.00    -0.300 OA
HETATM   31  H           1     -21.768  -4.068 -13.256  0.00  0.00     0.223 HD
ENDBRANCH  27  30
ENDBRANCH  26  27
ENDBRANCH  25  26
ENDBRANCH  20  25
ENDBRANCH   3  20
TORSDOF 10
ENDMDL
MODEL 2
REMARK VINA RESULT:      -7.5      1.983      2.500
REMARK  10 active torsions:
REMARK  status: ('A' for Active; 'I' for Inactive)
REMARK    1  A    between atoms: C_1  and  C_30 
REMARK    2  A    between atoms: N_10  and  C_17 
REMARK    3  A    between atoms: O_13  and  P_14 
REMARK    4  A    between atoms: P_14  and  O_15 
REMARK    5  A    between atoms: O_15  and  C_16 
REMARK    6  A    between atoms: C_16  and  C_17 
REMARK    7  A    between atoms: C_17  and  C_18 
REMARK       I    between atoms: C_18  and  N_19 
REMARK    8  A    between atoms: N_19  and  C_30 
REMARK    9  A    between atoms: C_28  and  C_29 
REMARK   10  A    between atoms: C_29  and  C_30 
ROOT
HETATM    1  H           1     -19.127  -7.465  -7.200  0.00  0.00     0.163 HD
HETATM    2  O           1     -19.696  -4.914  -6.117  0.00  0.00    -0.271 OA
HETATM    3  C           1     -20.282  -5.900  -6.493  0.00  0.00     0.251 C 
HETATM    4  N           1     -19.676  -7.125  -6.420  0.00  0.00    -0.344 N 
ENDROOT
BRANCH   4   5
HETATM    5  C           1     -19.822  -7.937  -5.228  0.00  0.00     0.190 C 
BRANCH   5   6
HETATM    6  C           1     -18.751  -9.000  -5.209  0.00  0.00     0.197 C 
HETATM    7  O           1     -18.131  -9.243  -4.152  0.00  0.00    -0.646 OA
HETATM    8  O           1     -18.483  -9.636  -6.252  0.00  0.00    -0.646 OA
ENDBRANCH   5   6
BRANCH   5   9
HETATM    9  C           1     -21.195  -8.598  -5.228  0.00  0.00     0.077 C 
BRANCH   9  10
HETATM   10  C           1     -21.490  -9.136  -3.863  0.00  0.00    -0.028 A 
HETATM   11  C           1     -21.774  -8.365  -2.702  0.00  0.00    -0.002 A 
HETATM   12  C           1     -21.869  -6.984  -2.442  0.00  0.00     0.014 A 
HETATM   13  C           1     -21.988  -9.262  -1.655  0.00  0.00     0.042 A 
HETATM   14  C           1     -22.175  -6.551  -1.146  0.00  0.00     0.001 A 
HETATM   15  C           1     -22.383  -7.470  -0.120  0.00  0.00     0.002 A 
HETATM   16  C           1     -22.294  -8.845  -0.354  0.00  0.00     0.030 A 
HETATM   17  N           1     -21.837 -10.529  -2.171  0.00  0.00    -0.365 N 
HETATM   18  H           1     -21.939 -11.417  -1.622  0.00  0.00     0.165 HD
HETATM   19  C           1     -21.536 -10.465  -3.506  0.00  0.00     0.096 A 
ENDBRANCH   9  10
ENDBRANCH   5   9
ENDBRANCH   4   5
BRANCH   3  20
HETATM   20  C           1     -21.683  -5.782  -7.042  0.00  0.00     0.298 C 
BRANCH  20  21
HETATM   21  N           1     -22.610  -5.331  -5.953  0.00  0.00    -0.064 N 
HETATM   22  H           1     -23.596  -5.548  -6.222  0.00  0.00     0.275 HD
HETATM   23  H           1     -22.506  -4.301  -5.810  0.00  0.00     0.275 HD
HETATM   24  H           1     -22.373  -5.830  -5.065  0.00  0.00     0.275 HD
ENDBRANCH  20  21
BRANCH  20  25
HETATM   25  C           1     -21.700  -4.766  -8.176  0.00  0.00     0.224 C 
BRANCH  25  26
HETATM   26  O           1     -22.884  -4.016  -8.115  0.00  0.00    -0.287 OA
BRANCH  26  27
HETATM   27  P           1     -23.666  -3.816  -9.513  0.00  0.00     0.406 P 
HETATM   28  O           1     -22.771  -3.154 -10.489  0.00  0.00    -0.624 OA
HETATM   29  O           1     -24.082  -5.135 -10.039  0.00  0.00    -0.624 OA
BRANCH  27  30
HETATM   30  O           1     -24.973  -2.897  -9.274  0.00  0.00    -0.300 OA
HETATM   31  H           1     -25.109  -2.449 -10.091  0.00  0.00     0.223 HD
ENDBRANCH  27  30
ENDBRANCH  26  27
ENDBRANCH  25  26
ENDBRANCH  20  25
ENDBRANCH   3  20
TORSDOF 10
ENDMDL
MODEL 3
REMARK VINA RESULT:      -7.5      3.912      8.672
REMARK  10 active torsions:
REMARK  status: ('A' for Active; 'I' for Inactive)
REMARK    1  A    between atoms: C_1  and  C_30 
REMARK    2  A    between atoms: N_10  and  C_17 
REMARK    3  A    between atoms: O_13  and  P_14 
REMARK    4  A    between atoms: P_14  and  O_15 
REMARK    5  A    between atoms: O_15  and  C_16 
REMARK    6  A    between atoms: C_16  and  C_17 
REMARK    7  A    between atoms: C_17  and  C_18 
REMARK       I    between atoms: C_18  and  N_19 
REMARK    8  A    between atoms: N_19  and  C_30 
REMARK    9  A    between atoms: C_28  and  C_29 
REMARK   10  A    between atoms: C_29  and  C_30 
ROOT
HETATM    1  H           1     -23.323  -5.781  -5.395  0.00  0.00     0.163 HD
HETATM    2  O           1     -21.189  -6.027  -3.553  0.00  0.00    -0.271 OA
HETATM    3  C           1     -21.733  -6.673  -4.416  0.00  0.00     0.251 C 
HETATM    4  N           1     -22.347  -6.039  -5.462  0.00  0.00    -0.344 N 
ENDROOT
BRANCH   4   5
HETATM    5  C           1     -21.598  -5.737  -6.666  0.00  0.00     0.190 C 
BRANCH   5   6
HETATM    6  C           1     -20.125  -5.682  -6.343  0.00  0.00     0.197 C 
HETATM    7  O           1     -19.643  -4.667  -5.797  0.00  0.00    -0.646 OA
HETATM    8  O           1     -19.388  -6.653  -6.622  0.00  0.00    -0.646 OA
ENDBRANCH   5   6
BRANCH   5   9
HETATM    9  C           1     -22.047  -4.389  -7.218  0.00  0.00     0.077 C 
BRANCH   9  10
HETATM   10  C           1     -21.683  -4.297  -8.667  0.00  0.00    -0.028 A 
HETATM   11  C           1     -22.559  -3.948  -9.732  0.00  0.00    -0.002 A 
HETATM   12  C           1     -23.923  -3.605  -9.805  0.00  0.00     0.014 A 
HETATM   13  C           1     -21.811  -3.984 -10.908  0.00  0.00     0.042 A 
HETATM   14  C           1     -24.489  -3.309 -11.051  0.00  0.00     0.001 A 
HETATM   15  C           1     -23.717  -3.353 -12.211  0.00  0.00     0.002 A 
HETATM   16  C           1     -22.361  -3.692 -12.163  0.00  0.00     0.030 A 
HETATM   17  N           1     -20.528  -4.342 -10.561  0.00  0.00    -0.365 N 
HETATM   18  H           1     -19.732  -4.453 -11.237  0.00  0.00     0.165 HD
HETATM   19  C           1     -20.439  -4.534  -9.208  0.00  0.00     0.096 A 
ENDBRANCH   9  10
ENDBRANCH   5   9
ENDBRANCH   4   5
BRANCH   3  20
HETATM   20  C           1     -21.735  -8.181  -4.341  0.00  0.00     0.298 C 
BRANCH  20  21
HETATM   21  N           1     -20.937  -8.738  -5.483  0.00  0.00    -0.064 N 
HETATM   22  H           1     -21.580  -9.198  -6.166  0.00  0.00     0.275 HD
HETATM   23  H           1     -20.253  -9.439  -5.120  0.00  0.00     0.275 HD
HETATM   24  H           1     -20.421  -7.962  -5.958  0.00  0.00     0.275 HD
ENDBRANCH  20  21
BRANCH  20  25
HETATM   25  C           1     -21.115  -8.625  -3.024  0.00  0.00     0.224 C 
BRANCH  25  26
HETATM   26  O           1     -22.131  -8.996  -2.130  0.00  0.00    -0.287 OA
BRANCH  26  27
HETATM   27  P           1     -22.160  -8.201  -0.725  0.00  0.00     0.406 P 
HETATM   28  O           1     -23.122  -8.854   0.191  0.00  0.00    -0.624 OA
HETATM   29  O           1     -20.809  -8.221  -0.119  0.00  0.00    -0.624 OA
BRANCH  27  30
HETATM   30  O           1     -22.612  -6.671  -0.978  0.00  0.00    -0.300 OA
HETATM   31  H           1     -21.997  -6.151  -0.490  0.00  0.00     0.223 HD
ENDBRANCH  27  30
ENDBRANCH  26  27
ENDBRANCH  25  26
ENDBRANCH  20  25
ENDBRANCH   3  20
TORSDOF 10
ENDMDL
MODEL 4
REMARK VINA RESULT:      -7.3      3.003      4.744
REMARK  10 active torsions:
REMARK  status: ('A' for Active; 'I' for Inactive)
REMARK    1  A    between atoms: C_1  and  C_30 
REMARK    2  A    between atoms: N_10  and  C_17 
REMARK    3  A    between atoms: O_13  and  P_14 
REMARK    4  A    between atoms: P_14  and  O_15 
REMARK    5  A    between atoms: O_15  and  C_16 
REMARK    6  A    between atoms: C_16  and  C_17 
REMARK    7  A    between atoms: C_17  and  C_18 
REMARK       I    between atoms: C_18  and  N_19 
REMARK    8  A    between atoms: N_19  and  C_30 
REMARK    9  A    between atoms: C_28  and  C_29 
REMARK   10  A    between atoms: C_29  and  C_30 
ROOT
HETATM    1  H           1     -19.859  -7.264  -2.472  0.00  0.00     0.163 HD
HETATM    2  O           1     -22.184  -5.652  -2.420  0.00  0.00    -0.271 OA
HETATM    3  C           1     -21.693  -6.530  -3.088  0.00  0.00     0.251 C 
HETATM    4  N           1     -20.854  -7.444  -2.509  0.00  0.00    -0.344 N 
ENDROOT
BRANCH   4   5
HETATM    5  C           1     -21.391  -8.668  -1.949  0.00  0.00     0.190 C 
BRANCH   5   6
HETATM    6  C           1     -21.786  -8.434  -0.511  0.00  0.00     0.197 C 
HETATM    7  O           1     -22.940  -8.043  -0.236  0.00  0.00    -0.646 OA
HETATM    8  O           1     -20.956  -8.629   0.404  0.00  0.00    -0.646 OA
ENDBRANCH   5   6
BRANCH   5   9
HETATM    9  C           1     -20.333  -9.763  -2.014  0.00  0.00     0.077 C 
BRANCH   9  10
HETATM   10  C           1     -19.807  -9.865  -3.411  0.00  0.00    -0.028 A 
HETATM   11  C           1     -18.439  -9.811  -3.797  0.00  0.00    -0.002 A 
HETATM   12  C           1     -17.227  -9.659  -3.095  0.00  0.00     0.014 A 
HETATM   13  C           1     -18.398  -9.945  -5.185  0.00  0.00     0.042 A 
HETATM   14  C           1     -16.021  -9.648  -3.805  0.00  0.00     0.001 A 
HETATM   15  C           1     -16.011  -9.784  -5.192  0.00  0.00     0.002 A 
HETATM   16  C           1     -17.200  -9.936  -5.911  0.00  0.00     0.030 A 
HETATM   17  N           1     -19.698 -10.076  -5.617  0.00  0.00    -0.365 N 
HETATM   18  H           1     -19.989 -10.195  -6.619  0.00  0.00     0.165 HD
HETATM   19  C           1     -20.559 -10.029  -4.552  0.00  0.00     0.096 A 
ENDBRANCH   9  10
ENDBRANCH   5   9
ENDBRANCH   4   5
BRANCH   3  20
HETATM   20  C           1     -22.006  -6.620  -4.562  0.00  0.00     0.298 C 
BRANCH  20  21
HETATM   21  N           1     -23.461  -6.332  -4.782  0.00  0.00    -0.064 N 
HETATM   22  H           1     -24.029  -6.849  -4.074  0.00  0.00     0.275 HD
HETATM   23  H           1     -23.736  -6.640  -5.742  0.00  0.00     0.275 HD
HETATM   24  H           1     -23.632  -5.305  -4.683  0.00  0.00     0.275 HD
ENDBRANCH  20  21
BRANCH  20  25
HETATM   25  C           1     -21.166  -5.603  -5.322  0.00  0.00     0.224 C 
BRANCH  25  26
HETATM   26  O           1     -21.347  -5.784  -6.701  0.00  0.00    -0.287 OA
BRANCH  26  27
HETATM   27  P           1     -21.948  -4.521  -7.507  0.00  0.00     0.406 P 
HETATM   28  O           1     -21.232  -3.290  -7.103  0.00  0.00    -0.624 OA
HETATM   29  O           1     -21.776  -4.737  -8.961  0.00  0.00    -0.624 OA
BRANCH  27  30
HETATM   30  O           1     -23.520  -4.364  -7.170  0.00  0.00    -0.300 OA
HETATM   31  H           1     -23.793  -3.592  -7.636  0.00  0.00     0.223 HD
ENDBRANCH  27  30
ENDBRANCH  26  27
ENDBRANCH  25  26
ENDBRANCH  20  25
ENDBRANCH   3  20
TORSDOF 10
ENDMDL
MODEL 5
REMARK VINA RESULT:      -7.2      3.777      8.114
REMARK  10 active torsions:
REMARK  status: ('A' for Active; 'I' for Inactive)
REMARK    1  A    between atoms: C_1  and  C_30 
REMARK    2  A    between atoms: N_10  and  C_17 
REMARK    3  A    between atoms: O_13  and  P_14 
REMARK    4  A    between atoms: P_14  and  O_15 
REMARK    5  A    between atoms: O_15  and  C_16 
REMARK    6  A    between atoms: C_16  and  C_17 
REMARK    7  A    between atoms: C_17  and  C_18 
REMARK       I    between atoms: C_18  and  N_19 
REMARK    8  A    between atoms: N_19  and  C_30 
REMARK    9  A    between atoms: C_28  and  C_29 
REMARK   10  A    between atoms: C_29  and  C_30 
ROOT
HETATM    1  H           1     -21.776  -7.811  -6.705  0.00  0.00     0.163 HD
HETATM    2  O           1     -23.315  -6.088  -5.072  0.00  0.00    -0.271 OA
HETATM    3  C           1     -22.167  -6.435  -5.210  0.00  0.00     0.251 C 
HETATM    4  N           1     -21.716  -6.837  -6.439  0.00  0.00    -0.344 N 
ENDROOT
BRANCH   4   5
HETATM    5  C           1     -21.152  -5.867  -7.357  0.00  0.00     0.190 C 
BRANCH   5   6
HETATM    6  C           1     -19.664  -5.765  -7.129  0.00  0.00     0.197 C 
HETATM    7  O           1     -18.947  -6.784  -7.217  0.00  0.00    -0.646 OA
HETATM    8  O           1     -19.148  -4.660  -6.852  0.00  0.00    -0.646 OA
ENDBRANCH   5   6
BRANCH   5   9
HETATM    9  C           1     -21.798  -4.507  -7.118  0.00  0.00     0.077 C 
BRANCH   9  10
HETATM   10  C           1     -22.715  -4.184  -8.255  0.00  0.00    -0.028 A 
HETATM   11  C           1     -22.321  -3.842  -9.579  0.00  0.00    -0.002 A 
HETATM   12  C           1     -21.078  -3.699 -10.225  0.00  0.00     0.014 A 
HETATM   13  C           1     -23.488  -3.620 -10.310  0.00  0.00     0.042 A 
HETATM   14  C           1     -21.047  -3.341 -11.578  0.00  0.00     0.001 A 
HETATM   15  C           1     -22.229  -3.126 -12.284  0.00  0.00     0.002 A 
HETATM   16  C           1     -23.475  -3.261 -11.664  0.00  0.00     0.030 A 
HETATM   17  N           1     -24.547  -3.822  -9.454  0.00  0.00    -0.365 N 
HETATM   18  H           1     -25.558  -3.728  -9.718  0.00  0.00     0.165 HD
HETATM   19  C           1     -24.091  -4.163  -8.209  0.00  0.00     0.096 A 
ENDBRANCH   9  10
ENDBRANCH   5   9
ENDBRANCH   4   5
BRANCH   3  20
HETATM   20  C           1     -21.228  -6.425  -4.028  0.00  0.00     0.298 C 
BRANCH  20  21
HETATM   21  N           1     -21.958  -5.925  -2.817  0.00  0.00    -0.064 N 
HETATM   22  H           1     -21.276  -5.496  -2.151  0.00  0.00     0.275 HD
HETATM   23  H           1     -22.446  -6.723  -2.349  0.00  0.00     0.275 HD
HETATM   24  H           1     -22.662  -5.208  -3.105  0.00  0.00     0.275 HD
ENDBRANCH  20  21
BRANCH  20  25
HETATM   25  C           1     -20.722  -7.838  -3.769  0.00  0.00     0.224 C 
BRANCH  25  26
HETATM   26  O           1     -19.844  -8.215  -4.795  0.00  0.00    -0.287 OA
BRANCH  26  27
HETATM   27  P           1     -19.124  -9.650  -4.617  0.00  0.00     0.406 P 
HETATM   28  O           1     -19.970 -10.525  -3.776  0.00  0.00    -0.624 OA
HETATM   29  O           1     -18.935 -10.274  -5.946  0.00  0.00    -0.624 OA
BRANCH  27  30
HETATM   30  O           1     -17.687  -9.449  -3.909  0.00  0.00    -0.300 OA
HETATM   31  H           1     -17.090  -9.270  -4.615  0.00  0.00     0.223 HD
ENDBRANCH  27  30
ENDBRANCH  26  27
ENDBRANCH  25  26
ENDBRANCH  20  25
ENDBRANCH   3  20
TORSDOF 10
ENDMDL
MODEL 6
REMARK VINA RESULT:      -7.2     13.918     15.532
REMARK  10 active torsions:
REMARK  status: ('A' for Active; 'I' for Inactive)
REMARK    1  A    between atoms: C_1  and  C_30 
REMARK    2  A    between atoms: N_10  and  C_17 
REMARK    3  A    between atoms: O_13  and  P_14 
REMARK    4  A    between atoms: P_14  and  O_15 
REMARK    5  A    between atoms: O_15  and  C_16 
REMARK    6  A    between atoms: C_16  and  C_17 
REMARK    7  A    between atoms: C_17  and  C_18 
REMARK       I    between atoms: C_18  and  N_19 
REMARK    8  A    between atoms: N_19  and  C_30 
REMARK    9  A    between atoms: C_28  and  C_29 
REMARK   10  A    between atoms: C_29  and  C_30 
ROOT
HETATM    1  H           1     -33.933  -1.686 -13.120  0.00  0.00     0.163 HD
HETATM    2  O           1     -35.153   0.845 -12.788  0.00  0.00    -0.271 OA
HETATM    3  C           1     -35.421  -0.251 -13.218  0.00  0.00     0.251 C 
HETATM    4  N           1     -34.797  -1.358 -12.708  0.00  0.00    -0.344 N 
ENDROOT
BRANCH   4   5
HETATM    5  C           1     -35.374  -2.059 -11.578  0.00  0.00     0.190 C 
BRANCH   5   6
HETATM    6  C           1     -36.396  -1.175 -10.906  0.00  0.00     0.197 C 
HETATM    7  O           1     -36.041  -0.381 -10.009  0.00  0.00    -0.646 OA
HETATM    8  O           1     -37.598  -1.239 -11.246  0.00  0.00    -0.646 OA
ENDBRANCH   5   6
BRANCH   5   9
HETATM    9  C           1     -34.274  -2.411 -10.584  0.00  0.00     0.077 C 
BRANCH   9  10
HETATM   10  C           1     -33.647  -3.713 -10.973  0.00  0.00    -0.028 A 
HETATM   11  C           1     -34.076  -5.006 -10.564  0.00  0.00    -0.002 A 
HETATM   12  C           1     -35.119  -5.478  -9.743  0.00  0.00     0.014 A 
HETATM   13  C           1     -33.215  -5.931 -11.155  0.00  0.00     0.042 A 
HETATM   14  C           1     -35.263  -6.856  -9.544  0.00  0.00     0.001 A 
HETATM   15  C           1     -34.388  -7.757 -10.148  0.00  0.00     0.002 A 
HETATM   16  C           1     -33.345  -7.312 -10.966  0.00  0.00     0.030 A 
HETATM   17  N           1     -32.300  -5.216 -11.895  0.00  0.00    -0.365 N 
HETATM   18  H           1     -31.521  -5.639 -12.457  0.00  0.00     0.165 HD
HETATM   19  C           1     -32.552  -3.874 -11.792  0.00  0.00     0.096 A 
ENDBRANCH   9  10
ENDBRANCH   5   9
ENDBRANCH   4   5
BRANCH   3  20
HETATM   20  C           1     -36.444  -0.401 -14.317  0.00  0.00     0.298 C 
BRANCH  20  21
HETATM   21  N           1     -37.646   0.436 -13.997  0.00  0.00    -0.064 N 
HETATM   22  H           1     -38.495  -0.172 -13.962  0.00  0.00     0.275 HD
HETATM   23  H           1     -37.770   1.165 -14.736  0.00  0.00     0.275 HD
HETATM   24  H           1     -37.511   0.900 -13.070  0.00  0.00     0.275 HD
ENDBRANCH  20  21
BRANCH  20  25
HETATM   25  C           1     -35.842   0.059 -15.638  0.00  0.00     0.224 C 
BRANCH  25  26
HETATM   26  O           1     -34.680  -0.680 -15.905  0.00  0.00    -0.287 OA
BRANCH  26  27
HETATM   27  P           1     -34.907  -2.204 -16.386  0.00  0.00     0.406 P 
HETATM   28  O           1     -34.650  -3.123 -15.255  0.00  0.00    -0.624 OA
HETATM   29  O           1     -36.302  -2.371 -16.852  0.00  0.00    -0.624 OA
BRANCH  27  30
HETATM   30  O           1     -33.892  -2.545 -17.596  0.00  0.00    -0.300 OA
HETATM   31  H           1     -34.132  -3.410 -17.879  0.00  0.00     0.223 HD
ENDBRANCH  27  30
ENDBRANCH  26  27
ENDBRANCH  25  26
ENDBRANCH  20  25
ENDBRANCH   3  20
TORSDOF 10
ENDMDL
MODEL 7
REMARK VINA RESULT:      -7.2      4.326      8.643
REMARK  10 active torsions:
REMARK  status: ('A' for Active; 'I' for Inactive)
REMARK    1  A    between atoms: C_1  and  C_30 
REMARK    2  A    between atoms: N_10  and  C_17 
REMARK    3  A    between atoms: O_13  and  P_14 
REMARK    4  A    between atoms: P_14  and  O_15 
REMARK    5  A    between atoms: O_15  and  C_16 
REMARK    6  A    between atoms: C_16  and  C_17 
REMARK    7  A    between atoms: C_17  and  C_18 
REMARK       I    between atoms: C_18  and  N_19 
REMARK    8  A    between atoms: N_19  and  C_30 
REMARK    9  A    between atoms: C_28  and  C_29 
REMARK   10  A    between atoms: C_29  and  C_30 
ROOT
HETATM    1  H           1     -23.430  -6.382  -4.270  0.00  0.00     0.163 HD
HETATM    2  O           1     -21.076  -5.703  -2.854  0.00  0.00    -0.271 OA
HETATM    3  C           1     -21.622  -6.680  -3.309  0.00  0.00     0.251 C 
HETATM    4  N           1     -22.441  -6.561  -4.398  0.00  0.00    -0.344 N 
ENDROOT
BRANCH   4   5
HETATM    5  C           1     -21.895  -6.691  -5.734  0.00  0.00     0.190 C 
BRANCH   5   6
HETATM    6  C           1     -20.850  -7.780  -5.746  0.00  0.00     0.197 C 
HETATM    7  O           1     -19.637  -7.481  -5.768  0.00  0.00    -0.646 OA
HETATM    8  O           1     -21.198  -8.981  -5.734  0.00  0.00    -0.646 OA
ENDBRANCH   5   6
BRANCH   5   9
HETATM    9  C           1     -21.259  -5.372  -6.154  0.00  0.00     0.077 C 
BRANCH   9  10
HETATM   10  C           1     -22.048  -4.772  -7.275  0.00  0.00    -0.028 A 
HETATM   11  C           1     -21.572  -4.513  -8.591  0.00  0.00    -0.002 A 
HETATM   12  C           1     -20.337  -4.701  -9.240  0.00  0.00     0.014 A 
HETATM   13  C           1     -22.630  -3.954  -9.308  0.00  0.00     0.042 A 
HETATM   14  C           1     -20.205  -4.325 -10.582  0.00  0.00     0.001 A 
HETATM   15  C           1     -21.279  -3.769 -11.274  0.00  0.00     0.002 A 
HETATM   16  C           1     -22.515  -3.572 -10.650  0.00  0.00     0.030 A 
HETATM   17  N           1     -23.705  -3.880  -8.451  0.00  0.00    -0.365 N 
HETATM   18  H           1     -24.651  -3.502  -8.705  0.00  0.00     0.165 HD
HETATM   19  C           1     -23.364  -4.372  -7.219  0.00  0.00     0.096 A 
ENDBRANCH   9  10
ENDBRANCH   5   9
ENDBRANCH   4   5
BRANCH   3  20
HETATM   20  C           1     -21.399  -8.032  -2.676  0.00  0.00     0.298 C 
BRANCH  20  21
HETATM   21  N           1     -19.953  -8.411  -2.806  0.00  0.00    -0.064 N 
HETATM   22  H           1     -19.580  -8.689  -1.870  0.00  0.00     0.275 HD
HETATM   23  H           1     -19.410  -7.596  -3.170  0.00  0.00     0.275 HD
HETATM   24  H           1     -19.862  -9.214  -3.470  0.00  0.00     0.275 HD
ENDBRANCH  20  21
BRANCH  20  25
HETATM   25  C           1     -21.777  -7.972  -1.202  0.00  0.00     0.224 C 
BRANCH  25  26
HETATM   26  O           1     -21.267  -9.099  -0.542  0.00  0.00    -0.287 OA
BRANCH  26  27
HETATM   27  P           1     -22.276 -10.353  -0.403  0.00  0.00     0.406 P 
HETATM   28  O           1     -21.779 -11.272   0.645  0.00  0.00    -0.624 OA
HETATM   29  O           1     -23.622  -9.863  -0.033  0.00  0.00    -0.624 OA
BRANCH  27  30
HETATM   30  O           1     -22.358 -11.138  -1.812  0.00  0.00    -0.300 OA
HETATM   31  H           1     -21.471 -11.165  -2.128  0.00  0.00     0.223 HD
ENDBRANCH  27  30
ENDBRANCH  26  27
ENDBRANCH  25  26
ENDBRANCH  20  25
ENDBRANCH   3  20
TORSDOF 10
ENDMDL
MODEL 8
REMARK VINA RESULT:      -7.1     13.788     16.234
REMARK  10 active torsions:
REMARK  status: ('A' for Active; 'I' for Inactive)
REMARK    1  A    between atoms: C_1  and  C_30 
REMARK    2  A    between atoms: N_10  and  C_17 
REMARK    3  A    between atoms: O_13  and  P_14 
REMARK    4  A    between atoms: P_14  and  O_15 
REMARK    5  A    between atoms: O_15  and  C_16 
REMARK    6  A    between atoms: C_16  and  C_17 
REMARK    7  A    between atoms: C_17  and  C_18 
REMARK       I    between atoms: C_18  and  N_19 
REMARK    8  A    between atoms: N_19  and  C_30 
REMARK    9  A    between atoms: C_28  and  C_29 
REMARK   10  A    between atoms: C_29  and  C_30 
ROOT
HETATM    1  H           1     -34.152  -0.247 -15.857  0.00  0.00     0.163 HD
HETATM    2  O           1     -35.426  -2.151 -17.517  0.00  0.00    -0.271 OA
HETATM    3  C           1     -34.732  -2.116 -16.530  0.00  0.00     0.251 C 
HETATM    4  N           1     -34.776  -1.029 -15.700  0.00  0.00    -0.344 N 
ENDROOT
BRANCH   4   5
HETATM    5  C           1     -35.716  -0.996 -14.597  0.00  0.00     0.190 C 
BRANCH   5   6
HETATM    6  C           1     -36.811  -0.002 -14.899  0.00  0.00     0.197 C 
HETATM    7  O           1     -37.824   0.052 -14.169  0.00  0.00    -0.646 OA
HETATM    8  O           1     -36.705   0.767 -15.880  0.00  0.00    -0.646 OA
ENDBRANCH   5   6
BRANCH   5   9
HETATM    9  C           1     -34.990  -0.581 -13.323  0.00  0.00     0.077 C 
BRANCH   9  10
HETATM   10  C           1     -35.285  -1.568 -12.237  0.00  0.00    -0.028 A 
HETATM   11  C           1     -34.577  -2.776 -11.988  0.00  0.00    -0.002 A 
HETATM   12  C           1     -33.475  -3.410 -12.595  0.00  0.00     0.014 A 
HETATM   13  C           1     -35.181  -3.387 -10.889  0.00  0.00     0.042 A 
HETATM   14  C           1     -33.018  -4.629 -12.082  0.00  0.00     0.001 A 
HETATM   15  C           1     -33.642  -5.217 -10.983  0.00  0.00     0.002 A 
HETATM   16  C           1     -34.737  -4.607 -10.364  0.00  0.00     0.030 A 
HETATM   17  N           1     -36.218  -2.573 -10.493  0.00  0.00    -0.365 N 
HETATM   18  H           1     -36.860  -2.768  -9.686  0.00  0.00     0.165 HD
HETATM   19  C           1     -36.289  -1.469 -11.301  0.00  0.00     0.096 A 
ENDBRANCH   9  10
ENDBRANCH   5   9
ENDBRANCH   4   5
BRANCH   3  20
HETATM   20  C           1     -33.815  -3.273 -16.210  0.00  0.00     0.298 C 
BRANCH  20  21
HETATM   21  N           1     -34.636  -4.497 -15.935  0.00  0.00    -0.064 N 
HETATM   22  H           1     -34.194  -5.324 -16.398  0.00  0.00     0.275 HD
HETATM   23  H           1     -35.601  -4.362 -16.310  0.00  0.00     0.275 HD
HETATM   24  H           1     -34.684  -4.660 -14.903  0.00  0.00     0.275 HD
ENDBRANCH  20  21
BRANCH  20  25
HETATM   25  C           1     -32.895  -3.534 -17.395  0.00  0.00     0.224 C 
BRANCH  25  26
HETATM   26  O           1     -31.576  -3.678 -16.940  0.00  0.00    -0.287 OA
BRANCH  26  27
HETATM   27  P           1     -30.983  -5.180 -16.959  0.00  0.00     0.406 P 
HETATM   28  O           1     -30.125  -5.357 -18.152  0.00  0.00    -0.624 OA
HETATM   29  O           1     -30.181  -5.408 -15.736  0.00  0.00    -0.624 OA
BRANCH  27  30
HETATM   30  O           1     -32.199  -6.241 -17.009  0.00  0.00    -0.300 OA
HETATM   31  H           1     -32.932  -5.790 -16.626  0.00  0.00     0.223 HD
ENDBRANCH  27  30
ENDBRANCH  26  27
ENDBRANCH  25  26
ENDBRANCH  20  25
ENDBRANCH   3  20
TORSDOF 10
ENDMDL
MODEL 9
REMARK VINA RESULT:      -7.0      4.824      8.081
REMARK  10 active torsions:
REMARK  status: ('A' for Active; 'I' for Inactive)
REMARK    1  A    between atoms: C_1  and  C_30 
REMARK    2  A    between atoms: N_10  and  C_17 
REMARK    3  A    between atoms: O_13  and  P_14 
REMARK    4  A    between atoms: P_14  and  O_15 
REMARK    5  A    between atoms: O_15  and  C_16 
REMARK    6  A    between atoms: C_16  and  C_17 
REMARK    7  A    between atoms: C_17  and  C_18 
REMARK       I    between atoms: C_18  and  N_19 
REMARK    8  A    between atoms: N_19  and  C_30 
REMARK    9  A    between atoms: C_28  and  C_29 
REMARK   10  A    between atoms: C_29  and  C_30 
ROOT
HETATM    1  H           1     -19.712  -9.943  -2.788  0.00  0.00     0.163 HD
HETATM    2  O           1     -20.864 -12.464  -3.355  0.00  0.00    -0.271 OA
HETATM    3  C           1     -21.205 -11.358  -3.011  0.00  0.00     0.251 C 
HETATM    4  N           1     -20.466 -10.267  -3.381  0.00  0.00    -0.344 N 
ENDROOT
BRANCH   4   5
HETATM    5  C           1     -20.763  -9.577  -4.620  0.00  0.00     0.190 C 
BRANCH   5   6
HETATM    6  C           1     -20.297 -10.414  -5.786  0.00  0.00     0.197 C 
HETATM    7  O           1     -21.134 -10.968  -6.531  0.00  0.00    -0.646 OA
HETATM    8  O           1     -19.074 -10.555  -6.006  0.00  0.00    -0.646 OA
ENDBRANCH   5   6
BRANCH   5   9
HETATM    9  C           1     -20.042  -8.235  -4.639  0.00  0.00     0.077 C 
BRANCH   9  10
HETATM   10  C           1     -20.984  -7.169  -5.107  0.00  0.00    -0.028 A 
HETATM   11  C           1     -20.716  -6.194  -6.107  0.00  0.00    -0.002 A 
HETATM   12  C           1     -19.605  -5.908  -6.924  0.00  0.00     0.014 A 
HETATM   13  C           1     -21.860  -5.405  -6.228  0.00  0.00     0.042 A 
HETATM   14  C           1     -19.677  -4.844  -7.831  0.00  0.00     0.001 A 
HETATM   15  C           1     -20.834  -4.072  -7.930  0.00  0.00     0.002 A 
HETATM   16  C           1     -21.949  -4.337  -7.130  0.00  0.00     0.030 A 
HETATM   17  N           1     -22.783  -5.890  -5.330  0.00  0.00    -0.365 N 
HETATM   18  H           1     -23.747  -5.499  -5.189  0.00  0.00     0.165 HD
HETATM   19  C           1     -22.264  -6.957  -4.646  0.00  0.00     0.096 A 
ENDBRANCH   9  10
ENDBRANCH   5   9
ENDBRANCH   4   5
BRANCH   3  20
HETATM   20  C           1     -22.448 -11.180  -2.172  0.00  0.00     0.298 C 
BRANCH  20  21
HETATM   21  N           1     -23.064 -12.520  -1.903  0.00  0.00    -0.064 N 
HETATM   22  H           1     -22.318 -13.251  -1.891  0.00  0.00     0.275 HD
HETATM   23  H           1     -23.757 -12.742  -2.653  0.00  0.00     0.275 HD
HETATM   24  H           1     -23.549 -12.501  -0.977  0.00  0.00     0.275 HD
ENDBRANCH  20  21
BRANCH  20  25
HETATM   25  C           1     -22.078 -10.516  -0.852  0.00  0.00     0.224 C 
BRANCH  25  26
HETATM   26  O           1     -22.799  -9.321  -0.711  0.00  0.00    -0.287 OA
BRANCH  26  27
HETATM   27  P           1     -21.920  -7.995  -0.435  0.00  0.00     0.406 P 
HETATM   28  O           1     -21.712  -7.836   1.022  0.00  0.00    -0.624 OA
HETATM   29  O           1     -20.610  -8.123  -1.110  0.00  0.00    -0.624 OA
BRANCH  27  30
HETATM   30  O           1     -22.698  -6.702  -1.012  0.00  0.00    -0.300 OA
HETATM   31  H           1     -22.152  -6.380  -1.708  0.00  0.00     0.223 HD
ENDBRANCH  27  30
ENDBRANCH  26  27
ENDBRANCH  25  26
ENDBRANCH  20  25
ENDBRANCH   3  20
TORSDOF 10
ENDMDL
