MODEL 1
REMARK VINA RESULT:      -6.7      0.000      0.000
REMARK  11 active torsions:
REMARK  status: ('A' for Active; 'I' for Inactive)
REMARK    1  A    between atoms: C_1  and  C_21 
REMARK    2  A    between atoms: C_6  and  C_13 
REMARK    3  A    between atoms: C_6  and  C_7 
REMARK    4  A    between atoms: C_9  and  N_14 
REMARK    5  A    between atoms: C_9  and  C_10 
REMARK    6  A    between atoms: C_10  and  C_19 
REMARK    7  A    between atoms: N_12  and  C_13 
REMARK    8  A    between atoms: C_13  and  C_22 
REMARK    9  A    between atoms: C_19  and  C_20 
REMARK   10  A    between atoms: C_20  and  C_21 
REMARK   11  A    between atoms: C_21  and  N_23 
REMARK       I    between atoms: C_22  and  N_23 
ROOT
HETATM    1  H           1     -22.117  -5.775  -9.584  0.00  0.00     0.163 HD
HETATM    2  O           1     -21.841  -3.543  -7.396  0.00  0.00    -0.271 OA
HETATM    3  C           1     -21.741  -4.639  -7.895  0.00  0.00     0.249 C 
HETATM    4  N           1     -22.202  -4.857  -9.166  0.00  0.00    -0.345 N 
ENDROOT
BRANCH   4   5
HETATM    5  C           1     -22.812  -3.774  -9.912  0.00  0.00     0.185 C 
BRANCH   5   6
HETATM    6  C           1     -24.311  -3.834  -9.750  0.00  0.00     0.196 C 
HETATM    7  O           1     -24.909  -4.925  -9.874  0.00  0.00    -0.646 OA
HETATM    8  O           1     -24.953  -2.794  -9.490  0.00  0.00    -0.646 OA
ENDBRANCH   5   6
BRANCH   5   9
HETATM    9  C           1     -22.455  -3.910 -11.386  0.00  0.00     0.036 C 
BRANCH   9  10
HETATM   10  C           1     -22.650  -2.570 -12.083  0.00  0.00     0.004 C 
BRANCH  10  11
HETATM   11  C           1     -23.800  -2.675 -13.076  0.00  0.00     0.027 C 
BRANCH  11  12
HETATM   12  C           1     -23.396  -2.025 -14.392  0.00  0.00     0.229 C 
BRANCH  12  13
HETATM   13  N           1     -24.197  -0.774 -14.600  0.00  0.00    -0.079 N 
HETATM   14  H           1     -24.493  -0.392 -13.673  0.00  0.00     0.274 HD
HETATM   15  H           1     -23.613  -0.064 -15.097  0.00  0.00     0.274 HD
HETATM   16  H           1     -25.042  -0.993 -15.174  0.00  0.00     0.274 HD
ENDBRANCH  12  13
ENDBRANCH  11  12
ENDBRANCH  10  11
ENDBRANCH   9  10
ENDBRANCH   5   9
ENDBRANCH   4   5
BRANCH   3  17
HETATM   17  C           1     -21.106  -5.766  -7.118  0.00  0.00     0.275 C 
BRANCH  17  18
HETATM   18  C           1     -20.992  -5.371  -5.652  0.00  0.00     0.046 C 
BRANCH  18  19
HETATM   19  C           1     -21.815  -6.330  -4.802  0.00  0.00    -0.020 C 
HETATM   20  C           1     -21.540  -7.762  -5.239  0.00  0.00     0.009 C 
HETATM   21  C           1     -21.432  -6.165  -3.337  0.00  0.00     0.009 C 
ENDBRANCH  18  19
ENDBRANCH  17  18
BRANCH  17  22
HETATM   22  N           1     -19.738  -6.042  -7.668  0.00  0.00    -0.066 N 
HETATM   23  H           1     -19.588  -5.475  -8.533  0.00  0.00     0.275 HD
HETATM   24  H           1     -19.018  -5.786  -6.956  0.00  0.00     0.275 HD
HETATM   25  H           1     -19.655  -7.058  -7.900  0.00  0.00     0.275 HD
ENDBRANCH  17  22
ENDBRANCH   3  17
TORSDOF 11
ENDMDL
MODEL 2
REMARK VINA RESULT:      -6.2     11.621     14.351
REMARK  11 active torsions:
REMARK  status: ('A' for Active; 'I' for Inactive)
REMARK    1  A    between atoms: C_1  and  C_21 
REMARK    2  A    between atoms: C_6  and  C_13 
REMARK    3  A    between atoms: C_6  and  C_7 
REMARK    4  A    between atoms: C_9  and  N_14 
REMARK    5  A    between atoms: C_9  and  C_10 
REMARK    6  A    between atoms: C_10  and  C_19 
REMARK    7  A    between atoms: N_12  and  C_13 
REMARK    8  A    between atoms: C_13  and  C_22 
REMARK    9  A    between atoms: C_19  and  C_20 
REMARK   10  A    between atoms: C_20  and  C_21 
REMARK   11  A    between atoms: C_21  and  N_23 
REMARK       I    between atoms: C_22  and  N_23 
ROOT
HETATM    1  H           1     -35.602  -2.801 -12.662  0.00  0.00     0.163 HD
HETATM    2  O           1     -34.568  -1.430 -10.036  0.00  0.00    -0.271 OA
HETATM    3  C           1     -35.188  -1.549 -11.066  0.00  0.00     0.249 C 
HETATM    4  N           1     -35.082  -2.701 -11.798  0.00  0.00    -0.345 N 
ENDROOT
BRANCH   4   5
HETATM    5  C           1     -34.227  -3.778 -11.338  0.00  0.00     0.185 C 
BRANCH   5   6
HETATM    6  C           1     -33.233  -4.126 -12.420  0.00  0.00     0.196 C 
HETATM    7  O           1     -33.573  -4.069 -13.621  0.00  0.00    -0.646 OA
HETATM    8  O           1     -32.071  -4.470 -12.113  0.00  0.00    -0.646 OA
ENDBRANCH   5   6
BRANCH   5   9
HETATM    9  C           1     -35.077  -4.999 -11.017  0.00  0.00     0.036 C 
BRANCH   9  10
HETATM   10  C           1     -34.171  -6.175 -10.676  0.00  0.00     0.004 C 
BRANCH  10  11
HETATM   11  C           1     -34.994  -7.281 -10.029  0.00  0.00     0.027 C 
BRANCH  11  12
HETATM   12  C           1     -34.061  -8.299  -9.386  0.00  0.00     0.229 C 
BRANCH  12  13
HETATM   13  N           1     -33.451  -9.162 -10.451  0.00  0.00    -0.079 N 
HETATM   14  H           1     -33.599 -10.168 -10.210  0.00  0.00     0.274 HD
HETATM   15  H           1     -33.903  -8.954 -11.370  0.00  0.00     0.274 HD
HETATM   16  H           1     -32.427  -8.964 -10.515  0.00  0.00     0.274 HD
ENDBRANCH  12  13
ENDBRANCH  11  12
ENDBRANCH  10  11
ENDBRANCH   9  10
ENDBRANCH   5   9
ENDBRANCH   4   5
BRANCH   3  17
HETATM   17  C           1     -36.078  -0.429 -11.545  0.00  0.00     0.275 C 
BRANCH  17  18
HETATM   18  C           1     -35.329   0.413 -12.569  0.00  0.00     0.046 C 
BRANCH  18  19
HETATM   19  C           1     -35.770   0.019 -13.972  0.00  0.00    -0.020 C 
HETATM   20  C           1     -37.291  -0.038 -14.031  0.00  0.00     0.009 C 
HETATM   21  C           1     -35.262   1.050 -14.972  0.00  0.00     0.009 C 
ENDBRANCH  18  19
ENDBRANCH  17  18
BRANCH  17  22
HETATM   22  N           1     -36.467   0.432 -10.379  0.00  0.00    -0.066 N 
HETATM   23  H           1     -37.435   0.185 -10.072  0.00  0.00     0.275 HD
HETATM   24  H           1     -35.800   0.272  -9.591  0.00  0.00     0.275 HD
HETATM   25  H           1     -36.438   1.436 -10.664  0.00  0.00     0.275 HD
ENDBRANCH  17  22
ENDBRANCH   3  17
TORSDOF 11
ENDMDL
MODEL 3
REMARK VINA RESULT:      -5.9      3.208      8.289
REMARK  11 active torsions:
REMARK  status: ('A' for Active; 'I' for Inactive)
REMARK    1  A    between atoms: C_1  and  C_21 
REMARK    2  A    between atoms: C_6  and  C_13 
REMARK    3  A    between atoms: C_6  and  C_7 
REMARK    4  A    between atoms: C_9  and  N_14 
REMARK    5  A    between atoms: C_9  and  C_10 
REMARK    6  A    between atoms: C_10  and  C_19 
REMARK    7  A    between atoms: N_12  and  C_13 
REMARK    8  A    between atoms: C_13  and  C_22 
REMARK    9  A    between atoms: C_19  and  C_20 
REMARK   10  A    between atoms: C_20  and  C_21 
REMARK   11  A    between atoms: C_21  and  N_23 
REMARK       I    between atoms: C_22  and  N_23 
ROOT
HETATM    1  H           1     -22.378  -6.954  -6.726  0.00  0.00     0.163 HD
HETATM    2  O           1     -20.890  -4.212  -6.390  0.00  0.00    -0.271 OA
HETATM    3  C           1     -21.621  -5.035  -6.890  0.00  0.00     0.249 C 
HETATM    4  N           1     -21.766  -6.265  -6.307  0.00  0.00    -0.345 N 
ENDROOT
BRANCH   4   5
HETATM    5  C           1     -21.043  -6.582  -5.091  0.00  0.00     0.185 C 
BRANCH   5   6
HETATM    6  C           1     -20.331  -7.902  -5.261  0.00  0.00     0.196 C 
HETATM    7  O           1     -19.344  -7.986  -6.024  0.00  0.00    -0.646 OA
HETATM    8  O           1     -20.727  -8.910  -4.637  0.00  0.00    -0.646 OA
ENDBRANCH   5   6
BRANCH   5   9
HETATM    9  C           1     -22.022  -6.679  -3.929  0.00  0.00     0.036 C 
BRANCH   9  10
HETATM   10  C           1     -21.366  -6.140  -2.665  0.00  0.00     0.004 C 
BRANCH  10  11
HETATM   11  C           1     -22.294  -6.358  -1.477  0.00  0.00     0.027 C 
BRANCH  11  12
HETATM   12  C           1     -22.025  -7.727  -0.867  0.00  0.00     0.229 C 
BRANCH  12  13
HETATM   13  N           1     -22.963  -7.957   0.281  0.00  0.00    -0.079 N 
HETATM   14  H           1     -22.412  -8.156   1.146  0.00  0.00     0.274 HD
HETATM   15  H           1     -23.549  -7.104   0.430  0.00  0.00     0.274 HD
HETATM   16  H           1     -23.582  -8.770   0.066  0.00  0.00     0.274 HD
ENDBRANCH  12  13
ENDBRANCH  11  12
ENDBRANCH  10  11
ENDBRANCH   9  10
ENDBRANCH   5   9
ENDBRANCH   4   5
BRANCH   3  17
HETATM   17  C           1     -22.374  -4.705  -8.155  0.00  0.00     0.275 C 
BRANCH  17  18
HETATM   18  C           1     -21.567  -3.713  -8.982  0.00  0.00     0.046 C 
BRANCH  18  19
HETATM   19  C           1     -21.502  -4.190 -10.427  0.00  0.00    -0.020 C 
HETATM   20  C           1     -21.994  -3.083 -11.351  0.00  0.00     0.009 C 
HETATM   21  C           1     -20.063  -4.542 -10.781  0.00  0.00     0.009 C 
ENDBRANCH  18  19
ENDBRANCH  17  18
BRANCH  17  22
HETATM   22  N           1     -23.700  -4.098  -7.803  0.00  0.00    -0.066 N 
HETATM   23  H           1     -23.555  -3.129  -7.441  0.00  0.00     0.275 HD
HETATM   24  H           1     -24.305  -4.065  -8.654  0.00  0.00     0.275 HD
HETATM   25  H           1     -24.164  -4.678  -7.068  0.00  0.00     0.275 HD
ENDBRANCH  17  22
ENDBRANCH   3  17
TORSDOF 11
ENDMDL
MODEL 4
REMARK VINA RESULT:      -5.9      2.565      3.507
REMARK  11 active torsions:
REMARK  status: ('A' for Active; 'I' for Inactive)
REMARK    1  A    between atoms: C_1  and  C_21 
REMARK    2  A    between atoms: C_6  and  C_13 
REMARK    3  A    between atoms: C_6  and  C_7 
REMARK    4  A    between atoms: C_9  and  N_14 
REMARK    5  A    between atoms: C_9  and  C_10 
REMARK    6  A    between atoms: C_10  and  C_19 
REMARK    7  A    between atoms: N_12  and  C_13 
REMARK    8  A    between atoms: C_13  and  C_22 
REMARK    9  A    between atoms: C_19  and  C_20 
REMARK   10  A    between atoms: C_20  and  C_21 
REMARK   11  A    between atoms: C_21  and  N_23 
REMARK       I    between atoms: C_22  and  N_23 
ROOT
HETATM    1  H           1     -21.486  -4.080  -6.293  0.00  0.00     0.163 HD
HETATM    2  O           1     -21.151  -7.143  -6.886  0.00  0.00    -0.271 OA
HETATM    3  C           1     -21.235  -6.134  -6.227  0.00  0.00     0.249 C 
HETATM    4  N           1     -21.415  -4.926  -6.846  0.00  0.00    -0.345 N 
ENDROOT
BRANCH   4   5
HETATM    5  C           1     -21.505  -4.857  -8.291  0.00  0.00     0.185 C 
BRANCH   5   6
HETATM    6  C           1     -20.140  -4.566  -8.865  0.00  0.00     0.196 C 
HETATM    7  O           1     -19.897  -4.830 -10.063  0.00  0.00    -0.646 OA
HETATM    8  O           1     -19.253  -4.060  -8.144  0.00  0.00    -0.646 OA
ENDBRANCH   5   6
BRANCH   5   9
HETATM    9  C           1     -22.470  -3.748  -8.687  0.00  0.00     0.036 C 
BRANCH   9  10
HETATM   10  C           1     -23.681  -4.352  -9.386  0.00  0.00     0.004 C 
BRANCH  10  11
HETATM   11  C           1     -23.323  -4.682 -10.829  0.00  0.00     0.027 C 
BRANCH  11  12
HETATM   12  C           1     -22.812  -3.428 -11.525  0.00  0.00     0.229 C 
BRANCH  12  13
HETATM   13  N           1     -21.668  -3.786 -12.427  0.00  0.00    -0.079 N 
HETATM   14  H           1     -21.756  -3.261 -13.326  0.00  0.00     0.274 HD
HETATM   15  H           1     -20.766  -3.533 -11.963  0.00  0.00     0.274 HD
HETATM   16  H           1     -21.684  -4.813 -12.618  0.00  0.00     0.274 HD
ENDBRANCH  12  13
ENDBRANCH  11  12
ENDBRANCH  10  11
ENDBRANCH   9  10
ENDBRANCH   5   9
ENDBRANCH   4   5
BRANCH   3  17
HETATM   17  C           1     -21.142  -6.205  -4.723  0.00  0.00     0.275 C 
BRANCH  17  18
HETATM   18  C           1     -20.489  -7.520  -4.316  0.00  0.00     0.046 C 
BRANCH  18  19
HETATM   19  C           1     -21.273  -8.144  -3.170  0.00  0.00    -0.020 C 
HETATM   20  C           1     -21.610  -9.589  -3.511  0.00  0.00     0.009 C 
HETATM   21  C           1     -20.431  -8.107  -1.901  0.00  0.00     0.009 C 
ENDBRANCH  18  19
ENDBRANCH  17  18
BRANCH  17  22
HETATM   22  N           1     -22.519  -6.129  -4.133  0.00  0.00    -0.066 N 
HETATM   23  H           1     -22.644  -5.207  -3.657  0.00  0.00     0.275 HD
HETATM   24  H           1     -23.229  -6.226  -4.894  0.00  0.00     0.275 HD
HETATM   25  H           1     -22.643  -6.899  -3.439  0.00  0.00     0.275 HD
ENDBRANCH  17  22
ENDBRANCH   3  17
TORSDOF 11
ENDMDL
MODEL 5
REMARK VINA RESULT:      -5.8      3.138      4.807
REMARK  11 active torsions:
REMARK  status: ('A' for Active; 'I' for Inactive)
REMARK    1  A    between atoms: C_1  and  C_21 
REMARK    2  A    between atoms: C_6  and  C_13 
REMARK    3  A    between atoms: C_6  and  C_7 
REMARK    4  A    between atoms: C_9  and  N_14 
REMARK    5  A    between atoms: C_9  and  C_10 
REMARK    6  A    between atoms: C_10  and  C_19 
REMARK    7  A    between atoms: N_12  and  C_13 
REMARK    8  A    between atoms: C_13  and  C_22 
REMARK    9  A    between atoms: C_19  and  C_20 
REMARK   10  A    between atoms: C_20  and  C_21 
REMARK   11  A    between atoms: C_21  and  N_23 
REMARK       I    between atoms: C_22  and  N_23 
ROOT
HETATM    1  H           1     -20.994  -4.480  -4.717  0.00  0.00     0.163 HD
HETATM    2  O           1     -21.743  -7.527  -4.719  0.00  0.00    -0.271 OA
HETATM    3  C           1     -21.439  -6.450  -4.264  0.00  0.00     0.249 C 
HETATM    4  N           1     -21.249  -5.382  -5.099  0.00  0.00    -0.345 N 
ENDROOT
BRANCH   4   5
HETATM    5  C           1     -21.410  -5.544  -6.531  0.00  0.00     0.185 C 
BRANCH   5   6
HETATM    6  C           1     -20.052  -5.635  -7.182  0.00  0.00     0.196 C 
HETATM    7  O           1     -19.518  -4.610  -7.659  0.00  0.00    -0.646 OA
HETATM    8  O           1     -19.461  -6.735  -7.244  0.00  0.00    -0.646 OA
ENDBRANCH   5   6
BRANCH   5   9
HETATM    9  C           1     -22.164  -4.347  -7.094  0.00  0.00     0.036 C 
BRANCH   9  10
HETATM   10  C           1     -22.780  -4.719  -8.437  0.00  0.00     0.004 C 
BRANCH  10  11
HETATM   11  C           1     -22.928  -3.469  -9.293  0.00  0.00     0.027 C 
BRANCH  11  12
HETATM   12  C           1     -24.036  -3.680 -10.315  0.00  0.00     0.229 C 
BRANCH  12  13
HETATM   13  N           1     -25.370  -3.594  -9.633  0.00  0.00    -0.079 N 
HETATM   14  H           1     -25.306  -4.037  -8.688  0.00  0.00     0.274 HD
HETATM   15  H           1     -25.645  -2.592  -9.530  0.00  0.00     0.274 HD
HETATM   16  H           1     -26.086  -4.094 -10.206  0.00  0.00     0.274 HD
ENDBRANCH  12  13
ENDBRANCH  11  12
ENDBRANCH  10  11
ENDBRANCH   9  10
ENDBRANCH   5   9
ENDBRANCH   4   5
BRANCH   3  17
HETATM   17  C           1     -21.271  -6.281  -2.773  0.00  0.00     0.275 C 
BRANCH  17  18
HETATM   18  C           1     -20.757  -7.582  -2.170  0.00  0.00     0.046 C 
BRANCH  18  19
HETATM   19  C           1     -21.829  -8.185  -1.272  0.00  0.00    -0.020 C 
HETATM   20  C           1     -22.136  -9.605  -1.729  0.00  0.00     0.009 C 
HETATM   21  C           1     -21.330  -8.213   0.166  0.00  0.00     0.009 C 
ENDBRANCH  18  19
ENDBRANCH  17  18
BRANCH  17  22
HETATM   22  N           1     -22.594  -5.934  -2.158  0.00  0.00    -0.066 N 
HETATM   23  H           1     -22.952  -5.047  -2.579  0.00  0.00     0.275 HD
HETATM   24  H           1     -23.275  -6.705  -2.340  0.00  0.00     0.275 HD
HETATM   25  H           1     -22.476  -5.808  -1.127  0.00  0.00     0.275 HD
ENDBRANCH  17  22
ENDBRANCH   3  17
TORSDOF 11
ENDMDL
MODEL 6
REMARK VINA RESULT:      -5.8     12.237     15.190
REMARK  11 active torsions:
REMARK  status: ('A' for Active; 'I' for Inactive)
REMARK    1  A    between atoms: C_1  and  C_21 
REMARK    2  A    between atoms: C_6  and  C_13 
REMARK    3  A    between atoms: C_6  and  C_7 
REMARK    4  A    between atoms: C_9  and  N_14 
REMARK    5  A    between atoms: C_9  and  C_10 
REMARK    6  A    between atoms: C_10  and  C_19 
REMARK    7  A    between atoms: N_12  and  C_13 
REMARK    8  A    between atoms: C_13  and  C_22 
REMARK    9  A    between atoms: C_19  and  C_20 
REMARK   10  A    between atoms: C_20  and  C_21 
REMARK   11  A    between atoms: C_21  and  N_23 
REMARK       I    between atoms: C_22  and  N_23 
ROOT
HETATM    1  H           1     -34.458  -0.120 -11.587  0.00  0.00     0.163 HD
HETATM    2  O           1     -37.200  -1.028 -12.813  0.00  0.00    -0.271 OA
HETATM    3  C           1     -36.138  -0.455 -12.749  0.00  0.00     0.249 C 
HETATM    4  N           1     -35.348  -0.600 -11.640  0.00  0.00    -0.345 N 
ENDROOT
BRANCH   4   5
HETATM    5  C           1     -35.785  -1.439 -10.542  0.00  0.00     0.185 C 
BRANCH   5   6
HETATM    6  C           1     -36.454  -0.585  -9.493  0.00  0.00     0.196 C 
HETATM    7  O           1     -37.690  -0.406  -9.529  0.00  0.00    -0.646 OA
HETATM    8  O           1     -35.771  -0.058  -8.588  0.00  0.00    -0.646 OA
ENDBRANCH   5   6
BRANCH   5   9
HETATM    9  C           1     -34.581  -2.144  -9.932  0.00  0.00     0.036 C 
BRANCH   9  10
HETATM   10  C           1     -33.442  -2.173 -10.943  0.00  0.00     0.004 C 
BRANCH  10  11
HETATM   11  C           1     -33.187  -3.609 -11.381  0.00  0.00     0.027 C 
BRANCH  11  12
HETATM   12  C           1     -33.870  -3.861 -12.718  0.00  0.00     0.229 C 
BRANCH  12  13
HETATM   13  N           1     -34.624  -5.156 -12.659  0.00  0.00    -0.079 N 
HETATM   14  H           1     -34.934  -5.422 -13.622  0.00  0.00     0.274 HD
HETATM   15  H           1     -34.004  -5.904 -12.275  0.00  0.00     0.274 HD
HETATM   16  H           1     -35.459  -5.045 -12.042  0.00  0.00     0.274 HD
ENDBRANCH  12  13
ENDBRANCH  11  12
ENDBRANCH  10  11
ENDBRANCH   9  10
ENDBRANCH   5   9
ENDBRANCH   4   5
BRANCH   3  17
HETATM   17  C           1     -35.683   0.418 -13.892  0.00  0.00     0.275 C 
BRANCH  17  18
HETATM   18  C           1     -35.446  -0.442 -15.126  0.00  0.00     0.046 C 
BRANCH  18  19
HETATM   19  C           1     -36.315   0.061 -16.271  0.00  0.00    -0.020 C 
HETATM   20  C           1     -37.665  -0.642 -16.234  0.00  0.00     0.009 C 
HETATM   21  C           1     -36.522   1.563 -16.128  0.00  0.00     0.009 C 
ENDBRANCH  18  19
ENDBRANCH  17  18
BRANCH  17  22
HETATM   22  N           1     -34.406   1.110 -13.514  0.00  0.00    -0.066 N 
HETATM   23  H           1     -34.626   1.972 -12.965  0.00  0.00     0.275 HD
HETATM   24  H           1     -33.821   0.468 -12.934  0.00  0.00     0.275 HD
HETATM   25  H           1     -33.883   1.373 -14.380  0.00  0.00     0.275 HD
ENDBRANCH  17  22
ENDBRANCH   3  17
TORSDOF 11
ENDMDL
MODEL 7
REMARK VINA RESULT:      -5.6      9.701     12.030
REMARK  11 active torsions:
REMARK  status: ('A' for Active; 'I' for Inactive)
REMARK    1  A    between atoms: C_1  and  C_21 
REMARK    2  A    between atoms: C_6  and  C_13 
REMARK    3  A    between atoms: C_6  and  C_7 
REMARK    4  A    between atoms: C_9  and  N_14 
REMARK    5  A    between atoms: C_9  and  C_10 
REMARK    6  A    between atoms: C_10  and  C_19 
REMARK    7  A    between atoms: N_12  and  C_13 
REMARK    8  A    between atoms: C_13  and  C_22 
REMARK    9  A    between atoms: C_19  and  C_20 
REMARK   10  A    between atoms: C_20  and  C_21 
REMARK   11  A    between atoms: C_21  and  N_23 
REMARK       I    between atoms: C_22  and  N_23 
ROOT
HETATM    1  H           1     -26.109  -7.035 -16.886  0.00  0.00     0.163 HD
HETATM    2  O           1     -27.272  -6.134 -19.657  0.00  0.00    -0.271 OA
HETATM    3  C           1     -26.448  -6.517 -18.861  0.00  0.00     0.249 C 
HETATM    4  N           1     -26.800  -6.714 -17.553  0.00  0.00    -0.345 N 
ENDROOT
BRANCH   4   5
HETATM    5  C           1     -28.161  -6.463 -17.122  0.00  0.00     0.185 C 
BRANCH   5   6
HETATM    6  C           1     -28.225  -6.498 -15.615  0.00  0.00     0.196 C 
HETATM    7  O           1     -28.653  -5.506 -14.985  0.00  0.00    -0.646 OA
HETATM    8  O           1     -27.850  -7.517 -14.997  0.00  0.00    -0.646 OA
ENDBRANCH   5   6
BRANCH   5   9
HETATM    9  C           1     -29.080  -7.535 -17.694  0.00  0.00     0.036 C 
BRANCH   9  10
HETATM   10  C           1     -30.525  -7.060 -17.618  0.00  0.00     0.004 C 
BRANCH  10  11
HETATM   11  C           1     -30.582  -5.561 -17.880  0.00  0.00     0.027 C 
BRANCH  11  12
HETATM   12  C           1     -31.617  -4.924 -16.964  0.00  0.00     0.229 C 
BRANCH  12  13
HETATM   13  N           1     -32.834  -5.799 -16.897  0.00  0.00    -0.079 N 
HETATM   14  H           1     -33.591  -5.388 -17.489  0.00  0.00     0.274 HD
HETATM   15  H           1     -32.597  -6.754 -17.249  0.00  0.00     0.274 HD
HETATM   16  H           1     -33.161  -5.865 -15.907  0.00  0.00     0.274 HD
ENDBRANCH  12  13
ENDBRANCH  11  12
ENDBRANCH  10  11
ENDBRANCH   9  10
ENDBRANCH   5   9
ENDBRANCH   4   5
BRANCH   3  17
HETATM   17  C           1     -25.031  -6.778 -19.310  0.00  0.00     0.275 C 
BRANCH  17  18
HETATM   18  C           1     -25.041  -7.731 -20.498  0.00  0.00     0.046 C 
BRANCH  18  19
HETATM   19  C           1     -23.775  -7.534 -21.319  0.00  0.00    -0.020 C 
HETATM   20  C           1     -22.772  -8.628 -20.979  0.00  0.00     0.009 C 
HETATM   21  C           1     -24.116  -7.604 -22.802  0.00  0.00     0.009 C 
ENDBRANCH  18  19
ENDBRANCH  17  18
BRANCH  17  22
HETATM   22  N           1     -24.256  -7.394 -18.182  0.00  0.00    -0.066 N 
HETATM   23  H           1     -23.604  -8.117 -18.562  0.00  0.00     0.275 HD
HETATM   24  H           1     -23.707  -6.653 -17.692  0.00  0.00     0.275 HD
HETATM   25  H           1     -24.918  -7.842 -17.509  0.00  0.00     0.275 HD
ENDBRANCH  17  22
ENDBRANCH   3  17
TORSDOF 11
ENDMDL
MODEL 8
REMARK VINA RESULT:      -5.6      4.673      8.390
REMARK  11 active torsions:
REMARK  status: ('A' for Active; 'I' for Inactive)
REMARK    1  A    between atoms: C_1  and  C_21 
REMARK    2  A    between atoms: C_6  and  C_13 
REMARK    3  A    between atoms: C_6  and  C_7 
REMARK    4  A    between atoms: C_9  and  N_14 
REMARK    5  A    between atoms: C_9  and  C_10 
REMARK    6  A    between atoms: C_10  and  C_19 
REMARK    7  A    between atoms: N_12  and  C_13 
REMARK    8  A    between atoms: C_13  and  C_22 
REMARK    9  A    between atoms: C_19  and  C_20 
REMARK   10  A    between atoms: C_20  and  C_21 
REMARK   11  A    between atoms: C_21  and  N_23 
REMARK       I    between atoms: C_22  and  N_23 
ROOT
HETATM    1  H           1     -21.732  -7.637  -4.212  0.00  0.00     0.163 HD
HETATM    2  O           1     -19.606  -7.216  -6.482  0.00  0.00    -0.271 OA
HETATM    3  C           1     -20.604  -7.011  -5.831  0.00  0.00     0.249 C 
HETATM    4  N           1     -20.896  -7.808  -4.757  0.00  0.00    -0.345 N 
ENDROOT
BRANCH   4   5
HETATM    5  C           1     -20.011  -8.900  -4.402  0.00  0.00     0.185 C 
BRANCH   5   6
HETATM    6  C           1     -20.519 -10.180  -5.020  0.00  0.00     0.196 C 
HETATM    7  O           1     -21.485 -10.782  -4.504  0.00  0.00    -0.646 OA
HETATM    8  O           1     -19.973 -10.637  -6.047  0.00  0.00    -0.646 OA
ENDBRANCH   5   6
BRANCH   5   9
HETATM    9  C           1     -19.971  -9.048  -2.887  0.00  0.00     0.036 C 
BRANCH   9  10
HETATM   10  C           1     -20.535  -7.791  -2.238  0.00  0.00     0.004 C 
BRANCH  10  11
HETATM   11  C           1     -21.608  -8.177  -1.229  0.00  0.00     0.027 C 
BRANCH  11  12
HETATM   12  C           1     -22.396  -6.938  -0.825  0.00  0.00     0.229 C 
BRANCH  12  13
HETATM   13  N           1     -22.297  -5.906  -1.910  0.00  0.00    -0.079 N 
HETATM   14  H           1     -21.829  -6.324  -2.746  0.00  0.00     0.274 HD
HETATM   15  H           1     -23.256  -5.584  -2.173  0.00  0.00     0.274 HD
HETATM   16  H           1     -21.739  -5.093  -1.567  0.00  0.00     0.274 HD
ENDBRANCH  12  13
ENDBRANCH  11  12
ENDBRANCH  10  11
ENDBRANCH   9  10
ENDBRANCH   5   9
ENDBRANCH   4   5
BRANCH   3  17
HETATM   17  C           1     -21.525  -5.875  -6.201  0.00  0.00     0.275 C 
BRANCH  17  18
HETATM   18  C           1     -20.798  -4.549  -6.013  0.00  0.00     0.046 C 
BRANCH  18  19
HETATM   19  C           1     -20.819  -3.769  -7.321  0.00  0.00    -0.020 C 
HETATM   20  C           1     -19.606  -4.148  -8.159  0.00  0.00     0.009 C 
HETATM   21  C           1     -22.091  -4.102  -8.090  0.00  0.00     0.009 C 
ENDBRANCH  18  19
ENDBRANCH  17  18
BRANCH  17  22
HETATM   22  N           1     -22.738  -5.908  -5.318  0.00  0.00    -0.066 N 
HETATM   23  H           1     -23.025  -4.931  -5.083  0.00  0.00     0.275 HD
HETATM   24  H           1     -23.519  -6.389  -5.817  0.00  0.00     0.275 HD
HETATM   25  H           1     -22.513  -6.426  -4.438  0.00  0.00     0.275 HD
ENDBRANCH  17  22
ENDBRANCH   3  17
TORSDOF 11
ENDMDL
MODEL 9
REMARK VINA RESULT:      -5.5      5.218      9.302
REMARK  11 active torsions:
REMARK  status: ('A' for Active; 'I' for Inactive)
REMARK    1  A    between atoms: C_1  and  C_21 
REMARK    2  A    between atoms: C_6  and  C_13 
REMARK    3  A    between atoms: C_6  and  C_7 
REMARK    4  A    between atoms: C_9  and  N_14 
REMARK    5  A    between atoms: C_9  and  C_10 
REMARK    6  A    between atoms: C_10  and  C_19 
REMARK    7  A    between atoms: N_12  and  C_13 
REMARK    8  A    between atoms: C_13  and  C_22 
REMARK    9  A    between atoms: C_19  and  C_20 
REMARK   10  A    between atoms: C_20  and  C_21 
REMARK   11  A    between atoms: C_21  and  N_23 
REMARK       I    between atoms: C_22  and  N_23 
ROOT
HETATM    1  H           1     -22.007  -7.519  -3.392  0.00  0.00     0.163 HD
HETATM    2  O           1     -19.764  -8.099  -5.508  0.00  0.00    -0.271 OA
HETATM    3  C           1     -20.715  -7.544  -5.008  0.00  0.00     0.249 C 
HETATM    4  N           1     -21.211  -7.983  -3.811  0.00  0.00    -0.345 N 
ENDROOT
BRANCH   4   5
HETATM    5  C           1     -20.597  -9.114  -3.141  0.00  0.00     0.185 C 
BRANCH   5   6
HETATM    6  C           1     -21.576 -10.261  -3.094  0.00  0.00     0.196 C 
HETATM    7  O           1     -22.356 -10.456  -4.051  0.00  0.00    -0.646 OA
HETATM    8  O           1     -21.605 -11.017  -2.098  0.00  0.00    -0.646 OA
ENDBRANCH   5   6
BRANCH   5   9
HETATM    9  C           1     -20.212  -8.715  -1.723  0.00  0.00     0.036 C 
BRANCH   9  10
HETATM   10  C           1     -21.231  -7.723  -1.179  0.00  0.00     0.004 C 
BRANCH  10  11
HETATM   11  C           1     -21.609  -8.111   0.244  0.00  0.00     0.027 C 
BRANCH  11  12
HETATM   12  C           1     -23.114  -8.327   0.329  0.00  0.00     0.229 C 
BRANCH  12  13
HETATM   13  N           1     -23.438  -9.747  -0.033  0.00  0.00    -0.079 N 
HETATM   14  H           1     -22.576 -10.332   0.050  0.00  0.00     0.274 HD
HETATM   15  H           1     -24.171 -10.113   0.615  0.00  0.00     0.274 HD
HETATM   16  H           1     -23.792  -9.783  -1.015  0.00  0.00     0.274 HD
ENDBRANCH  12  13
ENDBRANCH  11  12
ENDBRANCH  10  11
ENDBRANCH   9  10
ENDBRANCH   5   9
ENDBRANCH   4   5
BRANCH   3  17
HETATM   17  C           1     -21.354  -6.368  -5.705  0.00  0.00     0.275 C 
BRANCH  17  18
HETATM   18  C           1     -20.503  -5.124  -5.485  0.00  0.00     0.046 C 
BRANCH  18  19
HETATM   19  C           1     -20.229  -4.451  -6.823  0.00  0.00    -0.020 C 
HETATM   20  C           1     -20.080  -5.513  -7.905  0.00  0.00     0.009 C 
HETATM   21  C           1     -21.390  -3.530  -7.175  0.00  0.00     0.009 C 
ENDBRANCH  18  19
ENDBRANCH  17  18
BRANCH  17  22
HETATM   22  N           1     -22.726  -6.140  -5.142  0.00  0.00    -0.066 N 
HETATM   23  H           1     -22.822  -6.657  -4.239  0.00  0.00     0.275 HD
HETATM   24  H           1     -22.868  -5.119  -4.976  0.00  0.00     0.275 HD
HETATM   25  H           1     -23.441  -6.487  -5.820  0.00  0.00     0.275 HD
ENDBRANCH  17  22
ENDBRANCH   3  17
TORSDOF 11
ENDMDL
