MODEL 1
REMARK VINA RESULT:      -6.7      0.000      0.000
REMARK  10 active torsions:
REMARK  status: ('A' for Active; 'I' for Inactive)
REMARK    1  A    between atoms: C_5  and  C_6 
REMARK    2  A    between atoms: C_5  and  C_24 
REMARK    3  A    between atoms: C_6  and  C_7 
REMARK    4  A    between atoms: C_7  and  N_8 
REMARK    5  A    between atoms: C_9  and  C_26 
REMARK    6  A    between atoms: C_9  and  C_17 
REMARK    7  A    between atoms: N_14  and  C_26 
REMARK    8  A    between atoms: C_19  and  C_24 
REMARK    9  A    between atoms: C_24  and  N_28 
REMARK       I    between atoms: C_25  and  N_28 
REMARK   10  A    between atoms: C_25  and  C_26 
ROOT
HETATM    1  O           1     -33.738  -2.286 -10.994  0.00  0.00    -0.271 OA
HETATM    2  H           1     -35.289  -2.063 -13.713  0.00  0.00     0.163 HD
HETATM    3  C           1     -34.228  -2.652 -12.036  0.00  0.00     0.249 C 
HETATM    4  N           1     -34.878  -1.756 -12.841  0.00  0.00    -0.345 N 
ENDROOT
BRANCH   3   5
HETATM    5  C           1     -34.125  -4.100 -12.450  0.00  0.00     0.280 C 
BRANCH   5   6
HETATM    6  C           1     -33.117  -4.813 -11.558  0.00  0.00     0.101 C 
BRANCH   6   7
HETATM    7  C           1     -33.790  -5.948 -10.852  0.00  0.00     0.028 A 
HETATM    8  N           1     -33.312  -7.234 -10.812  0.00  0.00    -0.355 N 
HETATM    9  C           1     -34.188  -7.907 -10.102  0.00  0.00     0.180 A 
ATOM     10  HN          1     -32.459  -7.591 -11.243  1.00  0.00     0.166 HD
HETATM   11  N           1     -35.212  -7.106  -9.682  0.00  0.00    -0.360 N 
HETATM   12  C           1     -34.970  -5.847 -10.156  0.00  0.00     0.114 A 
HETATM   13  H           1     -36.034  -7.405  -9.101  0.00  0.00     0.166 HD
ENDBRANCH   6   7
ENDBRANCH   5   6
BRANCH   5  14
HETATM   14  N           1     -33.672  -4.180 -13.878  0.00  0.00    -0.066 N 
HETATM   15  H           1     -32.687  -4.525 -13.912  0.00  0.00     0.275 HD
HETATM   16  H           1     -34.290  -4.839 -14.402  0.00  0.00     0.275 HD
HETATM   17  H           1     -33.724  -3.231 -14.313  0.00  0.00     0.275 HD
ENDBRANCH   5  14
ENDBRANCH   3   5
BRANCH   4  18
HETATM   18  C           1     -34.977  -0.365 -12.442  0.00  0.00     0.185 C 
BRANCH  18  19
HETATM   19  C           1     -34.986   0.519 -13.682  0.00  0.00     0.038 C 
BRANCH  19  20
HETATM   20  C           1     -35.403  -0.306 -14.893  0.00  0.00     0.030 C 
BRANCH  20  21
HETATM   21  C           1     -36.476   0.442 -15.673  0.00  0.00     0.230 C 
BRANCH  21  22
HETATM   22  N           1     -37.729   0.519 -14.852  0.00  0.00    -0.079 N 
HETATM   23  H           1     -38.553   0.637 -15.484  0.00  0.00     0.274 HD
HETATM   24  H           1     -37.837  -0.361 -14.300  0.00  0.00     0.274 HD
HETATM   25  H           1     -37.670   1.334 -14.201  0.00  0.00     0.274 HD
ENDBRANCH  21  22
ENDBRANCH  20  21
ENDBRANCH  19  20
ENDBRANCH  18  19
BRANCH  18  26
HETATM   26  C           1     -36.255  -0.155 -11.667  0.00  0.00     0.196 C 
HETATM   27  O           1     -36.239   0.498 -10.601  0.00  0.00    -0.646 OA
HETATM   28  O           1     -37.330  -0.636 -12.089  0.00  0.00    -0.646 OA
ENDBRANCH  18  26
ENDBRANCH   4  18
TORSDOF 10
ENDMDL
MODEL 2
REMARK VINA RESULT:      -6.5      1.718      6.807
REMARK  10 active torsions:
REMARK  status: ('A' for Active; 'I' for Inactive)
REMARK    1  A    between atoms: C_5  and  C_6 
REMARK    2  A    between atoms: C_5  and  C_24 
REMARK    3  A    between atoms: C_6  and  C_7 
REMARK    4  A    between atoms: C_7  and  N_8 
REMARK    5  A    between atoms: C_9  and  C_26 
REMARK    6  A    between atoms: C_9  and  C_17 
REMARK    7  A    between atoms: N_14  and  C_26 
REMARK    8  A    between atoms: C_19  and  C_24 
REMARK    9  A    between atoms: C_24  and  N_28 
REMARK       I    between atoms: C_25  and  N_28 
REMARK   10  A    between atoms: C_25  and  C_26 
ROOT
HETATM    1  O           1     -33.898  -1.243 -11.160  0.00  0.00    -0.271 OA
HETATM    2  H           1     -36.116  -3.204 -12.200  0.00  0.00     0.163 HD
HETATM    3  C           1     -34.951  -1.586 -11.643  0.00  0.00     0.249 C 
HETATM    4  N           1     -35.234  -2.916 -11.795  0.00  0.00    -0.345 N 
ENDROOT
BRANCH   3   5
HETATM    5  C           1     -35.955  -0.547 -12.077  0.00  0.00     0.280 C 
BRANCH   5   6
HETATM    6  C           1     -35.323   0.365 -13.121  0.00  0.00     0.101 C 
BRANCH   6   7
HETATM    7  C           1     -35.748  -0.070 -14.488  0.00  0.00     0.028 A 
HETATM    8  N           1     -35.005  -0.871 -15.317  0.00  0.00    -0.355 N 
HETATM    9  C           1     -35.727  -1.010 -16.405  0.00  0.00     0.180 A 
ATOM     10  HN          1     -34.086  -1.273 -15.129  1.00  0.00     0.166 HD
HETATM   11  N           1     -36.908  -0.330 -16.310  0.00  0.00    -0.360 N 
HETATM   12  C           1     -36.936   0.278 -15.086  0.00  0.00     0.114 A 
HETATM   13  H           1     -37.657  -0.284 -17.044  0.00  0.00     0.166 HD
ENDBRANCH   6   7
ENDBRANCH   5   6
BRANCH   5  14
HETATM   14  N           1     -36.375   0.269 -10.890  0.00  0.00    -0.066 N 
HETATM   15  H           1     -36.273   1.285 -11.112  0.00  0.00     0.275 HD
HETATM   16  H           1     -37.373   0.061 -10.662  0.00  0.00     0.275 HD
HETATM   17  H           1     -35.772   0.029 -10.072  0.00  0.00     0.275 HD
ENDBRANCH   5  14
ENDBRANCH   3   5
BRANCH   4  18
HETATM   18  C           1     -34.269  -3.915 -11.378  0.00  0.00     0.185 C 
BRANCH  18  19
HETATM   19  C           1     -34.985  -5.231 -11.104  0.00  0.00     0.038 C 
BRANCH  19  20
HETATM   20  C           1     -34.002  -6.229 -10.506  0.00  0.00     0.030 C 
BRANCH  20  21
HETATM   21  C           1     -34.722  -7.540 -10.215  0.00  0.00     0.230 C 
BRANCH  21  22
HETATM   22  N           1     -33.742  -8.673 -10.277  0.00  0.00    -0.079 N 
HETATM   23  H           1     -32.910  -8.384 -10.841  0.00  0.00     0.274 HD
HETATM   24  H           1     -33.437  -8.922  -9.310  0.00  0.00     0.274 HD
HETATM   25  H           1     -34.195  -9.502 -10.725  0.00  0.00     0.274 HD
ENDBRANCH  21  22
ENDBRANCH  20  21
ENDBRANCH  19  20
ENDBRANCH  18  19
BRANCH  18  26
HETATM   26  C           1     -33.250  -4.116 -12.473  0.00  0.00     0.196 C 
HETATM   27  O           1     -32.069  -4.407 -12.182  0.00  0.00    -0.646 OA
HETATM   28  O           1     -33.585  -3.991 -13.671  0.00  0.00    -0.646 OA
ENDBRANCH  18  26
ENDBRANCH   4  18
TORSDOF 10
ENDMDL
MODEL 3
REMARK VINA RESULT:      -6.3     12.197     13.942
REMARK  10 active torsions:
REMARK  status: ('A' for Active; 'I' for Inactive)
REMARK    1  A    between atoms: C_5  and  C_6 
REMARK    2  A    between atoms: C_5  and  C_24 
REMARK    3  A    between atoms: C_6  and  C_7 
REMARK    4  A    between atoms: C_7  and  N_8 
REMARK    5  A    between atoms: C_9  and  C_26 
REMARK    6  A    between atoms: C_9  and  C_17 
REMARK    7  A    between atoms: N_14  and  C_26 
REMARK    8  A    between atoms: C_19  and  C_24 
REMARK    9  A    between atoms: C_24  and  N_28 
REMARK       I    between atoms: C_25  and  N_28 
REMARK   10  A    between atoms: C_25  and  C_26 
ROOT
HETATM    1  O           1     -21.560  -3.383  -7.220  0.00  0.00    -0.271 OA
HETATM    2  H           1     -22.158  -5.736  -9.209  0.00  0.00     0.163 HD
HETATM    3  C           1     -21.597  -4.518  -7.631  0.00  0.00     0.249 C 
HETATM    4  N           1     -22.126  -4.784  -8.865  0.00  0.00    -0.345 N 
ENDROOT
BRANCH   3   5
HETATM    5  C           1     -21.059  -5.645  -6.783  0.00  0.00     0.280 C 
BRANCH   5   6
HETATM    6  C           1     -20.691  -5.113  -5.405  0.00  0.00     0.101 C 
BRANCH   6   7
HETATM    7  C           1     -21.110  -6.098  -4.360  0.00  0.00     0.028 A 
HETATM    8  N           1     -21.393  -5.778  -3.056  0.00  0.00    -0.355 N 
HETATM    9  C           1     -21.715  -6.915  -2.483  0.00  0.00     0.180 A 
ATOM     10  HN          1     -21.360  -4.855  -2.624  1.00  0.00     0.166 HD
HETATM   11  N           1     -21.652  -7.955  -3.365  0.00  0.00    -0.360 N 
HETATM   12  C           1     -21.264  -7.447  -4.573  0.00  0.00     0.114 A 
HETATM   13  H           1     -21.862  -8.962  -3.152  0.00  0.00     0.166 HD
ENDBRANCH   6   7
ENDBRANCH   5   6
BRANCH   5  14
HETATM   14  N           1     -19.839  -6.224  -7.438  0.00  0.00    -0.066 N 
HETATM   15  H           1     -20.060  -6.470  -8.429  0.00  0.00     0.275 HD
HETATM   16  H           1     -19.067  -5.521  -7.417  0.00  0.00     0.275 HD
HETATM   17  H           1     -19.543  -7.084  -6.923  0.00  0.00     0.275 HD
ENDBRANCH   5  14
ENDBRANCH   3   5
BRANCH   4  18
HETATM   18  C           1     -22.644  -3.702  -9.680  0.00  0.00     0.185 C 
BRANCH  18  19
HETATM   19  C           1     -22.038  -3.781 -11.075  0.00  0.00     0.038 C 
BRANCH  19  20
HETATM   20  C           1     -22.504  -2.587 -11.899  0.00  0.00     0.030 C 
BRANCH  20  21
HETATM   21  C           1     -22.835  -3.045 -13.314  0.00  0.00     0.230 C 
BRANCH  21  22
HETATM   22  N           1     -23.904  -4.095 -13.262  0.00  0.00    -0.079 N 
HETATM   23  H           1     -24.342  -4.194 -14.207  0.00  0.00     0.274 HD
HETATM   24  H           1     -23.481  -5.007 -12.978  0.00  0.00     0.274 HD
HETATM   25  H           1     -24.633  -3.817 -12.568  0.00  0.00     0.274 HD
ENDBRANCH  21  22
ENDBRANCH  20  21
ENDBRANCH  19  20
ENDBRANCH  18  19
BRANCH  18  26
HETATM   26  C           1     -24.145  -3.819  -9.777  0.00  0.00     0.196 C 
HETATM   27  O           1     -24.664  -4.881 -10.183  0.00  0.00    -0.646 OA
HETATM   28  O           1     -24.871  -2.854  -9.451  0.00  0.00    -0.646 OA
ENDBRANCH  18  26
ENDBRANCH   4  18
TORSDOF 10
ENDMDL
MODEL 4
REMARK VINA RESULT:      -6.0      2.906      6.541
REMARK  10 active torsions:
REMARK  status: ('A' for Active; 'I' for Inactive)
REMARK    1  A    between atoms: C_5  and  C_6 
REMARK    2  A    between atoms: C_5  and  C_24 
REMARK    3  A    between atoms: C_6  and  C_7 
REMARK    4  A    between atoms: C_7  and  N_8 
REMARK    5  A    between atoms: C_9  and  C_26 
REMARK    6  A    between atoms: C_9  and  C_17 
REMARK    7  A    between atoms: N_14  and  C_26 
REMARK    8  A    between atoms: C_19  and  C_24 
REMARK    9  A    between atoms: C_24  and  N_28 
REMARK       I    between atoms: C_25  and  N_28 
REMARK   10  A    between atoms: C_25  and  C_26 
ROOT
HETATM    1  O           1     -34.240  -0.714 -12.024  0.00  0.00    -0.271 OA
HETATM    2  H           1     -36.375  -2.873 -11.228  0.00  0.00     0.163 HD
HETATM    3  C           1     -35.318  -1.158 -11.706  0.00  0.00     0.249 C 
HETATM    4  N           1     -35.472  -2.501 -11.494  0.00  0.00    -0.345 N 
ENDROOT
BRANCH   3   5
HETATM    5  C           1     -36.497  -0.229 -11.543  0.00  0.00     0.280 C 
BRANCH   5   6
HETATM    6  C           1     -37.389  -0.734 -10.417  0.00  0.00     0.101 C 
BRANCH   6   7
HETATM    7  C           1     -37.269   0.180  -9.237  0.00  0.00     0.028 A 
HETATM    8  N           1     -36.873  -0.212  -7.985  0.00  0.00    -0.355 N 
HETATM    9  C           1     -36.903   0.878  -7.254  0.00  0.00     0.180 A 
ATOM     10  HN          1     -36.610  -1.151  -7.684  1.00  0.00     0.166 HD
HETATM   11  N           1     -37.303   1.959  -7.986  0.00  0.00    -0.360 N 
HETATM   12  C           1     -37.543   1.527  -9.261  0.00  0.00     0.114 A 
HETATM   13  H           1     -37.409   2.942  -7.633  0.00  0.00     0.166 HD
ENDBRANCH   6   7
ENDBRANCH   5   6
BRANCH   5  14
HETATM   14  N           1     -37.282  -0.190 -12.822  0.00  0.00    -0.066 N 
HETATM   15  H           1     -36.663  -0.462 -13.619  0.00  0.00     0.275 HD
HETATM   16  H           1     -38.082  -0.858 -12.759  0.00  0.00     0.275 HD
HETATM   17  H           1     -37.645   0.778 -12.977  0.00  0.00     0.275 HD
ENDBRANCH   5  14
ENDBRANCH   3   5
BRANCH   4  18
HETATM   18  C           1     -34.339  -3.393 -11.651  0.00  0.00     0.185 C 
BRANCH  18  19
HETATM   19  C           1     -34.326  -4.404 -10.512  0.00  0.00     0.038 C 
BRANCH  19  20
HETATM   20  C           1     -33.540  -5.638 -10.937  0.00  0.00     0.030 C 
BRANCH  20  21
HETATM   21  C           1     -34.129  -6.871 -10.264  0.00  0.00     0.230 C 
BRANCH  21  22
HETATM   22  N           1     -34.964  -7.629 -11.252  0.00  0.00    -0.079 N 
HETATM   23  H           1     -35.860  -7.922 -10.799  0.00  0.00     0.274 HD
HETATM   24  H           1     -35.174  -7.017 -12.073  0.00  0.00     0.274 HD
HETATM   25  H           1     -34.443  -8.476 -11.573  0.00  0.00     0.274 HD
ENDBRANCH  21  22
ENDBRANCH  20  21
ENDBRANCH  19  20
ENDBRANCH  18  19
BRANCH  18  26
HETATM   26  C           1     -34.453  -4.122 -12.968  0.00  0.00     0.196 C 
HETATM   27  O           1     -33.793  -3.734 -13.956  0.00  0.00    -0.646 OA
HETATM   28  O           1     -35.208  -5.113 -13.071  0.00  0.00    -0.646 OA
ENDBRANCH  18  26
ENDBRANCH   4  18
TORSDOF 10
ENDMDL
MODEL 5
REMARK VINA RESULT:      -5.9     13.343     16.248
REMARK  10 active torsions:
REMARK  status: ('A' for Active; 'I' for Inactive)
REMARK    1  A    between atoms: C_5  and  C_6 
REMARK    2  A    between atoms: C_5  and  C_24 
REMARK    3  A    between atoms: C_6  and  C_7 
REMARK    4  A    between atoms: C_7  and  N_8 
REMARK    5  A    between atoms: C_9  and  C_26 
REMARK    6  A    between atoms: C_9  and  C_17 
REMARK    7  A    between atoms: N_14  and  C_26 
REMARK    8  A    between atoms: C_19  and  C_24 
REMARK    9  A    between atoms: C_24  and  N_28 
REMARK       I    between atoms: C_25  and  N_28 
REMARK   10  A    between atoms: C_25  and  C_26 
ROOT
HETATM    1  O           1     -19.638  -4.511  -5.660  0.00  0.00    -0.271 OA
HETATM    2  H           1     -22.297  -6.076  -6.229  0.00  0.00     0.163 HD
HETATM    3  C           1     -20.648  -4.825  -6.243  0.00  0.00     0.249 C 
HETATM    4  N           1     -21.451  -5.813  -5.741  0.00  0.00    -0.345 N 
ENDROOT
BRANCH   3   5
HETATM    5  C           1     -21.026  -4.127  -7.527  0.00  0.00     0.280 C 
BRANCH   5   6
HETATM    6  C           1     -21.833  -5.075  -8.403  0.00  0.00     0.101 C 
BRANCH   6   7
HETATM    7  C           1     -22.892  -4.306  -9.128  0.00  0.00     0.028 A 
HETATM    8  N           1     -24.070  -3.884  -8.568  0.00  0.00    -0.355 N 
HETATM    9  C           1     -24.706  -3.256  -9.530  0.00  0.00     0.180 A 
ATOM     10  HN          1     -24.385  -4.026  -7.609  1.00  0.00     0.166 HD
HETATM   11  N           1     -23.985  -3.257 -10.690  0.00  0.00    -0.360 N 
HETATM   12  C           1     -22.818  -3.928 -10.448  0.00  0.00     0.114 A 
HETATM   13  H           1     -24.274  -2.823 -11.600  0.00  0.00     0.166 HD
ENDBRANCH   6   7
ENDBRANCH   5   6
BRANCH   5  14
HETATM   14  N           1     -19.781  -3.712  -8.254  0.00  0.00    -0.066 N 
HETATM   15  H           1     -19.919  -2.763  -8.669  0.00  0.00     0.275 HD
HETATM   16  H           1     -18.979  -3.686  -7.585  0.00  0.00     0.275 HD
HETATM   17  H           1     -19.578  -4.399  -9.016  0.00  0.00     0.275 HD
ENDBRANCH   5  14
ENDBRANCH   3   5
BRANCH   4  18
HETATM   18  C           1     -21.088  -6.484  -4.508  0.00  0.00     0.185 C 
BRANCH  18  19
HETATM   19  C           1     -22.302  -6.559  -3.592  0.00  0.00     0.038 C 
BRANCH  19  20
HETATM   20  C           1     -21.903  -6.144  -2.182  0.00  0.00     0.030 C 
BRANCH  20  21
HETATM   21  C           1     -21.999  -7.346  -1.252  0.00  0.00     0.230 C 
BRANCH  21  22
HETATM   22  N           1     -20.664  -8.024  -1.171  0.00  0.00    -0.079 N 
HETATM   23  H           1     -20.018  -7.608  -1.881  0.00  0.00     0.274 HD
HETATM   24  H           1     -20.264  -7.891  -0.216  0.00  0.00     0.274 HD
HETATM   25  H           1     -20.779  -9.045  -1.362  0.00  0.00     0.274 HD
ENDBRANCH  21  22
ENDBRANCH  20  21
ENDBRANCH  19  20
ENDBRANCH  18  19
BRANCH  18  26
HETATM   26  C           1     -20.606  -7.880  -4.818  0.00  0.00     0.196 C 
HETATM   27  O           1     -19.757  -8.427  -4.082  0.00  0.00    -0.646 OA
HETATM   28  O           1     -21.057  -8.490  -5.813  0.00  0.00    -0.646 OA
ENDBRANCH  18  26
ENDBRANCH   4  18
TORSDOF 10
ENDMDL
MODEL 6
REMARK VINA RESULT:      -5.9     12.300     15.302
REMARK  10 active torsions:
REMARK  status: ('A' for Active; 'I' for Inactive)
REMARK    1  A    between atoms: C_5  and  C_6 
REMARK    2  A    between atoms: C_5  and  C_24 
REMARK    3  A    between atoms: C_6  and  C_7 
REMARK    4  A    between atoms: C_7  and  N_8 
REMARK    5  A    between atoms: C_9  and  C_26 
REMARK    6  A    between atoms: C_9  and  C_17 
REMARK    7  A    between atoms: N_14  and  C_26 
REMARK    8  A    between atoms: C_19  and  C_24 
REMARK    9  A    between atoms: C_24  and  N_28 
REMARK       I    between atoms: C_25  and  N_28 
REMARK   10  A    between atoms: C_25  and  C_26 
ROOT
HETATM    1  O           1     -21.778  -3.280  -7.326  0.00  0.00    -0.271 OA
HETATM    2  H           1     -22.766  -6.255  -7.467  0.00  0.00     0.163 HD
HETATM    3  C           1     -22.343  -4.251  -7.770  0.00  0.00     0.249 C 
HETATM    4  N           1     -22.294  -5.441  -7.095  0.00  0.00    -0.345 N 
ENDROOT
BRANCH   3   5
HETATM    5  C           1     -23.103  -4.153  -9.070  0.00  0.00     0.280 C 
BRANCH   5   6
HETATM    6  C           1     -22.215  -3.516 -10.131  0.00  0.00     0.101 C 
BRANCH   6   7
HETATM    7  C           1     -22.942  -3.487 -11.439  0.00  0.00     0.028 A 
HETATM    8  N           1     -23.161  -2.356 -12.183  0.00  0.00    -0.355 N 
HETATM    9  C           1     -23.824  -2.761 -13.242  0.00  0.00     0.180 A 
ATOM     10  HN          1     -22.872  -1.404 -11.962  1.00  0.00     0.166 HD
HETATM   11  N           1     -24.041  -4.109 -13.210  0.00  0.00    -0.360 N 
HETATM   12  C           1     -23.481  -4.589 -12.059  0.00  0.00     0.114 A 
HETATM   13  H           1     -24.546  -4.673 -13.937  0.00  0.00     0.166 HD
ENDBRANCH   6   7
ENDBRANCH   5   6
BRANCH   5  14
HETATM   14  N           1     -24.326  -3.309  -8.870  0.00  0.00    -0.066 N 
HETATM   15  H           1     -24.109  -2.317  -9.116  0.00  0.00     0.275 HD
HETATM   16  H           1     -25.095  -3.659  -9.486  0.00  0.00     0.275 HD
HETATM   17  H           1     -24.627  -3.362  -7.871  0.00  0.00     0.275 HD
ENDBRANCH   5  14
ENDBRANCH   3   5
BRANCH   4  18
HETATM   18  C           1     -21.563  -5.535  -5.846  0.00  0.00     0.185 C 
BRANCH  18  19
HETATM   19  C           1     -22.223  -6.573  -4.948  0.00  0.00     0.038 C 
BRANCH  19  20
HETATM   20  C           1     -21.715  -6.407  -3.521  0.00  0.00     0.030 C 
BRANCH  20  21
HETATM   21  C           1     -21.325  -7.767  -2.958  0.00  0.00     0.230 C 
BRANCH  21  22
HETATM   22  N           1     -21.303  -8.779  -4.065  0.00  0.00    -0.079 N 
HETATM   23  H           1     -21.405  -9.739  -3.663  0.00  0.00     0.274 HD
HETATM   24  H           1     -22.093  -8.592  -4.723  0.00  0.00     0.274 HD
HETATM   25  H           1     -20.397  -8.712  -4.581  0.00  0.00     0.274 HD
ENDBRANCH  21  22
ENDBRANCH  20  21
ENDBRANCH  19  20
ENDBRANCH  18  19
BRANCH  18  26
HETATM   26  C           1     -20.138  -5.949  -6.128  0.00  0.00     0.196 C 
HETATM   27  O           1     -19.856  -7.157  -6.274  0.00  0.00    -0.646 OA
HETATM   28  O           1     -19.241  -5.082  -6.214  0.00  0.00    -0.646 OA
ENDBRANCH  18  26
ENDBRANCH   4  18
TORSDOF 10
ENDMDL
MODEL 7
REMARK VINA RESULT:      -5.7     13.415     16.427
REMARK  10 active torsions:
REMARK  status: ('A' for Active; 'I' for Inactive)
REMARK    1  A    between atoms: C_5  and  C_6 
REMARK    2  A    between atoms: C_5  and  C_24 
REMARK    3  A    between atoms: C_6  and  C_7 
REMARK    4  A    between atoms: C_7  and  N_8 
REMARK    5  A    between atoms: C_9  and  C_26 
REMARK    6  A    between atoms: C_9  and  C_17 
REMARK    7  A    between atoms: N_14  and  C_26 
REMARK    8  A    between atoms: C_19  and  C_24 
REMARK    9  A    between atoms: C_24  and  N_28 
REMARK       I    between atoms: C_25  and  N_28 
REMARK   10  A    between atoms: C_25  and  C_26 
ROOT
HETATM    1  O           1     -23.186  -5.664  -5.769  0.00  0.00    -0.271 OA
HETATM    2  H           1     -20.164  -6.338  -5.258  0.00  0.00     0.163 HD
HETATM    3  C           1     -21.986  -5.588  -5.892  0.00  0.00     0.249 C 
HETATM    4  N           1     -21.168  -6.402  -5.155  0.00  0.00    -0.345 N 
ENDROOT
BRANCH   3   5
HETATM    5  C           1     -21.389  -4.595  -6.859  0.00  0.00     0.280 C 
BRANCH   5   6
HETATM    6  C           1     -21.529  -5.123  -8.280  0.00  0.00     0.101 C 
BRANCH   6   7
HETATM    7  C           1     -22.612  -4.372  -8.988  0.00  0.00     0.028 A 
HETATM    8  N           1     -23.798  -3.989  -8.415  0.00  0.00    -0.355 N 
HETATM    9  C           1     -24.457  -3.364  -9.364  0.00  0.00     0.180 A 
ATOM     10  HN          1     -24.104  -4.155  -7.456  1.00  0.00     0.166 HD
HETATM   11  N           1     -23.742  -3.328 -10.527  0.00  0.00    -0.360 N 
HETATM   12  C           1     -22.557  -3.971 -10.302  0.00  0.00     0.114 A 
HETATM   13  H           1     -24.048  -2.887 -11.429  0.00  0.00     0.166 HD
ENDBRANCH   6   7
ENDBRANCH   5   6
BRANCH   5  14
HETATM   14  N           1     -19.936  -4.400  -6.539  0.00  0.00    -0.066 N 
HETATM   15  H           1     -19.657  -5.052  -5.773  0.00  0.00     0.275 HD
HETATM   16  H           1     -19.363  -4.598  -7.391  0.00  0.00     0.275 HD
HETATM   17  H           1     -19.776  -3.414  -6.232  0.00  0.00     0.275 HD
ENDBRANCH   5  14
ENDBRANCH   3   5
BRANCH   4  18
HETATM   18  C           1     -21.743  -7.355  -4.226  0.00  0.00     0.185 C 
BRANCH  18  19
HETATM   19  C           1     -21.004  -8.682  -4.337  0.00  0.00     0.038 C 
BRANCH  19  20
HETATM   20  C           1     -19.672  -8.465  -5.043  0.00  0.00     0.030 C 
BRANCH  20  21
HETATM   21  C           1     -18.628  -9.409  -4.461  0.00  0.00     0.230 C 
BRANCH  21  22
HETATM   22  N           1     -18.531  -9.194  -2.980  0.00  0.00    -0.079 N 
HETATM   23  H           1     -17.684  -8.618  -2.766  0.00  0.00     0.274 HD
HETATM   24  H           1     -19.384  -8.694  -2.644  0.00  0.00     0.274 HD
HETATM   25  H           1     -18.455 -10.117  -2.497  0.00  0.00     0.274 HD
ENDBRANCH  21  22
ENDBRANCH  20  21
ENDBRANCH  19  20
ENDBRANCH  18  19
BRANCH  18  26
HETATM   26  C           1     -21.613  -6.825  -2.818  0.00  0.00     0.196 C 
HETATM   27  O           1     -22.357  -5.900  -2.428  0.00  0.00    -0.646 OA
HETATM   28  O           1     -20.761  -7.311  -2.043  0.00  0.00    -0.646 OA
ENDBRANCH  18  26
ENDBRANCH   4  18
TORSDOF 10
ENDMDL
MODEL 8
REMARK VINA RESULT:      -5.5     13.059     14.990
REMARK  10 active torsions:
REMARK  status: ('A' for Active; 'I' for Inactive)
REMARK    1  A    between atoms: C_5  and  C_6 
REMARK    2  A    between atoms: C_5  and  C_24 
REMARK    3  A    between atoms: C_6  and  C_7 
REMARK    4  A    between atoms: C_7  and  N_8 
REMARK    5  A    between atoms: C_9  and  C_26 
REMARK    6  A    between atoms: C_9  and  C_17 
REMARK    7  A    between atoms: N_14  and  C_26 
REMARK    8  A    between atoms: C_19  and  C_24 
REMARK    9  A    between atoms: C_24  and  N_28 
REMARK       I    between atoms: C_25  and  N_28 
REMARK   10  A    between atoms: C_25  and  C_26 
ROOT
HETATM    1  O           1     -21.000  -6.713  -7.250  0.00  0.00    -0.271 OA
HETATM    2  H           1     -22.437  -3.926  -7.128  0.00  0.00     0.163 HD
HETATM    3  C           1     -21.568  -5.768  -6.756  0.00  0.00     0.249 C 
HETATM    4  N           1     -21.962  -4.718  -7.541  0.00  0.00    -0.345 N 
ENDROOT
BRANCH   3   5
HETATM    5  C           1     -21.843  -5.744  -5.273  0.00  0.00     0.280 C 
BRANCH   5   6
HETATM    6  C           1     -20.936  -6.747  -4.572  0.00  0.00     0.101 C 
BRANCH   6   7
HETATM    7  C           1     -21.415  -6.959  -3.170  0.00  0.00     0.028 A 
HETATM    8  N           1     -21.893  -5.967  -2.351  0.00  0.00    -0.355 N 
HETATM    9  C           1     -22.201  -6.567  -1.224  0.00  0.00     0.180 A 
ATOM     10  HN          1     -21.989  -4.976  -2.570  1.00  0.00     0.166 HD
HETATM   11  N           1     -21.942  -7.906  -1.283  0.00  0.00    -0.360 N 
HETATM   12  C           1     -21.436  -8.173  -2.525  0.00  0.00     0.114 A 
HETATM   13  H           1     -22.100  -8.603  -0.515  0.00  0.00     0.166 HD
ENDBRANCH   6   7
ENDBRANCH   5   6
BRANCH   5  14
HETATM   14  N           1     -23.277  -6.109  -5.025  0.00  0.00    -0.066 N 
HETATM   15  H           1     -23.898  -5.469  -5.569  0.00  0.00     0.275 HD
HETATM   16  H           1     -23.442  -7.095  -5.328  0.00  0.00     0.275 HD
HETATM   17  H           1     -23.489  -6.016  -4.006  0.00  0.00     0.275 HD
ENDBRANCH   5  14
ENDBRANCH   3   5
BRANCH   4  18
HETATM   18  C           1     -21.697  -4.741  -8.967  0.00  0.00     0.185 C 
BRANCH  18  19
HETATM   19  C           1     -22.839  -4.058  -9.707  0.00  0.00     0.038 C 
BRANCH  19  20
HETATM   20  C           1     -23.163  -4.839 -10.974  0.00  0.00     0.030 C 
BRANCH  20  21
HETATM   21  C           1     -23.277  -3.878 -12.150  0.00  0.00     0.230 C 
BRANCH  21  22
HETATM   22  N           1     -21.947  -3.767 -12.835  0.00  0.00    -0.079 N 
HETATM   23  H           1     -21.412  -4.656 -12.704  0.00  0.00     0.274 HD
HETATM   24  H           1     -22.095  -3.598 -13.855  0.00  0.00     0.274 HD
HETATM   25  H           1     -21.408  -2.972 -12.424  0.00  0.00     0.274 HD
ENDBRANCH  21  22
ENDBRANCH  20  21
ENDBRANCH  19  20
ENDBRANCH  18  19
BRANCH  18  26
HETATM   26  C           1     -20.407  -4.010  -9.250  0.00  0.00     0.196 C 
HETATM   27  O           1     -20.142  -3.638 -10.413  0.00  0.00    -0.646 OA
HETATM   28  O           1     -19.603  -3.778  -8.321  0.00  0.00    -0.646 OA
ENDBRANCH  18  26
ENDBRANCH   4  18
TORSDOF 10
ENDMDL
MODEL 9
REMARK VINA RESULT:      -5.2     13.849     16.873
REMARK  10 active torsions:
REMARK  status: ('A' for Active; 'I' for Inactive)
REMARK    1  A    between atoms: C_5  and  C_6 
REMARK    2  A    between atoms: C_5  and  C_24 
REMARK    3  A    between atoms: C_6  and  C_7 
REMARK    4  A    between atoms: C_7  and  N_8 
REMARK    5  A    between atoms: C_9  and  C_26 
REMARK    6  A    between atoms: C_9  and  C_17 
REMARK    7  A    between atoms: N_14  and  C_26 
REMARK    8  A    between atoms: C_19  and  C_24 
REMARK    9  A    between atoms: C_24  and  N_28 
REMARK       I    between atoms: C_25  and  N_28 
REMARK   10  A    between atoms: C_25  and  C_26 
ROOT
HETATM    1  O           1     -20.610  -4.742  -5.416  0.00  0.00    -0.271 OA
HETATM    2  H           1     -22.210  -7.384  -5.966  0.00  0.00     0.163 HD
HETATM    3  C           1     -21.405  -5.477  -5.951  0.00  0.00     0.249 C 
HETATM    4  N           1     -21.544  -6.768  -5.518  0.00  0.00    -0.345 N 
ENDROOT
BRANCH   3   5
HETATM    5  C           1     -22.246  -4.972  -7.098  0.00  0.00     0.280 C 
BRANCH   5   6
HETATM    6  C           1     -21.602  -3.726  -7.690  0.00  0.00     0.101 C 
BRANCH   6   7
HETATM    7  C           1     -21.369  -3.931  -9.154  0.00  0.00     0.028 A 
HETATM    8  N           1     -20.195  -4.384  -9.700  0.00  0.00    -0.355 N 
HETATM    9  C           1     -20.406  -4.420 -10.996  0.00  0.00     0.180 A 
ATOM     10  HN          1     -19.340  -4.638  -9.206  1.00  0.00     0.166 HD
HETATM   11  N           1     -21.671  -4.009 -11.307  0.00  0.00    -0.360 N 
HETATM   12  C           1     -22.300  -3.691 -10.136  0.00  0.00     0.114 A 
HETATM   13  H           1     -22.083  -3.948 -12.270  0.00  0.00     0.166 HD
ENDBRANCH   6   7
ENDBRANCH   5   6
BRANCH   5  14
HETATM   14  N           1     -23.620  -4.635  -6.598  0.00  0.00    -0.066 N 
HETATM   15  H           1     -23.762  -5.060  -5.655  0.00  0.00     0.275 HD
HETATM   16  H           1     -23.720  -3.597  -6.531  0.00  0.00     0.275 HD
HETATM   17  H           1     -24.334  -5.013  -7.261  0.00  0.00     0.275 HD
ENDBRANCH   5  14
ENDBRANCH   3   5
BRANCH   4  18
HETATM   18  C           1     -20.736  -7.253  -4.416  0.00  0.00     0.185 C 
BRANCH  18  19
HETATM   19  C           1     -21.638  -7.871  -3.356  0.00  0.00     0.038 C 
BRANCH  19  20
HETATM   20  C           1     -21.559  -7.046  -2.078  0.00  0.00     0.030 C 
BRANCH  20  21
HETATM   21  C           1     -21.208  -7.954  -0.907  0.00  0.00     0.230 C 
BRANCH  21  22
HETATM   22  N           1     -22.146  -7.687   0.232  0.00  0.00    -0.079 N 
HETATM   23  H           1     -22.455  -8.595   0.650  0.00  0.00     0.274 HD
HETATM   24  H           1     -21.657  -7.118   0.959  0.00  0.00     0.274 HD
HETATM   25  H           1     -22.980  -7.164  -0.118  0.00  0.00     0.274 HD
ENDBRANCH  21  22
ENDBRANCH  20  21
ENDBRANCH  19  20
ENDBRANCH  18  19
BRANCH  18  26
HETATM   26  C           1     -19.770  -8.297  -4.923  0.00  0.00     0.196 C 
HETATM   27  O           1     -19.307  -8.210  -6.081  0.00  0.00    -0.646 OA
HETATM   28  O           1     -19.435  -9.250  -4.186  0.00  0.00    -0.646 OA
ENDBRANCH  18  26
ENDBRANCH   4  18
TORSDOF 10
ENDMDL
