MODEL 1
REMARK VINA RESULT:      -5.6      0.000      0.000
REMARK  4 active torsions:
REMARK  status: ('A' for Active; 'I' for Inactive)
REMARK    1  A    between atoms: C_1  and  C_8 
REMARK    2  A    between atoms: C_1  and  N_3 
REMARK    3  A    between atoms: N_7  and  C_12 
REMARK       I    between atoms: N_7  and  C_8 
REMARK    4  A    between atoms: C_11  and  C_12 
ROOT
HETATM    1  O           1     -36.099  -1.910 -12.026  0.00  0.00    -0.271 OA
HETATM    2  N           1     -34.759  -1.526 -13.771  0.00  0.00    -0.345 N 
HETATM    3  C           1     -35.121  -2.234 -12.656  0.00  0.00     0.248 C 
HETATM    4  H           1     -33.939  -1.797 -14.298  0.00  0.00     0.163 HD
ENDROOT
BRANCH   3   5
HETATM    5  C           1     -34.296  -3.419 -12.215  0.00  0.00     0.270 C 
HETATM    6  C           1     -33.238  -2.959 -11.220  0.00  0.00     0.050 C 
BRANCH   5   7
HETATM    7  N           1     -33.627  -4.033 -13.408  0.00  0.00    -0.067 N 
HETATM    8  H           1     -34.294  -4.047 -14.213  0.00  0.00     0.275 HD
HETATM    9  H           1     -32.786  -3.468 -13.664  0.00  0.00     0.275 HD
HETATM   10  H           1     -33.335  -5.010 -13.180  0.00  0.00     0.275 HD
ENDBRANCH   5   7
ENDBRANCH   3   5
BRANCH   2  11
HETATM   11  C           1     -35.551  -0.387 -14.195  0.00  0.00     0.181 C 
HETATM   12  C           1     -34.834   0.900 -13.810  0.00  0.00     0.043 C 
BRANCH  11  13
HETATM   13  C           1     -35.735  -0.434 -15.692  0.00  0.00     0.196 C 
HETATM   14  O           1     -35.060  -1.230 -16.380  0.00  0.00    -0.646 OA
HETATM   15  O           1     -36.563   0.323 -16.243  0.00  0.00    -0.646 OA
ENDBRANCH  11  13
ENDBRANCH   2  11
TORSDOF 4
ENDMDL
MODEL 2
REMARK VINA RESULT:      -5.6      1.688      2.133
REMARK  4 active torsions:
REMARK  status: ('A' for Active; 'I' for Inactive)
REMARK    1  A    between atoms: C_1  and  C_8 
REMARK    2  A    between atoms: C_1  and  N_3 
REMARK    3  A    between atoms: N_7  and  C_12 
REMARK       I    between atoms: N_7  and  C_8 
REMARK    4  A    between atoms: C_11  and  C_12 
ROOT
HETATM    1  O           1     -34.665  -2.066 -11.166  0.00  0.00    -0.271 OA
HETATM    2  N           1     -34.901  -1.593 -13.335  0.00  0.00    -0.345 N 
HETATM    3  C           1     -34.566  -2.437 -12.310  0.00  0.00     0.248 C 
HETATM    4  H           1     -34.817  -1.904 -14.295  0.00  0.00     0.163 HD
ENDROOT
BRANCH   3   5
HETATM    5  C           1     -34.072  -3.831 -12.612  0.00  0.00     0.270 C 
HETATM    6  C           1     -32.762  -4.076 -11.876  0.00  0.00     0.050 C 
BRANCH   5   7
HETATM    7  N           1     -33.848  -3.972 -14.089  0.00  0.00    -0.067 N 
HETATM    8  H           1     -34.251  -3.143 -14.583  0.00  0.00     0.275 HD
HETATM    9  H           1     -32.823  -4.027 -14.282  0.00  0.00     0.275 HD
HETATM   10  H           1     -34.316  -4.842 -14.431  0.00  0.00     0.275 HD
ENDBRANCH   5   7
ENDBRANCH   3   5
BRANCH   2  11
HETATM   11  C           1     -35.376  -0.253 -13.045  0.00  0.00     0.181 C 
HETATM   12  C           1     -34.871   0.706 -14.115  0.00  0.00     0.043 C 
BRANCH  11  13
HETATM   13  C           1     -36.884  -0.247 -13.034  0.00  0.00     0.196 C 
HETATM   14  O           1     -37.500   0.238 -12.060  0.00  0.00    -0.646 OA
HETATM   15  O           1     -37.519  -0.728 -13.998  0.00  0.00    -0.646 OA
ENDBRANCH  11  13
ENDBRANCH   2  11
TORSDOF 4
ENDMDL
MODEL 3
REMARK VINA RESULT:      -5.4      2.029      4.883
REMARK  4 active torsions:
REMARK  status: ('A' for Active; 'I' for Inactive)
REMARK    1  A    between atoms: C_1  and  C_8 
REMARK    2  A    between atoms: C_1  and  N_3 
REMARK    3  A    between atoms: N_7  and  C_12 
REMARK       I    between atoms: N_7  and  C_8 
REMARK    4  A    between atoms: C_11  and  C_12 
ROOT
HETATM    1  O           1     -35.041  -1.885 -14.167  0.00  0.00    -0.271 OA
HETATM    2  N           1     -34.814  -2.010 -11.949  0.00  0.00    -0.345 N 
HETATM    3  C           1     -35.132  -1.334 -13.097  0.00  0.00     0.248 C 
HETATM    4  H           1     -34.890  -1.548 -11.052  0.00  0.00     0.163 HD
ENDROOT
BRANCH   3   5
HETATM    5  C           1     -35.596   0.100 -13.022  0.00  0.00     0.270 C 
HETATM    6  C           1     -34.643   0.984 -13.816  0.00  0.00     0.050 C 
BRANCH   5   7
HETATM    7  N           1     -35.614   0.546 -11.590  0.00  0.00    -0.067 N 
HETATM    8  H           1     -34.812   1.194 -11.417  0.00  0.00     0.275 HD
HETATM    9  H           1     -36.511   1.043 -11.391  0.00  0.00     0.275 HD
HETATM   10  H           1     -35.530  -0.288 -10.965  0.00  0.00     0.275 HD
ENDBRANCH   5   7
ENDBRANCH   3   5
BRANCH   2  11
HETATM   11  C           1     -34.368  -3.388 -12.020  0.00  0.00     0.181 C 
HETATM   12  C           1     -32.909  -3.472 -11.591  0.00  0.00     0.043 C 
BRANCH  11  13
HETATM   13  C           1     -35.213  -4.237 -11.102  0.00  0.00     0.196 C 
HETATM   14  O           1     -36.308  -3.804 -10.683  0.00  0.00    -0.646 OA
HETATM   15  O           1     -34.817  -5.373 -10.762  0.00  0.00    -0.646 OA
ENDBRANCH  11  13
ENDBRANCH   2  11
TORSDOF 4
ENDMDL
MODEL 4
REMARK VINA RESULT:      -5.3     12.198     14.052
REMARK  4 active torsions:
REMARK  status: ('A' for Active; 'I' for Inactive)
REMARK    1  A    between atoms: C_1  and  C_8 
REMARK    2  A    between atoms: C_1  and  N_3 
REMARK    3  A    between atoms: N_7  and  C_12 
REMARK       I    between atoms: N_7  and  C_8 
REMARK    4  A    between atoms: C_11  and  C_12 
ROOT
HETATM    1  O           1     -23.377  -4.948 -11.121  0.00  0.00    -0.271 OA
HETATM    2  N           1     -21.839  -3.613 -10.205  0.00  0.00    -0.345 N 
HETATM    3  C           1     -22.776  -3.901 -11.160  0.00  0.00     0.248 C 
HETATM    4  H           1     -21.336  -2.735 -10.238  0.00  0.00     0.163 HD
ENDROOT
BRANCH   3   5
HETATM    5  C           1     -23.058  -2.910 -12.263  0.00  0.00     0.270 C 
HETATM    6  C           1     -24.539  -2.949 -12.615  0.00  0.00     0.050 C 
BRANCH   5   7
HETATM    7  N           1     -22.248  -3.268 -13.474  0.00  0.00    -0.067 N 
HETATM    8  H           1     -21.413  -3.825 -13.183  0.00  0.00     0.275 HD
HETATM    9  H           1     -22.833  -3.835 -14.129  0.00  0.00     0.275 HD
HETATM   10  H           1     -21.935  -2.394 -13.955  0.00  0.00     0.275 HD
ENDBRANCH   5   7
ENDBRANCH   3   5
BRANCH   2  11
HETATM   11  C           1     -21.568  -4.565  -9.145  0.00  0.00     0.181 C 
HETATM   12  C           1     -20.064  -4.760  -9.011  0.00  0.00     0.043 C 
BRANCH  11  13
HETATM   13  C           1     -22.125  -4.040  -7.844  0.00  0.00     0.196 C 
HETATM   14  O           1     -23.295  -4.321  -7.507  0.00  0.00    -0.646 OA
HETATM   15  O           1     -21.416  -3.324  -7.104  0.00  0.00    -0.646 OA
ENDBRANCH  11  13
ENDBRANCH   2  11
TORSDOF 4
ENDMDL
MODEL 5
REMARK VINA RESULT:      -5.2     12.608     14.195
REMARK  4 active torsions:
REMARK  status: ('A' for Active; 'I' for Inactive)
REMARK    1  A    between atoms: C_1  and  C_8 
REMARK    2  A    between atoms: C_1  and  N_3 
REMARK    3  A    between atoms: N_7  and  C_12 
REMARK       I    between atoms: N_7  and  C_8 
REMARK    4  A    between atoms: C_11  and  C_12 
ROOT
HETATM    1  O           1     -21.467  -3.212  -7.192  0.00  0.00    -0.271 OA
HETATM    2  N           1     -22.184  -4.679  -8.716  0.00  0.00    -0.345 N 
HETATM    3  C           1     -21.566  -4.365  -7.535  0.00  0.00     0.248 C 
HETATM    4  H           1     -22.266  -5.646  -9.003  0.00  0.00     0.163 HD
ENDROOT
BRANCH   3   5
HETATM    5  C           1     -21.008  -5.463  -6.662  0.00  0.00     0.270 C 
HETATM    6  C           1     -20.300  -4.847  -5.462  0.00  0.00     0.050 C 
BRANCH   5   7
HETATM    7  N           1     -20.030  -6.281  -7.452  0.00  0.00    -0.067 N 
HETATM    8  H           1     -19.064  -6.113  -7.092  0.00  0.00     0.275 HD
HETATM    9  H           1     -20.266  -7.294  -7.355  0.00  0.00     0.275 HD
HETATM   10  H           1     -20.079  -6.006  -8.459  0.00  0.00     0.275 HD
ENDBRANCH   5   7
ENDBRANCH   3   5
BRANCH   2  11
HETATM   11  C           1     -22.720  -3.625  -9.555  0.00  0.00     0.181 C 
HETATM   12  C           1     -22.071  -3.693 -10.931  0.00  0.00     0.043 C 
BRANCH  11  13
HETATM   13  C           1     -24.212  -3.802  -9.692  0.00  0.00     0.196 C 
HETATM   14  O           1     -24.974  -2.820  -9.561  0.00  0.00    -0.646 OA
HETATM   15  O           1     -24.687  -4.933  -9.937  0.00  0.00    -0.646 OA
ENDBRANCH  11  13
ENDBRANCH   2  11
TORSDOF 4
ENDMDL
MODEL 6
REMARK VINA RESULT:      -5.0      1.942      2.145
REMARK  4 active torsions:
REMARK  status: ('A' for Active; 'I' for Inactive)
REMARK    1  A    between atoms: C_1  and  C_8 
REMARK    2  A    between atoms: C_1  and  N_3 
REMARK    3  A    between atoms: N_7  and  C_12 
REMARK       I    between atoms: N_7  and  C_8 
REMARK    4  A    between atoms: C_11  and  C_12 
ROOT
HETATM    1  O           1     -34.633  -3.022 -13.301  0.00  0.00    -0.271 OA
HETATM    2  N           1     -35.065  -1.009 -12.435  0.00  0.00    -0.345 N 
HETATM    3  C           1     -34.442  -2.228 -12.411  0.00  0.00     0.248 C 
HETATM    4  H           1     -34.906  -0.344 -11.690  0.00  0.00     0.163 HD
ENDROOT
BRANCH   3   5
HETATM    5  C           1     -33.518  -2.580 -11.270  0.00  0.00     0.270 C 
HETATM    6  C           1     -33.708  -4.044 -10.896  0.00  0.00     0.050 C 
BRANCH   5   7
HETATM    7  N           1     -33.837  -1.717 -10.086  0.00  0.00    -0.067 N 
HETATM    8  H           1     -33.120  -1.870  -9.340  0.00  0.00     0.275 HD
HETATM    9  H           1     -33.827  -0.712 -10.374  0.00  0.00     0.275 HD
HETATM   10  H           1     -34.782  -1.965  -9.717  0.00  0.00     0.275 HD
ENDBRANCH   5   7
ENDBRANCH   3   5
BRANCH   2  11
HETATM   11  C           1     -35.953  -0.671 -13.531  0.00  0.00     0.181 C 
HETATM   12  C           1     -37.276  -0.163 -12.973  0.00  0.00     0.043 C 
BRANCH  11  13
HETATM   13  C           1     -35.318   0.404 -14.378  0.00  0.00     0.196 C 
HETATM   14  O           1     -34.179   0.833 -14.094  0.00  0.00    -0.646 OA
HETATM   15  O           1     -35.932   0.866 -15.365  0.00  0.00    -0.646 OA
ENDBRANCH  11  13
ENDBRANCH   2  11
TORSDOF 4
ENDMDL
MODEL 7
REMARK VINA RESULT:      -5.0      8.551      9.676
REMARK  4 active torsions:
REMARK  status: ('A' for Active; 'I' for Inactive)
REMARK    1  A    between atoms: C_1  and  C_8 
REMARK    2  A    between atoms: C_1  and  N_3 
REMARK    3  A    between atoms: N_7  and  C_12 
REMARK       I    between atoms: N_7  and  C_8 
REMARK    4  A    between atoms: C_11  and  C_12 
ROOT
HETATM    1  O           1     -26.575  -5.569 -17.504  0.00  0.00    -0.271 OA
HETATM    2  N           1     -27.954  -7.170 -16.784  0.00  0.00    -0.345 N 
HETATM    3  C           1     -26.728  -6.563 -16.836  0.00  0.00     0.248 C 
HETATM    4  H           1     -28.082  -8.004 -16.224  0.00  0.00     0.163 HD
ENDROOT
BRANCH   3   5
HETATM    5  C           1     -25.568  -7.137 -16.059  0.00  0.00     0.270 C 
HETATM    6  C           1     -25.020  -6.079 -15.110  0.00  0.00     0.050 C 
BRANCH   5   7
HETATM    7  N           1     -24.490  -7.560 -17.011  0.00  0.00    -0.067 N 
HETATM    8  H           1     -23.555  -7.326 -16.606  0.00  0.00     0.275 HD
HETATM    9  H           1     -24.551  -8.591 -17.170  0.00  0.00     0.275 HD
HETATM   10  H           1     -24.611  -7.059 -17.920  0.00  0.00     0.275 HD
ENDBRANCH   5   7
ENDBRANCH   3   5
BRANCH   2  11
HETATM   11  C           1     -29.068  -6.620 -17.531  0.00  0.00     0.181 C 
HETATM   12  C           1     -29.765  -7.735 -18.299  0.00  0.00     0.043 C 
BRANCH  11  13
HETATM   13  C           1     -30.045  -5.980 -16.575  0.00  0.00     0.196 C 
HETATM   14  O           1     -31.234  -5.805 -16.920  0.00  0.00    -0.646 OA
HETATM   15  O           1     -29.666  -5.624 -15.438  0.00  0.00    -0.646 OA
ENDBRANCH  11  13
ENDBRANCH   2  11
TORSDOF 4
ENDMDL
MODEL 8
REMARK VINA RESULT:      -4.8      9.929     10.788
REMARK  4 active torsions:
REMARK  status: ('A' for Active; 'I' for Inactive)
REMARK    1  A    between atoms: C_1  and  C_8 
REMARK    2  A    between atoms: C_1  and  N_3 
REMARK    3  A    between atoms: N_7  and  C_12 
REMARK       I    between atoms: N_7  and  C_8 
REMARK    4  A    between atoms: C_11  and  C_12 
ROOT
HETATM    1  O           1     -26.430  -5.826 -17.369  0.00  0.00    -0.271 OA
HETATM    2  N           1     -27.648  -6.876 -18.918  0.00  0.00    -0.345 N 
HETATM    3  C           1     -26.457  -6.419 -18.421  0.00  0.00     0.248 C 
HETATM    4  H           1     -27.672  -7.373 -19.799  0.00  0.00     0.163 HD
ENDROOT
BRANCH   3   5
HETATM    5  C           1     -25.180  -6.656 -19.188  0.00  0.00     0.270 C 
HETATM    6  C           1     -25.494  -7.392 -20.483  0.00  0.00     0.050 C 
BRANCH   5   7
HETATM    7  N           1     -24.245  -7.484 -18.357  0.00  0.00    -0.067 N 
HETATM    8  H           1     -23.376  -6.938 -18.161  0.00  0.00     0.275 HD
HETATM    9  H           1     -24.709  -7.733 -17.455  0.00  0.00     0.275 HD
HETATM   10  H           1     -23.999  -8.358 -18.876  0.00  0.00     0.275 HD
ENDBRANCH   5   7
ENDBRANCH   3   5
BRANCH   2  11
HETATM   11  C           1     -28.877  -6.649 -18.181  0.00  0.00     0.181 C 
HETATM   12  C           1     -29.473  -5.308 -18.590  0.00  0.00     0.043 C 
BRANCH  11  13
HETATM   13  C           1     -29.859  -7.752 -18.489  0.00  0.00     0.196 C 
HETATM   14  O           1     -29.566  -8.633 -19.326  0.00  0.00    -0.646 OA
HETATM   15  O           1     -30.965  -7.785 -17.907  0.00  0.00    -0.646 OA
ENDBRANCH  11  13
ENDBRANCH   2  11
TORSDOF 4
ENDMDL
MODEL 9
REMARK VINA RESULT:      -4.8     12.576     14.577
REMARK  4 active torsions:
REMARK  status: ('A' for Active; 'I' for Inactive)
REMARK    1  A    between atoms: C_1  and  C_8 
REMARK    2  A    between atoms: C_1  and  N_3 
REMARK    3  A    between atoms: N_7  and  C_12 
REMARK       I    between atoms: N_7  and  C_8 
REMARK    4  A    between atoms: C_11  and  C_12 
ROOT
HETATM    1  O           1     -21.673  -4.336 -10.444  0.00  0.00    -0.271 OA
HETATM    2  N           1     -22.723  -4.658  -8.500  0.00  0.00    -0.345 N 
HETATM    3  C           1     -22.720  -4.440  -9.851  0.00  0.00     0.248 C 
HETATM    4  H           1     -23.601  -4.745  -8.003  0.00  0.00     0.163 HD
ENDROOT
BRANCH   3   5
HETATM    5  C           1     -24.025  -4.328 -10.600  0.00  0.00     0.270 C 
HETATM    6  C           1     -23.949  -3.167 -11.583  0.00  0.00     0.050 C 
BRANCH   5   7
HETATM    7  N           1     -25.140  -4.086  -9.626  0.00  0.00    -0.067 N 
HETATM    8  H           1     -25.204  -4.890  -8.962  0.00  0.00     0.275 HD
HETATM    9  H           1     -24.950  -3.208  -9.091  0.00  0.00     0.275 HD
HETATM   10  H           1     -26.042  -3.990 -10.146  0.00  0.00     0.275 HD
ENDBRANCH   5   7
ENDBRANCH   3   5
BRANCH   2  11
HETATM   11  C           1     -21.469  -4.766  -7.779  0.00  0.00     0.181 C 
HETATM   12  C           1     -21.133  -3.424  -7.143  0.00  0.00     0.043 C 
BRANCH  11  13
HETATM   13  C           1     -21.596  -5.816  -6.704  0.00  0.00     0.196 C 
HETATM   14  O           1     -20.957  -6.886  -6.795  0.00  0.00    -0.646 OA
HETATM   15  O           1     -22.342  -5.616  -5.720  0.00  0.00    -0.646 OA
ENDBRANCH  11  13
ENDBRANCH   2  11
TORSDOF 4
ENDMDL
