MODEL 1
REMARK VINA RESULT:      -6.7      0.000      0.000
REMARK  11 active torsions:
REMARK  status: ('A' for Active; 'I' for Inactive)
REMARK    1  A    between atoms: C_4  and  C_5 
REMARK    2  A    between atoms: C_5  and  C_18 
REMARK    3  A    between atoms: C_5  and  N_13 
REMARK    4  A    between atoms: C_6  and  C_10 
REMARK    5  A    between atoms: C_6  and  C_9 
REMARK    6  A    between atoms: C_9  and  C_20 
REMARK    7  A    between atoms: C_10  and  C_19 
REMARK    8  A    between atoms: C_10  and  N_21 
REMARK       I    between atoms: N_13  and  C_19 
REMARK    9  A    between atoms: C_15  and  C_17 
REMARK   10  A    between atoms: C_15  and  C_18 
REMARK   11  A    between atoms: C_20  and  N_23 
ROOT
HETATM    1  O           1     -33.703  -1.999 -11.404  0.00  0.00    -0.271 OA
HETATM    2  H           1     -36.253  -2.309 -13.207  0.00  0.00     0.163 HD
HETATM    3  N           1     -35.576  -1.848 -12.611  0.00  0.00    -0.345 N 
HETATM    4  C           1     -34.511  -2.550 -12.114  0.00  0.00     0.249 C 
ENDROOT
BRANCH   4   5
HETATM    5  C           1     -34.345  -4.011 -12.454  0.00  0.00     0.274 C 
BRANCH   5   6
HETATM    6  C           1     -33.394  -4.659 -11.457  0.00  0.00     0.044 C 
BRANCH   6   7
HETATM    7  C           1     -34.195  -5.314 -10.341  0.00  0.00     0.030 C 
BRANCH   7   8
HETATM    8  C           1     -34.445  -6.777 -10.684  0.00  0.00     0.230 C 
BRANCH   8   9
HETATM    9  N           1     -35.020  -7.480  -9.491  0.00  0.00    -0.079 N 
HETATM   10  H           1     -36.021  -7.204  -9.372  0.00  0.00     0.274 HD
HETATM   11  H           1     -34.482  -7.214  -8.637  0.00  0.00     0.274 HD
HETATM   12  H           1     -34.959  -8.514  -9.635  0.00  0.00     0.274 HD
ENDBRANCH   8   9
ENDBRANCH   7   8
ENDBRANCH   6   7
ENDBRANCH   5   6
BRANCH   5  13
HETATM   13  N           1     -33.783  -4.141 -13.839  0.00  0.00    -0.067 N 
HETATM   14  H           1     -34.559  -4.086 -14.536  0.00  0.00     0.275 HD
HETATM   15  H           1     -33.103  -3.368 -14.013  0.00  0.00     0.275 HD
HETATM   16  H           1     -33.296  -5.061 -13.931  0.00  0.00     0.275 HD
ENDBRANCH   5  13
ENDBRANCH   4   5
BRANCH   3  17
HETATM   17  C           1     -35.736  -0.444 -12.285  0.00  0.00     0.186 C 
BRANCH  17  18
HETATM   18  C           1     -36.731  -0.300 -11.161  0.00  0.00     0.196 C 
HETATM   19  O           1     -37.810  -0.933 -11.196  0.00  0.00    -0.646 OA
HETATM   20  O           1     -36.478   0.450 -10.193  0.00  0.00    -0.646 OA
ENDBRANCH  17  18
BRANCH  17  21
HETATM   21  C           1     -36.239   0.308 -13.510  0.00  0.00     0.046 C 
BRANCH  21  22
HETATM   22  C           1     -35.152   0.331 -14.575  0.00  0.00     0.116 C 
BRANCH  22  23
HETATM   23  C           1     -35.503  -0.640 -15.674  0.00  0.00     0.172 C 
HETATM   24  O           1     -36.191  -0.261 -16.647  0.00  0.00    -0.648 OA
HETATM   25  O           1     -35.107  -1.824 -15.613  0.00  0.00    -0.648 OA
ENDBRANCH  22  23
ENDBRANCH  21  22
ENDBRANCH  17  21
ENDBRANCH   3  17
TORSDOF 11
ENDMDL
MODEL 2
REMARK VINA RESULT:      -6.2     11.982     13.569
REMARK  11 active torsions:
REMARK  status: ('A' for Active; 'I' for Inactive)
REMARK    1  A    between atoms: C_4  and  C_5 
REMARK    2  A    between atoms: C_5  and  C_18 
REMARK    3  A    between atoms: C_5  and  N_13 
REMARK    4  A    between atoms: C_6  and  C_10 
REMARK    5  A    between atoms: C_6  and  C_9 
REMARK    6  A    between atoms: C_9  and  C_20 
REMARK    7  A    between atoms: C_10  and  C_19 
REMARK    8  A    between atoms: C_10  and  N_21 
REMARK       I    between atoms: N_13  and  C_19 
REMARK    9  A    between atoms: C_15  and  C_17 
REMARK   10  A    between atoms: C_15  and  C_18 
REMARK   11  A    between atoms: C_20  and  N_23 
ROOT
HETATM    1  O           1     -21.637  -3.305  -7.635  0.00  0.00    -0.271 OA
HETATM    2  H           1     -22.108  -5.729  -9.571  0.00  0.00     0.163 HD
HETATM    3  N           1     -22.149  -4.773  -9.237  0.00  0.00    -0.345 N 
HETATM    4  C           1     -21.588  -4.444  -8.032  0.00  0.00     0.249 C 
ENDROOT
BRANCH   4   5
HETATM    5  C           1     -20.909  -5.506  -7.201  0.00  0.00     0.274 C 
BRANCH   5   6
HETATM    6  C           1     -21.801  -5.877  -6.024  0.00  0.00     0.044 C 
BRANCH   6   7
HETATM    7  C           1     -21.017  -5.735  -4.727  0.00  0.00     0.030 C 
BRANCH   7   8
HETATM    8  C           1     -21.551  -6.724  -3.699  0.00  0.00     0.230 C 
BRANCH   8   9
HETATM    9  N           1     -22.218  -5.976  -2.583  0.00  0.00    -0.079 N 
HETATM   10  H           1     -22.373  -6.621  -1.776  0.00  0.00     0.274 HD
HETATM   11  H           1     -23.136  -5.604  -2.913  0.00  0.00     0.274 HD
HETATM   12  H           1     -21.606  -5.183  -2.283  0.00  0.00     0.274 HD
ENDBRANCH   8   9
ENDBRANCH   7   8
ENDBRANCH   6   7
ENDBRANCH   5   6
BRANCH   5  13
HETATM   13  N           1     -19.601  -4.978  -6.690  0.00  0.00    -0.067 N 
HETATM   14  H           1     -18.960  -4.796  -7.494  0.00  0.00     0.275 HD
HETATM   15  H           1     -19.764  -4.088  -6.166  0.00  0.00     0.275 HD
HETATM   16  H           1     -19.167  -5.682  -6.051  0.00  0.00     0.275 HD
ENDBRANCH   5  13
ENDBRANCH   4   5
BRANCH   3  17
HETATM   17  C           1     -22.802  -3.755 -10.036  0.00  0.00     0.186 C 
BRANCH  17  18
HETATM   18  C           1     -24.292  -3.817  -9.808  0.00  0.00     0.196 C 
HETATM   19  O           1     -24.927  -2.773  -9.542  0.00  0.00    -0.646 OA
HETATM   20  O           1     -24.892  -4.911  -9.887  0.00  0.00    -0.646 OA
ENDBRANCH  17  18
BRANCH  17  21
HETATM   21  C           1     -22.502  -3.995 -11.510  0.00  0.00     0.046 C 
BRANCH  21  22
HETATM   22  C           1     -22.706  -2.701 -12.288  0.00  0.00     0.116 C 
BRANCH  22  23
HETATM   23  C           1     -23.762  -2.912 -13.344  0.00  0.00     0.172 C 
HETATM   24  O           1     -23.429  -3.054 -14.541  0.00  0.00    -0.648 OA
HETATM   25  O           1     -24.970  -2.944 -13.024  0.00  0.00    -0.648 OA
ENDBRANCH  22  23
ENDBRANCH  21  22
ENDBRANCH  17  21
ENDBRANCH   3  17
TORSDOF 11
ENDMDL
MODEL 3
REMARK VINA RESULT:      -5.6     13.112     15.950
REMARK  11 active torsions:
REMARK  status: ('A' for Active; 'I' for Inactive)
REMARK    1  A    between atoms: C_4  and  C_5 
REMARK    2  A    between atoms: C_5  and  C_18 
REMARK    3  A    between atoms: C_5  and  N_13 
REMARK    4  A    between atoms: C_6  and  C_10 
REMARK    5  A    between atoms: C_6  and  C_9 
REMARK    6  A    between atoms: C_9  and  C_20 
REMARK    7  A    between atoms: C_10  and  C_19 
REMARK    8  A    between atoms: C_10  and  N_21 
REMARK       I    between atoms: N_13  and  C_19 
REMARK    9  A    between atoms: C_15  and  C_17 
REMARK   10  A    between atoms: C_15  and  C_18 
REMARK   11  A    between atoms: C_20  and  N_23 
ROOT
HETATM    1  O           1     -21.882  -3.118  -7.983  0.00  0.00    -0.271 OA
HETATM    2  H           1     -22.686  -6.128  -7.610  0.00  0.00     0.163 HD
HETATM    3  N           1     -22.204  -5.256  -7.426  0.00  0.00    -0.345 N 
HETATM    4  C           1     -22.457  -4.157  -8.202  0.00  0.00     0.249 C 
ENDROOT
BRANCH   4   5
HETATM    5  C           1     -23.455  -4.244  -9.332  0.00  0.00     0.274 C 
BRANCH   5   6
HETATM    6  C           1     -22.806  -3.757 -10.620  0.00  0.00     0.044 C 
BRANCH   6   7
HETATM    7  C           1     -23.867  -3.141 -11.522  0.00  0.00     0.030 C 
BRANCH   7   8
HETATM    8  C           1     -23.204  -2.563 -12.765  0.00  0.00     0.230 C 
BRANCH   8   9
HETATM    9  N           1     -22.081  -3.458 -13.197  0.00  0.00    -0.079 N 
HETATM   10  H           1     -21.944  -3.373 -14.230  0.00  0.00     0.274 HD
HETATM   11  H           1     -22.313  -4.448 -12.958  0.00  0.00     0.274 HD
HETATM   12  H           1     -21.203  -3.176 -12.705  0.00  0.00     0.274 HD
ENDBRANCH   8   9
ENDBRANCH   7   8
ENDBRANCH   6   7
ENDBRANCH   5   6
BRANCH   5  13
HETATM   13  N           1     -24.644  -3.386  -9.015  0.00  0.00    -0.067 N 
HETATM   14  H           1     -24.737  -3.290  -7.979  0.00  0.00     0.275 HD
HETATM   15  H           1     -24.515  -2.441  -9.442  0.00  0.00     0.275 HD
HETATM   16  H           1     -25.507  -3.829  -9.403  0.00  0.00     0.275 HD
ENDBRANCH   5  13
ENDBRANCH   4   5
BRANCH   3  17
HETATM   17  C           1     -21.245  -5.174  -6.341  0.00  0.00     0.186 C 
BRANCH  17  18
HETATM   18  C           1     -19.886  -5.597  -6.840  0.00  0.00     0.196 C 
HETATM   19  O           1     -19.631  -6.810  -7.006  0.00  0.00    -0.646 OA
HETATM   20  O           1     -19.014  -4.735  -7.088  0.00  0.00    -0.646 OA
ENDBRANCH  17  18
BRANCH  17  21
HETATM   21  C           1     -21.680  -6.092  -5.208  0.00  0.00     0.046 C 
BRANCH  21  22
HETATM   22  C           1     -20.839  -5.807  -3.971  0.00  0.00     0.116 C 
BRANCH  22  23
HETATM   23  C           1     -21.497  -6.426  -2.762  0.00  0.00     0.172 C 
HETATM   24  O           1     -20.980  -7.423  -2.211  0.00  0.00    -0.648 OA
HETATM   25  O           1     -22.558  -5.943  -2.311  0.00  0.00    -0.648 OA
ENDBRANCH  22  23
ENDBRANCH  21  22
ENDBRANCH  17  21
ENDBRANCH   3  17
TORSDOF 11
ENDMDL
MODEL 4
REMARK VINA RESULT:      -5.6     14.714     16.988
REMARK  11 active torsions:
REMARK  status: ('A' for Active; 'I' for Inactive)
REMARK    1  A    between atoms: C_4  and  C_5 
REMARK    2  A    between atoms: C_5  and  C_18 
REMARK    3  A    between atoms: C_5  and  N_13 
REMARK    4  A    between atoms: C_6  and  C_10 
REMARK    5  A    between atoms: C_6  and  C_9 
REMARK    6  A    between atoms: C_9  and  C_20 
REMARK    7  A    between atoms: C_10  and  C_19 
REMARK    8  A    between atoms: C_10  and  N_21 
REMARK       I    between atoms: N_13  and  C_19 
REMARK    9  A    between atoms: C_15  and  C_17 
REMARK   10  A    between atoms: C_15  and  C_18 
REMARK   11  A    between atoms: C_20  and  N_23 
ROOT
HETATM    1  O           1     -20.724  -4.243  -6.363  0.00  0.00    -0.271 OA
HETATM    2  H           1     -21.929  -7.057  -7.055  0.00  0.00     0.163 HD
HETATM    3  N           1     -21.448  -6.350  -6.511  0.00  0.00    -0.345 N 
HETATM    4  C           1     -21.298  -5.085  -7.012  0.00  0.00     0.249 C 
ENDROOT
BRANCH   4   5
HETATM    5  C           1     -21.849  -4.743  -8.375  0.00  0.00     0.274 C 
BRANCH   5   6
HETATM    6  C           1     -20.765  -4.068  -9.205  0.00  0.00     0.044 C 
BRANCH   6   7
HETATM    7  C           1     -20.960  -4.416 -10.675  0.00  0.00     0.030 C 
BRANCH   7   8
HETATM    8  C           1     -21.377  -3.169 -11.442  0.00  0.00     0.230 C 
BRANCH   8   9
HETATM    9  N           1     -21.765  -3.548 -12.841  0.00  0.00    -0.079 N 
HETATM   10  H           1     -22.235  -2.737 -13.304  0.00  0.00     0.274 HD
HETATM   11  H           1     -22.421  -4.360 -12.812  0.00  0.00     0.274 HD
HETATM   12  H           1     -20.909  -3.808 -13.381  0.00  0.00     0.274 HD
ENDBRANCH   8   9
ENDBRANCH   7   8
ENDBRANCH   6   7
ENDBRANCH   5   6
BRANCH   5  13
HETATM   13  N           1     -23.015  -3.811  -8.223  0.00  0.00    -0.067 N 
HETATM   14  H           1     -22.734  -2.996  -7.633  0.00  0.00     0.275 HD
HETATM   15  H           1     -23.316  -3.473  -9.164  0.00  0.00     0.275 HD
HETATM   16  H           1     -23.806  -4.317  -7.764  0.00  0.00     0.275 HD
ENDBRANCH   5  13
ENDBRANCH   4   5
BRANCH   3  17
HETATM   17  C           1     -20.919  -6.680  -5.202  0.00  0.00     0.186 C 
BRANCH  17  18
HETATM   18  C           1     -20.422  -8.105  -5.206  0.00  0.00     0.196 C 
HETATM   19  O           1     -19.398  -8.410  -4.557  0.00  0.00    -0.646 OA
HETATM   20  O           1     -21.034  -8.979  -5.857  0.00  0.00    -0.646 OA
ENDBRANCH  17  18
BRANCH  17  21
HETATM   21  C           1     -22.016  -6.527  -4.157  0.00  0.00     0.046 C 
BRANCH  21  22
HETATM   22  C           1     -21.397  -6.130  -2.823  0.00  0.00     0.116 C 
BRANCH  22  23
HETATM   23  C           1     -21.860  -7.083  -1.750  0.00  0.00     0.172 C 
HETATM   24  O           1     -21.467  -8.270  -1.755  0.00  0.00    -0.648 OA
HETATM   25  O           1     -22.638  -6.687  -0.855  0.00  0.00    -0.648 OA
ENDBRANCH  22  23
ENDBRANCH  21  22
ENDBRANCH  17  21
ENDBRANCH   3  17
TORSDOF 11
ENDMDL
MODEL 5
REMARK VINA RESULT:      -5.6      9.593     12.010
REMARK  11 active torsions:
REMARK  status: ('A' for Active; 'I' for Inactive)
REMARK    1  A    between atoms: C_4  and  C_5 
REMARK    2  A    between atoms: C_5  and  C_18 
REMARK    3  A    between atoms: C_5  and  N_13 
REMARK    4  A    between atoms: C_6  and  C_10 
REMARK    5  A    between atoms: C_6  and  C_9 
REMARK    6  A    between atoms: C_9  and  C_20 
REMARK    7  A    between atoms: C_10  and  C_19 
REMARK    8  A    between atoms: C_10  and  N_21 
REMARK       I    between atoms: N_13  and  C_19 
REMARK    9  A    between atoms: C_15  and  C_17 
REMARK   10  A    between atoms: C_15  and  C_18 
REMARK   11  A    between atoms: C_20  and  N_23 
ROOT
HETATM    1  O           1     -28.332  -5.278 -19.088  0.00  0.00    -0.271 OA
HETATM    2  H           1     -27.458  -8.287 -18.905  0.00  0.00     0.163 HD
HETATM    3  N           1     -27.376  -7.297 -19.104  0.00  0.00    -0.345 N 
HETATM    4  C           1     -28.429  -6.459 -18.851  0.00  0.00     0.249 C 
ENDROOT
BRANCH   4   5
HETATM    5  C           1     -29.711  -7.010 -18.275  0.00  0.00     0.274 C 
BRANCH   5   6
HETATM    6  C           1     -30.164  -6.134 -17.115  0.00  0.00     0.044 C 
BRANCH   6   7
HETATM    7  C           1     -31.622  -5.742 -17.313  0.00  0.00     0.030 C 
BRANCH   7   8
HETATM    8  C           1     -31.895  -4.422 -16.603  0.00  0.00     0.230 C 
BRANCH   8   9
HETATM    9  N           1     -31.860  -3.301 -17.599  0.00  0.00    -0.079 N 
HETATM   10  H           1     -31.900  -2.387 -17.096  0.00  0.00     0.274 HD
HETATM   11  H           1     -32.680  -3.381 -18.241  0.00  0.00     0.274 HD
HETATM   12  H           1     -30.976  -3.356 -18.153  0.00  0.00     0.274 HD
ENDBRANCH   8   9
ENDBRANCH   7   8
ENDBRANCH   6   7
ENDBRANCH   5   6
BRANCH   5  13
HETATM   13  N           1     -29.477  -8.408 -17.784  0.00  0.00    -0.067 N 
HETATM   14  H           1     -28.456  -8.623 -17.821  0.00  0.00     0.275 HD
HETATM   15  H           1     -29.815  -8.493 -16.799  0.00  0.00     0.275 HD
HETATM   16  H           1     -29.998  -9.082 -18.390  0.00  0.00     0.275 HD
ENDBRANCH   5  13
ENDBRANCH   4   5
BRANCH   3  17
HETATM   17  C           1     -26.145  -6.768 -19.657  0.00  0.00     0.186 C 
BRANCH  17  18
HETATM   18  C           1     -25.760  -7.566 -20.879  0.00  0.00     0.196 C 
HETATM   19  O           1     -24.675  -7.339 -21.457  0.00  0.00    -0.646 OA
HETATM   20  O           1     -26.526  -8.454 -21.312  0.00  0.00    -0.646 OA
ENDBRANCH  17  18
BRANCH  17  21
HETATM   21  C           1     -25.037  -6.865 -18.617  0.00  0.00     0.046 C 
BRANCH  21  22
HETATM   22  C           1     -25.562  -6.388 -17.269  0.00  0.00     0.116 C 
BRANCH  22  23
HETATM   23  C           1     -24.985  -7.247 -16.172  0.00  0.00     0.172 C 
HETATM   24  O           1     -25.249  -6.994 -14.976  0.00  0.00    -0.648 OA
HETATM   25  O           1     -24.244  -8.213 -16.458  0.00  0.00    -0.648 OA
ENDBRANCH  22  23
ENDBRANCH  21  22
ENDBRANCH  17  21
ENDBRANCH   3  17
TORSDOF 11
ENDMDL
MODEL 6
REMARK VINA RESULT:      -5.5     13.026     15.012
REMARK  11 active torsions:
REMARK  status: ('A' for Active; 'I' for Inactive)
REMARK    1  A    between atoms: C_4  and  C_5 
REMARK    2  A    between atoms: C_5  and  C_18 
REMARK    3  A    between atoms: C_5  and  N_13 
REMARK    4  A    between atoms: C_6  and  C_10 
REMARK    5  A    between atoms: C_6  and  C_9 
REMARK    6  A    between atoms: C_9  and  C_20 
REMARK    7  A    between atoms: C_10  and  C_19 
REMARK    8  A    between atoms: C_10  and  N_21 
REMARK       I    between atoms: N_13  and  C_19 
REMARK    9  A    between atoms: C_15  and  C_17 
REMARK   10  A    between atoms: C_15  and  C_18 
REMARK   11  A    between atoms: C_20  and  N_23 
ROOT
HETATM    1  O           1     -20.952  -7.050  -6.919  0.00  0.00    -0.271 OA
HETATM    2  H           1     -21.827  -4.093  -6.337  0.00  0.00     0.163 HD
HETATM    3  N           1     -21.598  -4.913  -6.887  0.00  0.00    -0.345 N 
HETATM    4  C           1     -21.225  -6.073  -6.263  0.00  0.00     0.249 C 
ENDROOT
BRANCH   4   5
HETATM    5  C           1     -21.157  -6.132  -4.756  0.00  0.00     0.274 C 
BRANCH   5   6
HETATM    6  C           1     -20.404  -7.385  -4.331  0.00  0.00     0.044 C 
BRANCH   6   7
HETATM    7  C           1     -21.353  -8.326  -3.603  0.00  0.00     0.030 C 
BRANCH   7   8
HETATM    8  C           1     -21.534  -9.600  -4.418  0.00  0.00     0.230 C 
BRANCH   8   9
HETATM    9  N           1     -20.481  -9.664  -5.485  0.00  0.00    -0.079 N 
HETATM   10  H           1     -19.539  -9.532  -5.054  0.00  0.00     0.274 HD
HETATM   11  H           1     -20.651  -8.910  -6.188  0.00  0.00     0.274 HD
HETATM   12  H           1     -20.521 -10.596  -5.957  0.00  0.00     0.274 HD
ENDBRANCH   8   9
ENDBRANCH   7   8
ENDBRANCH   6   7
ENDBRANCH   5   6
BRANCH   5  13
HETATM   13  N           1     -22.547  -6.169  -4.194  0.00  0.00    -0.067 N 
HETATM   14  H           1     -22.506  -6.420  -3.181  0.00  0.00     0.275 HD
HETATM   15  H           1     -22.992  -5.230  -4.303  0.00  0.00     0.275 HD
HETATM   16  H           1     -23.111  -6.883  -4.709  0.00  0.00     0.275 HD
ENDBRANCH   5  13
ENDBRANCH   4   5
BRANCH   3  17
HETATM   17  C           1     -21.664  -4.855  -8.334  0.00  0.00     0.186 C 
BRANCH  17  18
HETATM   18  C           1     -20.329  -4.414  -8.880  0.00  0.00     0.196 C 
HETATM   19  O           1     -19.588  -3.674  -8.197  0.00  0.00    -0.646 OA
HETATM   20  O           1     -19.962  -4.790 -10.015  0.00  0.00    -0.646 OA
ENDBRANCH  17  18
BRANCH  17  21
HETATM   21  C           1     -22.739  -3.862  -8.755  0.00  0.00     0.046 C 
BRANCH  21  22
HETATM   22  C           1     -23.425  -4.360 -10.020  0.00  0.00     0.116 C 
BRANCH  22  23
HETATM   23  C           1     -24.474  -3.364 -10.448  0.00  0.00     0.172 C 
HETATM   24  O           1     -24.532  -2.991 -11.640  0.00  0.00    -0.648 OA
HETATM   25  O           1     -25.286  -2.911  -9.612  0.00  0.00    -0.648 OA
ENDBRANCH  22  23
ENDBRANCH  21  22
ENDBRANCH  17  21
ENDBRANCH   3  17
TORSDOF 11
ENDMDL
MODEL 7
REMARK VINA RESULT:      -5.4     13.241     15.217
REMARK  11 active torsions:
REMARK  status: ('A' for Active; 'I' for Inactive)
REMARK    1  A    between atoms: C_4  and  C_5 
REMARK    2  A    between atoms: C_5  and  C_18 
REMARK    3  A    between atoms: C_5  and  N_13 
REMARK    4  A    between atoms: C_6  and  C_10 
REMARK    5  A    between atoms: C_6  and  C_9 
REMARK    6  A    between atoms: C_9  and  C_20 
REMARK    7  A    between atoms: C_10  and  C_19 
REMARK    8  A    between atoms: C_10  and  N_21 
REMARK       I    between atoms: N_13  and  C_19 
REMARK    9  A    between atoms: C_15  and  C_17 
REMARK   10  A    between atoms: C_15  and  C_18 
REMARK   11  A    between atoms: C_20  and  N_23 
ROOT
HETATM    1  O           1     -21.017  -7.147  -6.842  0.00  0.00    -0.271 OA
HETATM    2  H           1     -21.781  -4.169  -6.213  0.00  0.00     0.163 HD
HETATM    3  N           1     -21.591  -4.990  -6.776  0.00  0.00    -0.345 N 
HETATM    4  C           1     -21.243  -6.168  -6.171  0.00  0.00     0.249 C 
ENDROOT
BRANCH   4   5
HETATM    5  C           1     -21.143  -6.244  -4.667  0.00  0.00     0.274 C 
BRANCH   5   6
HETATM    6  C           1     -20.530  -7.579  -4.266  0.00  0.00     0.044 C 
BRANCH   6   7
HETATM    7  C           1     -21.283  -8.145  -3.069  0.00  0.00     0.030 C 
BRANCH   7   8
HETATM    8  C           1     -20.407  -8.052  -1.827  0.00  0.00     0.230 C 
BRANCH   8   9
HETATM    9  N           1     -21.275  -7.996  -0.605  0.00  0.00    -0.079 N 
HETATM   10  H           1     -20.744  -7.557   0.181  0.00  0.00     0.274 HD
HETATM   11  H           1     -21.558  -8.964  -0.334  0.00  0.00     0.274 HD
HETATM   12  H           1     -22.128  -7.427  -0.810  0.00  0.00     0.274 HD
ENDBRANCH   8   9
ENDBRANCH   7   8
ENDBRANCH   6   7
ENDBRANCH   5   6
BRANCH   5  13
HETATM   13  N           1     -22.513  -6.122  -4.068  0.00  0.00    -0.067 N 
HETATM   14  H           1     -23.041  -7.010  -4.226  0.00  0.00     0.275 HD
HETATM   15  H           1     -22.431  -5.943  -3.042  0.00  0.00     0.275 HD
HETATM   16  H           1     -23.021  -5.329  -4.521  0.00  0.00     0.275 HD
ENDBRANCH   5  13
ENDBRANCH   4   5
BRANCH   3  17
HETATM   17  C           1     -21.688  -4.916  -8.220  0.00  0.00     0.186 C 
BRANCH  17  18
HETATM   18  C           1     -20.372  -4.444  -8.788  0.00  0.00     0.196 C 
HETATM   19  O           1     -20.012  -4.818  -9.925  0.00  0.00    -0.646 OA
HETATM   20  O           1     -19.643  -3.677  -8.122  0.00  0.00    -0.646 OA
ENDBRANCH  17  18
BRANCH  17  21
HETATM   21  C           1     -22.789  -3.939  -8.607  0.00  0.00     0.046 C 
BRANCH  21  22
HETATM   22  C           1     -23.366  -4.332  -9.961  0.00  0.00     0.116 C 
BRANCH  22  23
HETATM   23  C           1     -24.502  -3.403 -10.312  0.00  0.00     0.172 C 
HETATM   24  O           1     -25.137  -2.822  -9.405  0.00  0.00    -0.648 OA
HETATM   25  O           1     -24.809  -3.215 -11.509  0.00  0.00    -0.648 OA
ENDBRANCH  22  23
ENDBRANCH  21  22
ENDBRANCH  17  21
ENDBRANCH   3  17
TORSDOF 11
ENDMDL
MODEL 8
REMARK VINA RESULT:      -5.4     14.912     17.564
REMARK  11 active torsions:
REMARK  status: ('A' for Active; 'I' for Inactive)
REMARK    1  A    between atoms: C_4  and  C_5 
REMARK    2  A    between atoms: C_5  and  C_18 
REMARK    3  A    between atoms: C_5  and  N_13 
REMARK    4  A    between atoms: C_6  and  C_10 
REMARK    5  A    between atoms: C_6  and  C_9 
REMARK    6  A    between atoms: C_9  and  C_20 
REMARK    7  A    between atoms: C_10  and  C_19 
REMARK    8  A    between atoms: C_10  and  N_21 
REMARK       I    between atoms: N_13  and  C_19 
REMARK    9  A    between atoms: C_15  and  C_17 
REMARK   10  A    between atoms: C_15  and  C_18 
REMARK   11  A    between atoms: C_20  and  N_23 
ROOT
HETATM    1  O           1     -22.573  -5.574  -5.748  0.00  0.00    -0.271 OA
HETATM    2  H           1     -19.755  -6.454  -4.686  0.00  0.00     0.163 HD
HETATM    3  N           1     -20.764  -6.451  -4.777  0.00  0.00    -0.345 N 
HETATM    4  C           1     -21.370  -5.578  -5.640  0.00  0.00     0.249 C 
ENDROOT
BRANCH   4   5
HETATM    5  C           1     -20.536  -4.621  -6.456  0.00  0.00     0.274 C 
BRANCH   5   6
HETATM    6  C           1     -21.452  -3.695  -7.245  0.00  0.00     0.044 C 
BRANCH   6   7
HETATM    7  C           1     -21.443  -4.100  -8.712  0.00  0.00     0.030 C 
BRANCH   7   8
HETATM    8  C           1     -22.871  -4.342  -9.182  0.00  0.00     0.230 C 
BRANCH   8   9
HETATM    9  N           1     -23.824  -4.045  -8.063  0.00  0.00    -0.079 N 
HETATM   10  H           1     -23.813  -3.021  -7.858  0.00  0.00     0.274 HD
HETATM   11  H           1     -23.535  -4.574  -7.210  0.00  0.00     0.274 HD
HETATM   12  H           1     -24.789  -4.334  -8.342  0.00  0.00     0.274 HD
ENDBRANCH   8   9
ENDBRANCH   7   8
ENDBRANCH   6   7
ENDBRANCH   5   6
BRANCH   5  13
HETATM   13  N           1     -19.671  -5.397  -7.405  0.00  0.00    -0.067 N 
HETATM   14  H           1     -20.030  -6.375  -7.482  0.00  0.00     0.275 HD
HETATM   15  H           1     -19.692  -4.943  -8.346  0.00  0.00     0.275 HD
HETATM   16  H           1     -18.689  -5.412  -7.047  0.00  0.00     0.275 HD
ENDBRANCH   5  13
ENDBRANCH   4   5
BRANCH   3  17
HETATM   17  C           1     -21.564  -7.370  -3.992  0.00  0.00     0.186 C 
BRANCH  17  18
HETATM   18  C           1     -21.660  -6.867  -2.573  0.00  0.00     0.196 C 
HETATM   19  O           1     -20.979  -7.404  -1.672  0.00  0.00    -0.646 OA
HETATM   20  O           1     -22.420  -5.913  -2.298  0.00  0.00    -0.646 OA
ENDBRANCH  17  18
BRANCH  17  21
HETATM   21  C           1     -20.913  -8.747  -4.001  0.00  0.00     0.046 C 
BRANCH  21  22
HETATM   22  C           1     -19.641  -8.702  -4.837  0.00  0.00     0.116 C 
BRANCH  22  23
HETATM   23  C           1     -18.492  -9.260  -4.035  0.00  0.00     0.172 C 
HETATM   24  O           1     -18.547  -9.268  -2.786  0.00  0.00    -0.648 OA
HETATM   25  O           1     -17.484  -9.715  -4.618  0.00  0.00    -0.648 OA
ENDBRANCH  22  23
ENDBRANCH  21  22
ENDBRANCH  17  21
ENDBRANCH   3  17
TORSDOF 11
ENDMDL
MODEL 9
REMARK VINA RESULT:      -5.0     25.134     26.501
REMARK  11 active torsions:
REMARK  status: ('A' for Active; 'I' for Inactive)
REMARK    1  A    between atoms: C_4  and  C_5 
REMARK    2  A    between atoms: C_5  and  C_18 
REMARK    3  A    between atoms: C_5  and  N_13 
REMARK    4  A    between atoms: C_6  and  C_10 
REMARK    5  A    between atoms: C_6  and  C_9 
REMARK    6  A    between atoms: C_9  and  C_20 
REMARK    7  A    between atoms: C_10  and  C_19 
REMARK    8  A    between atoms: C_10  and  N_21 
REMARK       I    between atoms: N_13  and  C_19 
REMARK    9  A    between atoms: C_15  and  C_17 
REMARK   10  A    between atoms: C_15  and  C_18 
REMARK   11  A    between atoms: C_20  and  N_23 
ROOT
HETATM    1  O           1     -13.150   6.335 -19.868  0.00  0.00    -0.271 OA
HETATM    2  H           1     -12.949   7.333 -22.836  0.00  0.00     0.163 HD
HETATM    3  N           1     -12.778   7.318 -21.838  0.00  0.00    -0.345 N 
HETATM    4  C           1     -13.355   6.352 -21.058  0.00  0.00     0.249 C 
ENDROOT
BRANCH   4   5
HETATM    5  C           1     -14.248   5.310 -21.686  0.00  0.00     0.274 C 
BRANCH   5   6
HETATM    6  C           1     -13.390   4.212 -22.302  0.00  0.00     0.044 C 
BRANCH   6   7
HETATM    7  C           1     -13.322   3.026 -21.350  0.00  0.00     0.030 C 
BRANCH   7   8
HETATM    8  C           1     -11.869   2.753 -20.982  0.00  0.00     0.230 C 
BRANCH   8   9
HETATM    9  N           1     -11.472   3.627 -19.829  0.00  0.00    -0.079 N 
HETATM   10  H           1     -10.810   3.108 -19.210  0.00  0.00     0.274 HD
HETATM   11  H           1     -12.323   3.892 -19.284  0.00  0.00     0.274 HD
HETATM   12  H           1     -11.007   4.489 -20.192  0.00  0.00     0.274 HD
ENDBRANCH   8   9
ENDBRANCH   7   8
ENDBRANCH   6   7
ENDBRANCH   5   6
BRANCH   5  13
HETATM   13  N           1     -15.086   5.948 -22.754  0.00  0.00    -0.067 N 
HETATM   14  H           1     -15.278   6.942 -22.498  0.00  0.00     0.275 HD
HETATM   15  H           1     -14.575   5.915 -23.665  0.00  0.00     0.275 HD
HETATM   16  H           1     -15.990   5.430 -22.843  0.00  0.00     0.275 HD
ENDBRANCH   5  13
ENDBRANCH   4   5
BRANCH   3  17
HETATM   17  C           1     -11.920   8.321 -21.235  0.00  0.00     0.186 C 
BRANCH  17  18
HETATM   18  C           1     -12.525   9.688 -21.441  0.00  0.00     0.196 C 
HETATM   19  O           1     -11.824  10.711 -21.283  0.00  0.00    -0.646 OA
HETATM   20  O           1     -13.726   9.797 -21.770  0.00  0.00    -0.646 OA
ENDBRANCH  17  18
BRANCH  17  21
HETATM   21  C           1     -10.544   8.270 -21.886  0.00  0.00     0.046 C 
BRANCH  21  22
HETATM   22  C           1      -9.505   7.870 -20.848  0.00  0.00     0.116 C 
BRANCH  22  23
HETATM   23  C           1      -9.552   6.377 -20.639  0.00  0.00     0.172 C 
HETATM   24  O           1      -9.157   5.884 -19.560  0.00  0.00    -0.648 OA
HETATM   25  O           1      -9.987   5.632 -21.543  0.00  0.00    -0.648 OA
ENDBRANCH  22  23
ENDBRANCH  21  22
ENDBRANCH  17  21
ENDBRANCH   3  17
TORSDOF 11
ENDMDL
