MODEL 1
REMARK VINA RESULT:      -6.3      0.000      0.000
REMARK  8 active torsions:
REMARK  status: ('A' for Active; 'I' for Inactive)
REMARK    1  A    between atoms: C_1  and  C_2 
REMARK    2  A    between atoms: C_1  and  C_20 
REMARK    3  A    between atoms: C_1  and  N_17 
REMARK    4  A    between atoms: C_2  and  Se_3 
REMARK       I    between atoms: N_17  and  C_21 
REMARK    5  A    between atoms: C_18  and  C_23 
REMARK    6  A    between atoms: C_18  and  C_19 
REMARK    7  A    between atoms: C_21  and  C_23 
REMARK    8  A    between atoms: N_22  and  C_23 
ROOT
HETATM    1  C           1     -34.089  -4.058 -12.573  0.00  0.00     0.280 C 
ENDROOT
BRANCH   1   2
HETATM    2  C           1     -33.077  -4.761 -11.677  0.00  0.00     0.101 C 
BRANCH   2   3
HETATM    3  C           1     -33.755  -5.865 -10.927  0.00  0.00     0.028 A 
HETATM    4  N           1     -33.300  -7.155 -10.860  0.00  0.00    -0.355 N 
HETATM    5  C           1     -34.173  -7.793 -10.115  0.00  0.00     0.180 A 
ATOM      6  HN          1     -32.462  -7.539 -11.297  1.00  0.00     0.166 HD
HETATM    7  N           1     -35.175  -6.963  -9.698  0.00  0.00    -0.360 N 
HETATM    8  H           1     -35.991  -7.229  -9.093  0.00  0.00     0.166 HD
HETATM    9  C           1     -34.919  -5.721 -10.212  0.00  0.00     0.114 A 
ENDBRANCH   2   3
ENDBRANCH   1   2
BRANCH   1  10
HETATM   10  C           1     -34.198  -2.608 -12.167  0.00  0.00     0.249 C 
HETATM   11  O           1     -33.679  -2.226 -11.146  0.00  0.00    -0.271 OA
HETATM   12  N           1     -34.887  -1.726 -12.955  0.00  0.00    -0.345 N 
HETATM   13  H           1     -35.323  -2.047 -13.811  0.00  0.00     0.163 HD
BRANCH  12  14
HETATM   14  C           1     -34.992  -0.334 -12.565  0.00  0.00     0.185 C 
BRANCH  14  15
HETATM   15  C           1     -35.009   0.542 -13.811  0.00  0.00     0.039 C 
BRANCH  15  16
HETATM   16 Se           1     -35.645  -0.501 -15.331  0.00  0.00     0.000 Se
HETATM   17  H           1     -37.068  -0.238 -15.063  0.00  0.00     0.000 HD
ENDBRANCH  15  16
ENDBRANCH  14  15
BRANCH  14  18
HETATM   18  C           1     -36.268  -0.125 -11.787  0.00  0.00     0.196 C 
HETATM   19  O           1     -36.246   0.506 -10.709  0.00  0.00    -0.646 OA
HETATM   20  O           1     -37.347  -0.584 -12.221  0.00  0.00    -0.646 OA
ENDBRANCH  14  18
ENDBRANCH  12  14
ENDBRANCH   1  10
BRANCH   1  21
HETATM   21  N           1     -33.637  -4.143 -14.001  0.00  0.00    -0.066 N 
HETATM   22  H           1     -32.595  -4.209 -14.032  0.00  0.00     0.275 HD
HETATM   23  H           1     -33.950  -3.290 -14.516  0.00  0.00     0.275 HD
HETATM   24  H           1     -34.054  -4.991 -14.447  0.00  0.00     0.275 HD
ENDBRANCH   1  21
TORSDOF 8
ENDMDL
MODEL 2
REMARK VINA RESULT:      -6.0      2.193      2.696
REMARK  8 active torsions:
REMARK  status: ('A' for Active; 'I' for Inactive)
REMARK    1  A    between atoms: C_1  and  C_2 
REMARK    2  A    between atoms: C_1  and  C_20 
REMARK    3  A    between atoms: C_1  and  N_17 
REMARK    4  A    between atoms: C_2  and  Se_3 
REMARK       I    between atoms: N_17  and  C_21 
REMARK    5  A    between atoms: C_18  and  C_23 
REMARK    6  A    between atoms: C_18  and  C_19 
REMARK    7  A    between atoms: C_21  and  C_23 
REMARK    8  A    between atoms: N_22  and  C_23 
ROOT
HETATM    1  C           1     -34.035  -2.813 -11.540  0.00  0.00     0.280 C 
ENDROOT
BRANCH   1   2
HETATM    2  C           1     -35.023  -3.697 -10.788  0.00  0.00     0.101 C 
BRANCH   2   3
HETATM    3  C           1     -34.505  -5.100 -10.745  0.00  0.00     0.028 A 
HETATM    4  N           1     -35.138  -6.145 -10.124  0.00  0.00    -0.355 N 
HETATM    5  C           1     -34.361  -7.186 -10.319  0.00  0.00     0.180 A 
ATOM      6  HN          1     -36.024  -6.120  -9.619  1.00  0.00     0.166 HD
HETATM    7  N           1     -33.251  -6.853 -11.041  0.00  0.00    -0.360 N 
HETATM    8  H           1     -32.478  -7.504 -11.328  0.00  0.00     0.166 HD
HETATM    9  C           1     -33.330  -5.517 -11.322  0.00  0.00     0.114 A 
ENDBRANCH   2   3
ENDBRANCH   1   2
BRANCH   1  10
HETATM   10  C           1     -34.710  -2.226 -12.755  0.00  0.00     0.249 C 
HETATM   11  O           1     -34.664  -2.809 -13.812  0.00  0.00    -0.271 OA
HETATM   12  N           1     -35.372  -1.031 -12.661  0.00  0.00    -0.345 N 
HETATM   13  H           1     -35.410  -0.543 -11.775  0.00  0.00     0.163 HD
BRANCH  12  14
HETATM   14  C           1     -36.020  -0.467 -13.829  0.00  0.00     0.185 C 
BRANCH  14  15
HETATM   15  C           1     -37.463  -0.118 -13.490  0.00  0.00     0.039 C 
BRANCH  15  16
HETATM   16 Se           1     -37.704  -0.157 -11.556  0.00  0.00     0.000 Se
HETATM   17  H           1     -37.564   1.299 -11.393  0.00  0.00     0.000 HD
ENDBRANCH  15  16
ENDBRANCH  14  15
BRANCH  14  18
HETATM   18  C           1     -35.288   0.781 -14.255  0.00  0.00     0.196 C 
HETATM   19  O           1     -35.552   1.318 -15.353  0.00  0.00    -0.646 OA
HETATM   20  O           1     -34.416   1.280 -13.510  0.00  0.00    -0.646 OA
ENDBRANCH  14  18
ENDBRANCH  12  14
ENDBRANCH   1  10
BRANCH   1  21
HETATM   21  N           1     -33.572  -1.704 -10.641  0.00  0.00    -0.066 N 
HETATM   22  H           1     -32.530  -1.639 -10.680  0.00  0.00     0.275 HD
HETATM   23  H           1     -33.875  -1.902  -9.661  0.00  0.00     0.275 HD
HETATM   24  H           1     -33.991  -0.801 -10.959  0.00  0.00     0.275 HD
ENDBRANCH   1  21
TORSDOF 8
ENDMDL
MODEL 3
REMARK VINA RESULT:      -5.8     12.677     13.981
REMARK  8 active torsions:
REMARK  status: ('A' for Active; 'I' for Inactive)
REMARK    1  A    between atoms: C_1  and  C_2 
REMARK    2  A    between atoms: C_1  and  C_20 
REMARK    3  A    between atoms: C_1  and  N_17 
REMARK    4  A    between atoms: C_2  and  Se_3 
REMARK       I    between atoms: N_17  and  C_21 
REMARK    5  A    between atoms: C_18  and  C_23 
REMARK    6  A    between atoms: C_18  and  C_19 
REMARK    7  A    between atoms: C_21  and  C_23 
REMARK    8  A    between atoms: N_22  and  C_23 
ROOT
HETATM    1  C           1     -21.096  -5.624  -6.869  0.00  0.00     0.280 C 
ENDROOT
BRANCH   1   2
HETATM    2  C           1     -20.669  -5.132  -5.492  0.00  0.00     0.101 C 
BRANCH   2   3
HETATM    3  C           1     -21.076  -6.132  -4.455  0.00  0.00     0.028 A 
HETATM    4  N           1     -21.449  -5.818  -3.174  0.00  0.00    -0.355 N 
HETATM    5  C           1     -21.723  -6.968  -2.601  0.00  0.00     0.180 A 
ATOM      6  HN          1     -21.502  -4.890  -2.755  1.00  0.00     0.166 HD
HETATM    7  N           1     -21.541  -8.012  -3.463  0.00  0.00    -0.360 N 
HETATM    8  H           1     -21.693  -9.028  -3.248  0.00  0.00     0.166 HD
HETATM    9  C           1     -21.126  -7.490  -4.657  0.00  0.00     0.114 A 
ENDBRANCH   2   3
ENDBRANCH   1   2
BRANCH   1  10
HETATM   10  C           1     -21.691  -4.479  -7.651  0.00  0.00     0.249 C 
HETATM   11  O           1     -21.652  -3.358  -7.204  0.00  0.00    -0.271 OA
HETATM   12  N           1     -22.276  -4.711  -8.867  0.00  0.00    -0.345 N 
HETATM   13  H           1     -22.309  -5.651  -9.241  0.00  0.00     0.163 HD
BRANCH  12  14
HETATM   14  C           1     -22.847  -3.610  -9.619  0.00  0.00     0.185 C 
BRANCH  14  15
HETATM   15  C           1     -22.279  -3.612 -11.031  0.00  0.00     0.039 C 
BRANCH  15  16
HETATM   16 Se           1     -20.400  -4.126 -10.976  0.00  0.00     0.000 Se
HETATM   17  H           1     -20.484  -4.998 -12.159  0.00  0.00     0.000 HD
ENDBRANCH  15  16
ENDBRANCH  14  15
BRANCH  14  18
HETATM   18  C           1     -24.346  -3.769  -9.679  0.00  0.00     0.196 C 
HETATM   19  O           1     -24.848  -4.895  -9.885  0.00  0.00    -0.646 OA
HETATM   20  O           1     -25.087  -2.774  -9.523  0.00  0.00    -0.646 OA
ENDBRANCH  14  18
ENDBRANCH  12  14
ENDBRANCH   1  10
BRANCH   1  21
HETATM   21  N           1     -19.902  -6.161  -7.600  0.00  0.00    -0.066 N 
HETATM   22  H           1     -19.807  -7.184  -7.407  0.00  0.00     0.275 HD
HETATM   23  H           1     -19.043  -5.663  -7.276  0.00  0.00     0.275 HD
HETATM   24  H           1     -20.025  -6.011  -8.627  0.00  0.00     0.275 HD
ENDBRANCH   1  21
TORSDOF 8
ENDMDL
MODEL 4
REMARK VINA RESULT:      -5.8      2.393      3.246
REMARK  8 active torsions:
REMARK  status: ('A' for Active; 'I' for Inactive)
REMARK    1  A    between atoms: C_1  and  C_2 
REMARK    2  A    between atoms: C_1  and  C_20 
REMARK    3  A    between atoms: C_1  and  N_17 
REMARK    4  A    between atoms: C_2  and  Se_3 
REMARK       I    between atoms: N_17  and  C_21 
REMARK    5  A    between atoms: C_18  and  C_23 
REMARK    6  A    between atoms: C_18  and  C_19 
REMARK    7  A    between atoms: C_21  and  C_23 
REMARK    8  A    between atoms: N_22  and  C_23 
ROOT
HETATM    1  C           1     -34.532  -2.324 -11.950  0.00  0.00     0.280 C 
ENDROOT
BRANCH   1   2
HETATM    2  C           1     -35.331  -3.321 -11.120  0.00  0.00     0.101 C 
BRANCH   2   3
HETATM    3  C           1     -34.591  -4.620 -11.051  0.00  0.00     0.028 A 
HETATM    4  N           1     -35.067  -5.757 -10.452  0.00  0.00    -0.355 N 
HETATM    5  C           1     -34.123  -6.655 -10.611  0.00  0.00     0.180 A 
ATOM      6  HN          1     -35.965  -5.879  -9.982  1.00  0.00     0.166 HD
HETATM    7  N           1     -33.054  -6.142 -11.289  0.00  0.00    -0.360 N 
HETATM    8  H           1     -32.174  -6.655 -11.543  0.00  0.00     0.166 HD
HETATM    9  C           1     -33.341  -4.836 -11.578  0.00  0.00     0.114 A 
ENDBRANCH   2   3
ENDBRANCH   1   2
BRANCH   1  10
HETATM   10  C           1     -35.458  -1.604 -12.900  0.00  0.00     0.249 C 
HETATM   11  O           1     -36.604  -1.395 -12.583  0.00  0.00    -0.271 OA
HETATM   12  N           1     -34.998  -1.187 -14.121  0.00  0.00    -0.345 N 
HETATM   13  H           1     -34.036  -1.363 -14.385  0.00  0.00     0.163 HD
BRANCH  12  14
HETATM   14  C           1     -35.887  -0.495 -15.033  0.00  0.00     0.185 C 
BRANCH  14  15
HETATM   15  C           1     -35.512   0.980 -15.086  0.00  0.00     0.039 C 
BRANCH  15  16
HETATM   16 Se           1     -34.480   1.445 -13.499  0.00  0.00     0.000 Se
HETATM   17  H           1     -34.199   0.048 -13.131  0.00  0.00     0.000 HD
ENDBRANCH  15  16
ENDBRANCH  14  15
BRANCH  14  18
HETATM   18  C           1     -35.760  -1.096 -16.411  0.00  0.00     0.196 C 
HETATM   19  O           1     -36.626  -0.857 -17.280  0.00  0.00    -0.646 OA
HETATM   20  O           1     -34.787  -1.833 -16.684  0.00  0.00    -0.646 OA
ENDBRANCH  14  18
ENDBRANCH  12  14
ENDBRANCH   1  10
BRANCH   1  21
HETATM   21  N           1     -33.876  -1.328 -11.040  0.00  0.00    -0.066 N 
HETATM   22  H           1     -34.608  -0.727 -10.598  0.00  0.00     0.275 HD
HETATM   23  H           1     -33.221  -0.731 -11.593  0.00  0.00     0.275 HD
HETATM   24  H           1     -33.343  -1.833 -10.297  0.00  0.00     0.275 HD
ENDBRANCH   1  21
TORSDOF 8
ENDMDL
MODEL 5
REMARK VINA RESULT:      -5.8     12.165     14.148
REMARK  8 active torsions:
REMARK  status: ('A' for Active; 'I' for Inactive)
REMARK    1  A    between atoms: C_1  and  C_2 
REMARK    2  A    between atoms: C_1  and  C_20 
REMARK    3  A    between atoms: C_1  and  N_17 
REMARK    4  A    between atoms: C_2  and  Se_3 
REMARK       I    between atoms: N_17  and  C_21 
REMARK    5  A    between atoms: C_18  and  C_23 
REMARK    6  A    between atoms: C_18  and  C_19 
REMARK    7  A    between atoms: C_21  and  C_23 
REMARK    8  A    between atoms: N_22  and  C_23 
ROOT
HETATM    1  C           1     -23.834  -4.399  -9.839  0.00  0.00     0.280 C 
ENDROOT
BRANCH   1   2
HETATM    2  C           1     -23.805  -2.975 -10.378  0.00  0.00     0.101 C 
BRANCH   2   3
HETATM    3  C           1     -23.337  -2.988 -11.800  0.00  0.00     0.028 A 
HETATM    4  N           1     -24.019  -2.428 -12.849  0.00  0.00    -0.355 N 
HETATM    5  C           1     -23.276  -2.658 -13.907  0.00  0.00     0.180 A 
ATOM      6  HN          1     -24.913  -1.938 -12.815  1.00  0.00     0.166 HD
HETATM    7  N           1     -22.141  -3.344 -13.582  0.00  0.00    -0.360 N 
HETATM    8  H           1     -21.386  -3.648 -14.246  0.00  0.00     0.166 HD
HETATM    9  C           1     -22.167  -3.563 -12.232  0.00  0.00     0.114 A 
ENDBRANCH   2   3
ENDBRANCH   1   2
BRANCH   1  10
HETATM   10  C           1     -23.072  -4.462  -8.539  0.00  0.00     0.249 C 
HETATM   11  O           1     -23.627  -4.198  -7.499  0.00  0.00    -0.271 OA
HETATM   12  N           1     -21.749  -4.815  -8.537  0.00  0.00    -0.345 N 
HETATM   13  H           1     -21.283  -5.036  -9.409  0.00  0.00     0.163 HD
BRANCH  12  14
HETATM   14  C           1     -21.016  -4.875  -7.287  0.00  0.00     0.185 C 
BRANCH  14  15
HETATM   15  C           1     -20.968  -6.315  -6.795  0.00  0.00     0.039 C 
BRANCH  15  16
HETATM   16 Se           1     -21.681  -6.407  -4.983  0.00  0.00     0.000 Se
HETATM   17  H           1     -21.821  -4.949  -4.840  0.00  0.00     0.000 HD
ENDBRANCH  15  16
ENDBRANCH  14  15
BRANCH  14  18
HETATM   18  C           1     -19.611  -4.371  -7.505  0.00  0.00     0.196 C 
HETATM   19  O           1     -19.366  -3.592  -8.451  0.00  0.00    -0.646 OA
HETATM   20  O           1     -18.691  -4.733  -6.739  0.00  0.00    -0.646 OA
ENDBRANCH  14  18
ENDBRANCH  12  14
ENDBRANCH   1  10
BRANCH   1  21
HETATM   21  N           1     -25.257  -4.815  -9.605  0.00  0.00    -0.066 N 
HETATM   22  H           1     -25.636  -4.304  -8.776  0.00  0.00     0.275 HD
HETATM   23  H           1     -25.293  -5.844  -9.427  0.00  0.00     0.275 HD
HETATM   24  H           1     -25.830  -4.587 -10.448  0.00  0.00     0.275 HD
ENDBRANCH   1  21
TORSDOF 8
ENDMDL
MODEL 6
REMARK VINA RESULT:      -5.7     12.569     14.575
REMARK  8 active torsions:
REMARK  status: ('A' for Active; 'I' for Inactive)
REMARK    1  A    between atoms: C_1  and  C_2 
REMARK    2  A    between atoms: C_1  and  C_20 
REMARK    3  A    between atoms: C_1  and  N_17 
REMARK    4  A    between atoms: C_2  and  Se_3 
REMARK       I    between atoms: N_17  and  C_21 
REMARK    5  A    between atoms: C_18  and  C_23 
REMARK    6  A    between atoms: C_18  and  C_19 
REMARK    7  A    between atoms: C_21  and  C_23 
REMARK    8  A    between atoms: N_22  and  C_23 
ROOT
HETATM    1  C           1     -22.998  -4.266  -8.960  0.00  0.00     0.280 C 
ENDROOT
BRANCH   1   2
HETATM    2  C           1     -22.167  -3.503  -9.984  0.00  0.00     0.101 C 
BRANCH   2   3
HETATM    3  C           1     -22.882  -3.493 -11.299  0.00  0.00     0.028 A 
HETATM    4  N           1     -23.093  -2.374 -12.062  0.00  0.00    -0.355 N 
HETATM    5  C           1     -23.748  -2.795 -13.120  0.00  0.00     0.180 A 
ATOM      6  HN          1     -22.803  -1.419 -11.853  1.00  0.00     0.166 HD
HETATM    7  N           1     -23.968  -4.142 -13.070  0.00  0.00    -0.360 N 
HETATM    8  H           1     -24.467  -4.717 -13.792  0.00  0.00     0.166 HD
HETATM    9  C           1     -23.418  -4.604 -11.905  0.00  0.00     0.114 A 
ENDBRANCH   2   3
ENDBRANCH   1   2
BRANCH   1  10
HETATM   10  C           1     -22.182  -4.477  -7.707  0.00  0.00     0.249 C 
HETATM   11  O           1     -21.536  -3.567  -7.247  0.00  0.00    -0.271 OA
HETATM   12  N           1     -22.174  -5.701  -7.093  0.00  0.00    -0.345 N 
HETATM   13  H           1     -22.717  -6.464  -7.480  0.00  0.00     0.163 HD
BRANCH  12  14
HETATM   14  C           1     -21.391  -5.904  -5.890  0.00  0.00     0.185 C 
BRANCH  14  15
HETATM   15  C           1     -22.231  -6.644  -4.857  0.00  0.00     0.039 C 
BRANCH  15  16
HETATM   16 Se           1     -21.570  -6.234  -3.069  0.00  0.00     0.000 Se
HETATM   17  H           1     -20.167  -6.098  -3.494  0.00  0.00     0.000 HD
ENDBRANCH  15  16
ENDBRANCH  14  15
BRANCH  14  18
HETATM   18  C           1     -20.166  -6.720  -6.221  0.00  0.00     0.196 C 
HETATM   19  O           1     -19.934  -7.779  -5.598  0.00  0.00    -0.646 OA
HETATM   20  O           1     -19.384  -6.338  -7.118  0.00  0.00    -0.646 OA
ENDBRANCH  14  18
ENDBRANCH  12  14
ENDBRANCH   1  10
BRANCH   1  21
HETATM   21  N           1     -24.229  -3.476  -8.626  0.00  0.00    -0.066 N 
HETATM   22  H           1     -23.956  -2.502  -8.362  0.00  0.00     0.275 HD
HETATM   23  H           1     -24.727  -3.929  -7.827  0.00  0.00     0.275 HD
HETATM   24  H           1     -24.860  -3.448  -9.458  0.00  0.00     0.275 HD
ENDBRANCH   1  21
TORSDOF 8
ENDMDL
MODEL 7
REMARK VINA RESULT:      -5.6     13.430     15.399
REMARK  8 active torsions:
REMARK  status: ('A' for Active; 'I' for Inactive)
REMARK    1  A    between atoms: C_1  and  C_2 
REMARK    2  A    between atoms: C_1  and  C_20 
REMARK    3  A    between atoms: C_1  and  N_17 
REMARK    4  A    between atoms: C_2  and  Se_3 
REMARK       I    between atoms: N_17  and  C_21 
REMARK    5  A    between atoms: C_18  and  C_23 
REMARK    6  A    between atoms: C_18  and  C_19 
REMARK    7  A    between atoms: C_21  and  C_23 
REMARK    8  A    between atoms: N_22  and  C_23 
ROOT
HETATM    1  C           1     -21.341  -4.684  -6.823  0.00  0.00     0.280 C 
ENDROOT
BRANCH   1   2
HETATM    2  C           1     -21.509  -5.240  -8.231  0.00  0.00     0.101 C 
BRANCH   2   3
HETATM    3  C           1     -22.557  -4.454  -8.956  0.00  0.00     0.028 A 
HETATM    4  N           1     -23.735  -4.028  -8.401  0.00  0.00    -0.355 N 
HETATM    5  C           1     -24.359  -3.385  -9.361  0.00  0.00     0.180 A 
ATOM      6  HN          1     -24.058  -4.178  -7.445  1.00  0.00     0.166 HD
HETATM    7  N           1     -23.629  -3.380 -10.515  0.00  0.00    -0.360 N 
HETATM    8  H           1     -23.907  -2.934 -11.424  0.00  0.00     0.166 HD
HETATM    9  C           1     -22.469  -4.063 -10.271  0.00  0.00     0.114 A 
ENDBRANCH   2   3
ENDBRANCH   1   2
BRANCH   1  10
HETATM   10  C           1     -21.995  -5.616  -5.832  0.00  0.00     0.249 C 
HETATM   11  O           1     -23.197  -5.631  -5.721  0.00  0.00    -0.271 OA
HETATM   12  N           1     -21.226  -6.443  -5.059  0.00  0.00    -0.345 N 
HETATM   13  H           1     -20.217  -6.430  -5.153  0.00  0.00     0.163 HD
BRANCH  12  14
HETATM   14  C           1     -21.854  -7.339  -4.107  0.00  0.00     0.185 C 
BRANCH  14  15
HETATM   15  C           1     -21.239  -8.726  -4.233  0.00  0.00     0.039 C 
BRANCH  15  16
HETATM   16 Se           1     -19.488  -8.587  -5.079  0.00  0.00     0.000 Se
HETATM   17  H           1     -20.008  -7.990  -6.321  0.00  0.00     0.000 HD
ENDBRANCH  15  16
ENDBRANCH  14  15
BRANCH  14  18
HETATM   18  C           1     -21.636  -6.817  -2.709  0.00  0.00     0.196 C 
HETATM   19  O           1     -22.333  -5.873  -2.278  0.00  0.00    -0.646 OA
HETATM   20  O           1     -20.759  -7.330  -1.980  0.00  0.00    -0.646 OA
ENDBRANCH  14  18
ENDBRANCH  12  14
ENDBRANCH   1  10
BRANCH   1  21
HETATM   21  N           1     -19.879  -4.563  -6.504  0.00  0.00    -0.066 N 
HETATM   22  H           1     -19.764  -4.304  -5.498  0.00  0.00     0.275 HD
HETATM   23  H           1     -19.452  -3.824  -7.107  0.00  0.00     0.275 HD
HETATM   24  H           1     -19.407  -5.477  -6.686  0.00  0.00     0.275 HD
ENDBRANCH   1  21
TORSDOF 8
ENDMDL
MODEL 8
REMARK VINA RESULT:      -5.6     12.118     13.778
REMARK  8 active torsions:
REMARK  status: ('A' for Active; 'I' for Inactive)
REMARK    1  A    between atoms: C_1  and  C_2 
REMARK    2  A    between atoms: C_1  and  C_20 
REMARK    3  A    between atoms: C_1  and  N_17 
REMARK    4  A    between atoms: C_2  and  Se_3 
REMARK       I    between atoms: N_17  and  C_21 
REMARK    5  A    between atoms: C_18  and  C_23 
REMARK    6  A    between atoms: C_18  and  C_19 
REMARK    7  A    between atoms: C_21  and  C_23 
REMARK    8  A    between atoms: N_22  and  C_23 
ROOT
HETATM    1  C           1     -23.793  -4.324 -10.303  0.00  0.00     0.280 C 
ENDROOT
BRANCH   1   2
HETATM    2  C           1     -23.656  -2.872 -10.744  0.00  0.00     0.101 C 
BRANCH   2   3
HETATM    3  C           1     -23.350  -2.822 -12.209  0.00  0.00     0.028 A 
HETATM    4  N           1     -24.137  -2.209 -13.148  0.00  0.00    -0.355 N 
HETATM    5  C           1     -23.520  -2.394 -14.293  0.00  0.00     0.180 A 
ATOM      6  HN          1     -25.015  -1.714 -12.992  1.00  0.00     0.166 HD
HETATM    7  N           1     -22.364  -3.104 -14.128  0.00  0.00    -0.360 N 
HETATM    8  H           1     -21.693  -3.382 -14.885  0.00  0.00     0.166 HD
HETATM    9  C           1     -22.243  -3.386 -12.795  0.00  0.00     0.114 A 
ENDBRANCH   2   3
ENDBRANCH   1   2
BRANCH   1  10
HETATM   10  C           1     -22.622  -4.696  -9.427  0.00  0.00     0.249 C 
HETATM   11  O           1     -21.550  -4.941  -9.925  0.00  0.00    -0.271 OA
HETATM   12  N           1     -22.776  -4.758  -8.068  0.00  0.00    -0.345 N 
HETATM   13  H           1     -23.676  -4.552  -7.651  0.00  0.00     0.163 HD
BRANCH  12  14
HETATM   14  C           1     -21.651  -5.116  -7.226  0.00  0.00     0.185 C 
BRANCH  14  15
HETATM   15  C           1     -20.784  -3.887  -6.988  0.00  0.00     0.039 C 
BRANCH  15  16
HETATM   16 Se           1     -18.939  -4.288  -7.474  0.00  0.00     0.000 Se
HETATM   17  H           1     -18.600  -4.871  -6.165  0.00  0.00     0.000 HD
ENDBRANCH  15  16
ENDBRANCH  14  15
BRANCH  14  18
HETATM   18  C           1     -22.159  -5.636  -5.904  0.00  0.00     0.196 C 
HETATM   19  O           1     -23.387  -5.665  -5.674  0.00  0.00    -0.646 OA
HETATM   20  O           1     -21.351  -6.039  -5.039  0.00  0.00    -0.646 OA
ENDBRANCH  14  18
ENDBRANCH  12  14
ENDBRANCH   1  10
BRANCH   1  21
HETATM   21  N           1     -25.068  -4.493  -9.530  0.00  0.00    -0.066 N 
HETATM   22  H           1     -25.842  -3.992 -10.023  0.00  0.00     0.275 HD
HETATM   23  H           1     -24.949  -4.095  -8.571  0.00  0.00     0.275 HD
HETATM   24  H           1     -25.300  -5.509  -9.459  0.00  0.00     0.275 HD
ENDBRANCH   1  21
TORSDOF 8
ENDMDL
MODEL 9
REMARK VINA RESULT:      -5.2     13.621     15.675
REMARK  8 active torsions:
REMARK  status: ('A' for Active; 'I' for Inactive)
REMARK    1  A    between atoms: C_1  and  C_2 
REMARK    2  A    between atoms: C_1  and  C_20 
REMARK    3  A    between atoms: C_1  and  N_17 
REMARK    4  A    between atoms: C_2  and  Se_3 
REMARK       I    between atoms: N_17  and  C_21 
REMARK    5  A    between atoms: C_18  and  C_23 
REMARK    6  A    between atoms: C_18  and  C_19 
REMARK    7  A    between atoms: C_21  and  C_23 
REMARK    8  A    between atoms: N_22  and  C_23 
ROOT
HETATM    1  C           1     -22.348  -5.002  -7.392  0.00  0.00     0.280 C 
ENDROOT
BRANCH   1   2
HETATM    2  C           1     -21.665  -3.915  -8.212  0.00  0.00     0.101 C 
BRANCH   2   3
HETATM    3  C           1     -21.940  -4.139  -9.667  0.00  0.00     0.028 A 
HETATM    4  N           1     -23.188  -4.303 -10.207  0.00  0.00    -0.355 N 
HETATM    5  C           1     -22.990  -4.471 -11.494  0.00  0.00     0.180 A 
ATOM      6  HN          1     -24.082  -4.296  -9.714  1.00  0.00     0.166 HD
HETATM    7  N           1     -21.661  -4.423 -11.806  0.00  0.00    -0.360 N 
HETATM    8  H           1     -21.243  -4.528 -12.763  0.00  0.00     0.166 HD
HETATM    9  C           1     -20.974  -4.210 -10.642  0.00  0.00     0.114 A 
ENDBRANCH   2   3
ENDBRANCH   1   2
BRANCH   1  10
HETATM   10  C           1     -21.433  -5.437  -6.273  0.00  0.00     0.249 C 
HETATM   11  O           1     -20.516  -4.729  -5.933  0.00  0.00    -0.271 OA
HETATM   12  N           1     -21.643  -6.635  -5.644  0.00  0.00    -0.345 N 
HETATM   13  H           1     -22.413  -7.228  -5.929  0.00  0.00     0.163 HD
BRANCH  12  14
HETATM   14  C           1     -20.765  -7.053  -4.568  0.00  0.00     0.185 C 
BRANCH  14  15
HETATM   15  C           1     -21.596  -7.625  -3.428  0.00  0.00     0.039 C 
BRANCH  15  16
HETATM   16 Se           1     -21.968  -6.222  -2.127  0.00  0.00     0.000 Se
HETATM   17  H           1     -20.993  -5.277  -2.695  0.00  0.00     0.000 HD
ENDBRANCH  15  16
ENDBRANCH  14  15
BRANCH  14  18
HETATM   18  C           1     -19.816  -8.109  -5.078  0.00  0.00     0.196 C 
HETATM   19  O           1     -19.587  -9.128  -4.391  0.00  0.00    -0.646 OA
HETATM   20  O           1     -19.258  -7.965  -6.187  0.00  0.00    -0.646 OA
ENDBRANCH  14  18
ENDBRANCH  12  14
ENDBRANCH   1  10
BRANCH   1  21
HETATM   21  N           1     -23.624  -4.465  -6.814  0.00  0.00    -0.066 N 
HETATM   22  H           1     -23.942  -5.088  -6.038  0.00  0.00     0.275 HD
HETATM   23  H           1     -24.356  -4.433  -7.559  0.00  0.00     0.275 HD
HETATM   24  H           1     -23.460  -3.502  -6.444  0.00  0.00     0.275 HD
ENDBRANCH   1  21
TORSDOF 8
ENDMDL
