MODEL 1
REMARK VINA RESULT:      -7.6      0.000      0.000
REMARK  9 active torsions:
REMARK  status: ('A' for Active; 'I' for Inactive)
REMARK    1  A    between atoms: C_2  and  C_4 
REMARK    2  A    between atoms: C_2  and  C_3 
REMARK    3  A    between atoms: C_4  and  C_19 
REMARK    4  A    between atoms: C_7  and  C_9 
REMARK    5  A    between atoms: C_9  and  C_26 
REMARK    6  A    between atoms: C_9  and  N_11 
REMARK       I    between atoms: N_11  and  C_29 
REMARK    7  A    between atoms: C_19  and  C_29 
REMARK    8  A    between atoms: C_19  and  N_25 
REMARK    9  A    between atoms: C_26  and  C_27 
ROOT
HETATM    1  C           1     -20.175  -7.307  -5.382  0.00  0.00     0.190 C 
ENDROOT
BRANCH   1   2
HETATM    2  C           1     -19.140  -8.401  -5.280  0.00  0.00     0.197 C 
HETATM    3  O           1     -18.571  -8.820  -6.311  0.00  0.00    -0.646 OA
HETATM    4  O           1     -18.852  -8.887  -4.166  0.00  0.00    -0.646 OA
ENDBRANCH   1   2
BRANCH   1   5
HETATM    5  C           1     -21.517  -7.829  -4.884  0.00  0.00     0.077 C 
BRANCH   5   6
HETATM    6  C           1     -21.786  -7.290  -3.514  0.00  0.00    -0.028 A 
HETATM    7  C           1     -21.852  -8.048  -2.313  0.00  0.00    -0.002 A 
HETATM    8  C           1     -22.124  -7.154  -1.277  0.00  0.00     0.042 A 
HETATM    9  C           1     -21.707  -9.415  -2.007  0.00  0.00     0.014 A 
HETATM   10  C           1     -22.258  -7.560   0.056  0.00  0.00     0.030 A 
HETATM   11  N           1     -22.217  -5.901  -1.839  0.00  0.00    -0.365 N 
HETATM   12  C           1     -22.109  -8.922   0.335  0.00  0.00     0.002 A 
HETATM   13  C           1     -21.838  -9.837  -0.679  0.00  0.00     0.001 A 
HETATM   14  H           1     -22.416  -5.017  -1.307  0.00  0.00     0.165 HD
HETATM   15  C           1     -22.015  -5.972  -3.192  0.00  0.00     0.096 A 
ENDBRANCH   5   6
ENDBRANCH   1   5
BRANCH   1  16
HETATM   16  N           1     -20.303  -6.889  -6.764  0.00  0.00    -0.344 N 
HETATM   17  H           1     -20.361  -7.583  -7.499  0.00  0.00     0.163 HD
HETATM   18  C           1     -20.345  -5.557  -7.076  0.00  0.00     0.249 C 
HETATM   19  O           1     -19.321  -4.958  -7.306  0.00  0.00    -0.271 OA
BRANCH  18  20
HETATM   20  C           1     -21.669  -4.837  -7.131  0.00  0.00     0.275 C 
BRANCH  20  21
HETATM   21  C           1     -22.274  -4.989  -8.521  0.00  0.00     0.053 C 
BRANCH  21  22
HETATM   22  C           1     -22.795  -3.641  -8.999  0.00  0.00     0.115 C 
BRANCH  22  23
HETATM   23  C           1     -24.179  -3.810  -9.575  0.00  0.00     0.172 C 
HETATM   24  O           1     -24.521  -4.907 -10.067  0.00  0.00    -0.648 OA
HETATM   25  O           1     -24.983  -2.854  -9.561  0.00  0.00    -0.648 OA
ENDBRANCH  22  23
ENDBRANCH  21  22
ENDBRANCH  20  21
BRANCH  20  26
HETATM   26  N           1     -21.460  -3.381  -6.835  0.00  0.00    -0.066 N 
HETATM   27  H           1     -21.298  -3.253  -5.811  0.00  0.00     0.275 HD
HETATM   28  H           1     -20.627  -3.035  -7.364  0.00  0.00     0.275 HD
HETATM   29  H           1     -22.306  -2.841  -7.124  0.00  0.00     0.275 HD
ENDBRANCH  20  26
ENDBRANCH  18  20
ENDBRANCH   1  16
TORSDOF 9
ENDMDL
MODEL 2
REMARK VINA RESULT:      -7.4      2.583      8.184
REMARK  9 active torsions:
REMARK  status: ('A' for Active; 'I' for Inactive)
REMARK    1  A    between atoms: C_2  and  C_4 
REMARK    2  A    between atoms: C_2  and  C_3 
REMARK    3  A    between atoms: C_4  and  C_19 
REMARK    4  A    between atoms: C_7  and  C_9 
REMARK    5  A    between atoms: C_9  and  C_26 
REMARK    6  A    between atoms: C_9  and  N_11 
REMARK       I    between atoms: N_11  and  C_29 
REMARK    7  A    between atoms: C_19  and  C_29 
REMARK    8  A    between atoms: C_19  and  N_25 
REMARK    9  A    between atoms: C_26  and  C_27 
ROOT
HETATM    1  C           1     -21.489  -4.946  -7.447  0.00  0.00     0.190 C 
ENDROOT
BRANCH   1   2
HETATM    2  C           1     -20.030  -5.323  -7.530  0.00  0.00     0.197 C 
HETATM    3  O           1     -19.697  -6.527  -7.575  0.00  0.00    -0.646 OA
HETATM    4  O           1     -19.154  -4.432  -7.552  0.00  0.00    -0.646 OA
ENDBRANCH   1   2
BRANCH   1   5
HETATM    5  C           1     -21.706  -3.601  -8.126  0.00  0.00     0.077 C 
BRANCH   5   6
HETATM    6  C           1     -22.879  -3.690  -9.051  0.00  0.00    -0.028 A 
HETATM    7  C           1     -22.859  -3.466 -10.456  0.00  0.00    -0.002 A 
HETATM    8  C           1     -24.161  -3.653 -10.920  0.00  0.00     0.042 A 
HETATM    9  C           1     -21.853  -3.119 -11.378  0.00  0.00     0.014 A 
HETATM   10  C           1     -24.509  -3.511 -12.269  0.00  0.00     0.030 A 
HETATM   11  N           1     -24.936  -3.979  -9.830  0.00  0.00    -0.365 N 
HETATM   12  C           1     -23.494  -3.167 -13.166  0.00  0.00     0.002 A 
HETATM   13  C           1     -22.185  -2.973 -12.730  0.00  0.00     0.001 A 
HETATM   14  H           1     -25.966  -4.180  -9.864  0.00  0.00     0.165 HD
HETATM   15  C           1     -24.171  -4.005  -8.695  0.00  0.00     0.096 A 
ENDBRANCH   5   6
ENDBRANCH   1   5
BRANCH   1  16
HETATM   16  N           1     -21.886  -4.855  -6.056  0.00  0.00    -0.344 N 
HETATM   17  H           1     -22.619  -4.213  -5.781  0.00  0.00     0.163 HD
HETATM   18  C           1     -21.270  -5.635  -5.115  0.00  0.00     0.249 C 
HETATM   19  O           1     -20.284  -5.230  -4.546  0.00  0.00    -0.271 OA
BRANCH  18  20
HETATM   20  C           1     -21.821  -7.001  -4.790  0.00  0.00     0.275 C 
BRANCH  20  21
HETATM   21  C           1     -21.382  -7.407  -3.389  0.00  0.00     0.053 C 
BRANCH  21  22
HETATM   22  C           1     -22.094  -6.537  -2.362  0.00  0.00     0.115 C 
BRANCH  22  23
HETATM   23  C           1     -22.097  -7.236  -1.024  0.00  0.00     0.172 C 
HETATM   24  O           1     -21.081  -7.852  -0.639  0.00  0.00    -0.648 OA
HETATM   25  O           1     -23.117  -7.200  -0.303  0.00  0.00    -0.648 OA
ENDBRANCH  22  23
ENDBRANCH  21  22
ENDBRANCH  20  21
BRANCH  20  26
HETATM   26  N           1     -21.303  -7.999  -5.783  0.00  0.00    -0.066 N 
HETATM   27  H           1     -20.447  -8.459  -5.400  0.00  0.00     0.275 HD
HETATM   28  H           1     -22.035  -8.723  -5.964  0.00  0.00     0.275 HD
HETATM   29  H           1     -21.066  -7.511  -6.676  0.00  0.00     0.275 HD
ENDBRANCH  20  26
ENDBRANCH  18  20
ENDBRANCH   1  16
TORSDOF 9
ENDMDL
MODEL 3
REMARK VINA RESULT:      -7.3      2.698      7.926
REMARK  9 active torsions:
REMARK  status: ('A' for Active; 'I' for Inactive)
REMARK    1  A    between atoms: C_2  and  C_4 
REMARK    2  A    between atoms: C_2  and  C_3 
REMARK    3  A    between atoms: C_4  and  C_19 
REMARK    4  A    between atoms: C_7  and  C_9 
REMARK    5  A    between atoms: C_9  and  C_26 
REMARK    6  A    between atoms: C_9  and  N_11 
REMARK       I    between atoms: N_11  and  C_29 
REMARK    7  A    between atoms: C_19  and  C_29 
REMARK    8  A    between atoms: C_19  and  N_25 
REMARK    9  A    between atoms: C_26  and  C_27 
ROOT
HETATM    1  C           1     -21.865  -6.631  -5.736  0.00  0.00     0.190 C 
ENDROOT
BRANCH   1   2
HETATM    2  C           1     -20.911  -7.795  -5.617  0.00  0.00     0.197 C 
HETATM    3  O           1     -21.355  -8.960  -5.530  0.00  0.00    -0.646 OA
HETATM    4  O           1     -19.678  -7.594  -5.604  0.00  0.00    -0.646 OA
ENDBRANCH   1   2
BRANCH   1   5
HETATM    5  C           1     -21.132  -5.432  -6.322  0.00  0.00     0.077 C 
BRANCH   5   6
HETATM    6  C           1     -21.973  -4.804  -7.389  0.00  0.00    -0.028 A 
HETATM    7  C           1     -21.554  -4.494  -8.713  0.00  0.00    -0.002 A 
HETATM    8  C           1     -22.647  -3.925  -9.367  0.00  0.00     0.042 A 
HETATM    9  C           1     -20.345  -4.644  -9.418  0.00  0.00     0.014 A 
HETATM   10  C           1     -22.591  -3.496 -10.699  0.00  0.00     0.030 A 
HETATM   11  N           1     -23.687  -3.894  -8.465  0.00  0.00    -0.365 N 
HETATM   12  C           1     -21.380  -3.655 -11.378  0.00  0.00     0.002 A 
HETATM   13  C           1     -20.272  -4.221 -10.750  0.00  0.00     0.001 A 
HETATM   14  H           1     -24.647  -3.519  -8.667  0.00  0.00     0.165 HD
HETATM   15  C           1     -23.290  -4.424  -7.266  0.00  0.00     0.096 A 
ENDBRANCH   5   6
ENDBRANCH   1   5
BRANCH   1  16
HETATM   16  N           1     -22.377  -6.290  -4.424  0.00  0.00    -0.344 N 
HETATM   17  H           1     -23.331  -5.968  -4.322  0.00  0.00     0.163 HD
HETATM   18  C           1     -21.572  -6.404  -3.323  0.00  0.00     0.249 C 
HETATM   19  O           1     -20.896  -5.467  -2.969  0.00  0.00    -0.271 OA
BRANCH  18  20
HETATM   20  C           1     -21.526  -7.701  -2.553  0.00  0.00     0.275 C 
BRANCH  20  21
HETATM   21  C           1     -21.933  -7.447  -1.106  0.00  0.00     0.053 C 
BRANCH  21  22
HETATM   22  C           1     -22.376  -8.755  -0.466  0.00  0.00     0.115 C 
BRANCH  22  23
HETATM   23  C           1     -21.257  -9.305   0.384  0.00  0.00     0.172 C 
HETATM   24  O           1     -21.056  -8.842   1.528  0.00  0.00    -0.648 OA
HETATM   25  O           1     -20.531 -10.223  -0.054  0.00  0.00    -0.648 OA
ENDBRANCH  22  23
ENDBRANCH  21  22
ENDBRANCH  20  21
BRANCH  20  26
HETATM   26  N           1     -20.133  -8.255  -2.589  0.00  0.00    -0.066 N 
HETATM   27  H           1     -19.815  -8.334  -3.580  0.00  0.00     0.275 HD
HETATM   28  H           1     -19.491  -7.616  -2.067  0.00  0.00     0.275 HD
HETATM   29  H           1     -20.122  -9.200  -2.143  0.00  0.00     0.275 HD
ENDBRANCH  20  26
ENDBRANCH  18  20
ENDBRANCH   1  16
TORSDOF 9
ENDMDL
MODEL 4
REMARK VINA RESULT:      -7.2      1.812      2.818
REMARK  9 active torsions:
REMARK  status: ('A' for Active; 'I' for Inactive)
REMARK    1  A    between atoms: C_2  and  C_4 
REMARK    2  A    between atoms: C_2  and  C_3 
REMARK    3  A    between atoms: C_4  and  C_19 
REMARK    4  A    between atoms: C_7  and  C_9 
REMARK    5  A    between atoms: C_9  and  C_26 
REMARK    6  A    between atoms: C_9  and  N_11 
REMARK       I    between atoms: N_11  and  C_29 
REMARK    7  A    between atoms: C_19  and  C_29 
REMARK    8  A    between atoms: C_19  and  N_25 
REMARK    9  A    between atoms: C_26  and  C_27 
ROOT
HETATM    1  C           1     -20.455  -5.295  -5.866  0.00  0.00     0.190 C 
ENDROOT
BRANCH   1   2
HETATM    2  C           1     -19.454  -5.468  -6.982  0.00  0.00     0.197 C 
HETATM    3  O           1     -18.718  -4.514  -7.313  0.00  0.00    -0.646 OA
HETATM    4  O           1     -19.361  -6.564  -7.574  0.00  0.00    -0.646 OA
ENDBRANCH   1   2
BRANCH   1   5
HETATM    5  C           1     -21.314  -6.548  -5.754  0.00  0.00     0.077 C 
BRANCH   5   6
HETATM    6  C           1     -20.825  -7.390  -4.617  0.00  0.00    -0.028 A 
HETATM    7  C           1     -21.244  -7.292  -3.261  0.00  0.00    -0.002 A 
HETATM    8  C           1     -20.539  -8.258  -2.543  0.00  0.00     0.042 A 
HETATM    9  C           1     -22.157  -6.470  -2.575  0.00  0.00     0.014 A 
HETATM   10  C           1     -20.704  -8.445  -1.165  0.00  0.00     0.030 A 
HETATM   11  N           1     -19.725  -8.914  -3.439  0.00  0.00    -0.365 N 
HETATM   12  C           1     -21.616  -7.617  -0.506  0.00  0.00     0.002 A 
HETATM   13  C           1     -22.334  -6.644  -1.197  0.00  0.00     0.001 A 
HETATM   14  H           1     -19.071  -9.699  -3.194  0.00  0.00     0.165 HD
HETATM   15  C           1     -19.890  -8.397  -4.696  0.00  0.00     0.096 A 
ENDBRANCH   5   6
ENDBRANCH   1   5
BRANCH   1  16
HETATM   16  N           1     -21.303  -4.153  -6.149  0.00  0.00    -0.344 N 
HETATM   17  H           1     -21.173  -3.289  -5.640  0.00  0.00     0.163 HD
HETATM   18  C           1     -22.278  -4.245  -7.105  0.00  0.00     0.249 C 
HETATM   19  O           1     -23.389  -4.611  -6.802  0.00  0.00    -0.271 OA
BRANCH  18  20
HETATM   20  C           1     -21.965  -3.891  -8.538  0.00  0.00     0.275 C 
BRANCH  20  21
HETATM   21  C           1     -23.251  -3.507  -9.260  0.00  0.00     0.053 C 
BRANCH  21  22
HETATM   22  C           1     -23.046  -3.630 -10.763  0.00  0.00     0.115 C 
BRANCH  22  23
HETATM   23  C           1     -24.308  -3.216 -11.480  0.00  0.00     0.172 C 
HETATM   24  O           1     -25.395  -3.185 -10.863  0.00  0.00    -0.648 OA
HETATM   25  O           1     -24.267  -2.905 -12.689  0.00  0.00    -0.648 OA
ENDBRANCH  22  23
ENDBRANCH  21  22
ENDBRANCH  20  21
BRANCH  20  26
HETATM   26  N           1     -21.344  -5.073  -9.222  0.00  0.00    -0.066 N 
HETATM   27  H           1     -21.526  -5.017 -10.248  0.00  0.00     0.275 HD
HETATM   28  H           1     -20.313  -5.071  -9.050  0.00  0.00     0.275 HD
HETATM   29  H           1     -21.759  -5.953  -8.842  0.00  0.00     0.275 HD
ENDBRANCH  20  26
ENDBRANCH  18  20
ENDBRANCH   1  16
TORSDOF 9
ENDMDL
MODEL 5
REMARK VINA RESULT:      -7.2      2.150      2.820
REMARK  9 active torsions:
REMARK  status: ('A' for Active; 'I' for Inactive)
REMARK    1  A    between atoms: C_2  and  C_4 
REMARK    2  A    between atoms: C_2  and  C_3 
REMARK    3  A    between atoms: C_4  and  C_19 
REMARK    4  A    between atoms: C_7  and  C_9 
REMARK    5  A    between atoms: C_9  and  C_26 
REMARK    6  A    between atoms: C_9  and  N_11 
REMARK       I    between atoms: N_11  and  C_29 
REMARK    7  A    between atoms: C_19  and  C_29 
REMARK    8  A    between atoms: C_19  and  N_25 
REMARK    9  A    between atoms: C_26  and  C_27 
ROOT
HETATM    1  C           1     -21.317  -7.042  -6.048  0.00  0.00     0.190 C 
ENDROOT
BRANCH   1   2
HETATM    2  C           1     -22.036  -6.129  -5.085  0.00  0.00     0.197 C 
HETATM    3  O           1     -21.391  -5.504  -4.216  0.00  0.00    -0.646 OA
HETATM    4  O           1     -23.276  -5.997  -5.157  0.00  0.00    -0.646 OA
ENDBRANCH   1   2
BRANCH   1   5
HETATM    5  C           1     -20.170  -7.739  -5.328  0.00  0.00     0.077 C 
BRANCH   5   6
HETATM    6  C           1     -20.706  -8.872  -4.511  0.00  0.00    -0.028 A 
HETATM    7  C           1     -20.882  -8.879  -3.100  0.00  0.00    -0.002 A 
HETATM    8  C           1     -21.404 -10.127  -2.757  0.00  0.00     0.042 A 
HETATM    9  C           1     -20.645  -7.940  -2.078  0.00  0.00     0.014 A 
HETATM   10  C           1     -21.704 -10.484  -1.437  0.00  0.00     0.030 A 
HETATM   11  N           1     -21.537 -10.844  -3.925  0.00  0.00    -0.365 N 
HETATM   12  C           1     -21.461  -9.535  -0.440  0.00  0.00     0.002 A 
HETATM   13  C           1     -20.940  -8.281  -0.753  0.00  0.00     0.001 A 
HETATM   14  H           1     -21.907 -11.825  -3.989  0.00  0.00     0.165 HD
HETATM   15  C           1     -21.118 -10.095  -4.992  0.00  0.00     0.096 A 
ENDBRANCH   5   6
ENDBRANCH   1   5
BRANCH   1  16
HETATM   16  N           1     -20.791  -6.263  -7.152  0.00  0.00    -0.344 N 
HETATM   17  H           1     -20.041  -6.635  -7.721  0.00  0.00     0.163 HD
HETATM   18  C           1     -21.309  -5.026  -7.425  0.00  0.00     0.249 C 
HETATM   19  O           1     -20.835  -4.045  -6.903  0.00  0.00    -0.271 OA
BRANCH  18  20
HETATM   20  C           1     -22.473  -4.888  -8.375  0.00  0.00     0.275 C 
BRANCH  20  21
HETATM   21  C           1     -22.041  -4.081  -9.593  0.00  0.00     0.053 C 
BRANCH  21  22
HETATM   22  C           1     -22.875  -4.494 -10.798  0.00  0.00     0.115 C 
BRANCH  22  23
HETATM   23  C           1     -23.852  -3.395 -11.136  0.00  0.00     0.172 C 
HETATM   24  O           1     -24.915  -3.283 -10.490  0.00  0.00    -0.648 OA
HETATM   25  O           1     -23.599  -2.597 -12.065  0.00  0.00    -0.648 OA
ENDBRANCH  22  23
ENDBRANCH  21  22
ENDBRANCH  20  21
BRANCH  20  26
HETATM   26  N           1     -23.602  -4.183  -7.684  0.00  0.00    -0.066 N 
HETATM   27  H           1     -23.232  -3.653  -6.863  0.00  0.00     0.275 HD
HETATM   28  H           1     -24.056  -3.517  -8.351  0.00  0.00     0.275 HD
HETATM   29  H           1     -24.304  -4.884  -7.359  0.00  0.00     0.275 HD
ENDBRANCH  20  26
ENDBRANCH  18  20
ENDBRANCH   1  16
TORSDOF 9
ENDMDL
MODEL 6
REMARK VINA RESULT:      -7.1      2.706      7.542
REMARK  9 active torsions:
REMARK  status: ('A' for Active; 'I' for Inactive)
REMARK    1  A    between atoms: C_2  and  C_4 
REMARK    2  A    between atoms: C_2  and  C_3 
REMARK    3  A    between atoms: C_4  and  C_19 
REMARK    4  A    between atoms: C_7  and  C_9 
REMARK    5  A    between atoms: C_9  and  C_26 
REMARK    6  A    between atoms: C_9  and  N_11 
REMARK       I    between atoms: N_11  and  C_29 
REMARK    7  A    between atoms: C_19  and  C_29 
REMARK    8  A    between atoms: C_19  and  N_25 
REMARK    9  A    between atoms: C_26  and  C_27 
ROOT
HETATM    1  C           1     -21.712  -6.513  -5.108  0.00  0.00     0.190 C 
ENDROOT
BRANCH   1   2
HETATM    2  C           1     -20.922  -7.798  -5.062  0.00  0.00     0.197 C 
HETATM    3  O           1     -21.497  -8.893  -5.240  0.00  0.00    -0.646 OA
HETATM    4  O           1     -19.691  -7.767  -4.845  0.00  0.00    -0.646 OA
ENDBRANCH   1   2
BRANCH   1   5
HETATM    5  C           1     -20.756  -5.328  -5.145  0.00  0.00     0.077 C 
BRANCH   5   6
HETATM    6  C           1     -20.516  -4.924  -6.566  0.00  0.00    -0.028 A 
HETATM    7  C           1     -21.512  -4.555  -7.513  0.00  0.00    -0.002 A 
HETATM    8  C           1     -20.853  -4.255  -8.705  0.00  0.00     0.042 A 
HETATM    9  C           1     -22.914  -4.449  -7.468  0.00  0.00     0.014 A 
HETATM   10  C           1     -21.531  -3.851  -9.862  0.00  0.00     0.030 A 
HETATM   11  N           1     -19.507  -4.437  -8.481  0.00  0.00    -0.365 N 
HETATM   12  C           1     -22.924  -3.752  -9.793  0.00  0.00     0.002 A 
HETATM   13  C           1     -23.608  -4.046  -8.615  0.00  0.00     0.001 A 
HETATM   14  H           1     -18.753  -4.288  -9.197  0.00  0.00     0.165 HD
HETATM   15  C           1     -19.292  -4.842  -7.190  0.00  0.00     0.096 A 
ENDBRANCH   5   6
ENDBRANCH   1   5
BRANCH   1  16
HETATM   16  N           1     -22.551  -6.420  -3.929  0.00  0.00    -0.344 N 
HETATM   17  H           1     -23.558  -6.379  -4.026  0.00  0.00     0.163 HD
HETATM   18  C           1     -21.982  -6.386  -2.685  0.00  0.00     0.249 C 
HETATM   19  O           1     -21.683  -5.327  -2.185  0.00  0.00    -0.271 OA
BRANCH  18  20
HETATM   20  C           1     -21.726  -7.672  -1.938  0.00  0.00     0.275 C 
BRANCH  20  21
HETATM   21  C           1     -22.414  -7.617  -0.580  0.00  0.00     0.053 C 
BRANCH  21  22
HETATM   22  C           1     -21.937  -8.779   0.280  0.00  0.00     0.115 C 
BRANCH  22  23
HETATM   23  C           1     -22.653 -10.041  -0.135  0.00  0.00     0.172 C 
HETATM   24  O           1     -22.008 -10.995  -0.620  0.00  0.00    -0.648 OA
HETATM   25  O           1     -23.892 -10.131   0.004  0.00  0.00    -0.648 OA
ENDBRANCH  22  23
ENDBRANCH  21  22
ENDBRANCH  20  21
BRANCH  20  26
HETATM   26  N           1     -20.249  -7.850  -1.741  0.00  0.00    -0.066 N 
HETATM   27  H           1     -19.868  -7.036  -1.210  0.00  0.00     0.275 HD
HETATM   28  H           1     -20.074  -8.729  -1.202  0.00  0.00     0.275 HD
HETATM   29  H           1     -19.778  -7.911  -2.671  0.00  0.00     0.275 HD
ENDBRANCH  20  26
ENDBRANCH  18  20
ENDBRANCH   1  16
TORSDOF 9
ENDMDL
MODEL 7
REMARK VINA RESULT:      -7.0      2.234      3.174
REMARK  9 active torsions:
REMARK  status: ('A' for Active; 'I' for Inactive)
REMARK    1  A    between atoms: C_2  and  C_4 
REMARK    2  A    between atoms: C_2  and  C_3 
REMARK    3  A    between atoms: C_4  and  C_19 
REMARK    4  A    between atoms: C_7  and  C_9 
REMARK    5  A    between atoms: C_9  and  C_26 
REMARK    6  A    between atoms: C_9  and  N_11 
REMARK       I    between atoms: N_11  and  C_29 
REMARK    7  A    between atoms: C_19  and  C_29 
REMARK    8  A    between atoms: C_19  and  N_25 
REMARK    9  A    between atoms: C_26  and  C_27 
ROOT
HETATM    1  C           1     -21.024  -5.345  -7.208  0.00  0.00     0.190 C 
ENDROOT
BRANCH   1   2
HETATM    2  C           1     -19.724  -4.682  -6.825  0.00  0.00     0.197 C 
HETATM    3  O           1     -18.893  -4.378  -7.708  0.00  0.00    -0.646 OA
HETATM    4  O           1     -19.478  -4.435  -5.625  0.00  0.00    -0.646 OA
ENDBRANCH   1   2
BRANCH   1   5
HETATM    5  C           1     -21.013  -6.794  -6.740  0.00  0.00     0.077 C 
BRANCH   5   6
HETATM    6  C           1     -21.350  -6.852  -5.283  0.00  0.00    -0.028 A 
HETATM    7  C           1     -20.691  -7.641  -4.300  0.00  0.00    -0.002 A 
HETATM    8  C           1     -21.324  -7.393  -3.082  0.00  0.00     0.042 A 
HETATM    9  C           1     -19.613  -8.546  -4.332  0.00  0.00     0.014 A 
HETATM   10  C           1     -20.930  -8.007  -1.887  0.00  0.00     0.030 A 
HETATM   11  N           1     -22.330  -6.485  -3.327  0.00  0.00    -0.365 N 
HETATM   12  C           1     -19.857  -8.901  -1.943  0.00  0.00     0.002 A 
HETATM   13  C           1     -19.207  -9.168  -3.146  0.00  0.00     0.001 A 
HETATM   14  H           1     -22.984  -6.103  -2.599  0.00  0.00     0.165 HD
HETATM   15  C           1     -22.354  -6.151  -4.655  0.00  0.00     0.096 A 
ENDBRANCH   5   6
ENDBRANCH   1   5
BRANCH   1  16
HETATM   16  N           1     -21.181  -5.305  -8.649  0.00  0.00    -0.344 N 
HETATM   17  H           1     -20.694  -5.975  -9.230  0.00  0.00     0.163 HD
HETATM   18  C           1     -21.988  -4.360  -9.223  0.00  0.00     0.249 C 
HETATM   19  O           1     -21.530  -3.290  -9.547  0.00  0.00    -0.271 OA
BRANCH  18  20
HETATM   20  C           1     -23.450  -4.655  -9.451  0.00  0.00     0.275 C 
BRANCH  20  21
HETATM   21  C           1     -23.743  -4.651 -10.946  0.00  0.00     0.053 C 
BRANCH  21  22
HETATM   22  C           1     -24.353  -3.313 -11.341  0.00  0.00     0.115 C 
BRANCH  22  23
HETATM   23  C           1     -23.756  -2.852 -12.648  0.00  0.00     0.172 C 
HETATM   24  O           1     -24.493  -2.376 -13.538  0.00  0.00    -0.648 OA
HETATM   25  O           1     -22.525  -2.946 -12.841  0.00  0.00    -0.648 OA
ENDBRANCH  22  23
ENDBRANCH  21  22
ENDBRANCH  20  21
BRANCH  20  26
HETATM   26  N           1     -24.283  -3.604  -8.778  0.00  0.00    -0.066 N 
HETATM   27  H           1     -23.749  -3.195  -7.979  0.00  0.00     0.275 HD
HETATM   28  H           1     -24.513  -2.850  -9.464  0.00  0.00     0.275 HD
HETATM   29  H           1     -25.166  -4.035  -8.422  0.00  0.00     0.275 HD
ENDBRANCH  20  26
ENDBRANCH  18  20
ENDBRANCH   1  16
TORSDOF 9
ENDMDL
MODEL 8
REMARK VINA RESULT:      -7.0      2.826      5.305
REMARK  9 active torsions:
REMARK  status: ('A' for Active; 'I' for Inactive)
REMARK    1  A    between atoms: C_2  and  C_4 
REMARK    2  A    between atoms: C_2  and  C_3 
REMARK    3  A    between atoms: C_4  and  C_19 
REMARK    4  A    between atoms: C_7  and  C_9 
REMARK    5  A    between atoms: C_9  and  C_26 
REMARK    6  A    between atoms: C_9  and  N_11 
REMARK       I    between atoms: N_11  and  C_29 
REMARK    7  A    between atoms: C_19  and  C_29 
REMARK    8  A    between atoms: C_19  and  N_25 
REMARK    9  A    between atoms: C_26  and  C_27 
ROOT
HETATM    1  C           1     -21.259  -8.662  -1.839  0.00  0.00     0.190 C 
ENDROOT
BRANCH   1   2
HETATM    2  C           1     -21.774  -8.615  -0.422  0.00  0.00     0.197 C 
HETATM    3  O           1     -22.997  -8.474  -0.205  0.00  0.00    -0.646 OA
HETATM    4  O           1     -20.978  -8.716   0.536  0.00  0.00    -0.646 OA
ENDBRANCH   1   2
BRANCH   1   5
HETATM    5  C           1     -20.060  -9.598  -1.914  0.00  0.00     0.077 C 
BRANCH   5   6
HETATM    6  C           1     -19.615  -9.729  -3.336  0.00  0.00    -0.028 A 
HETATM    7  C           1     -18.270  -9.723  -3.799  0.00  0.00    -0.002 A 
HETATM    8  C           1     -18.311  -9.870  -5.185  0.00  0.00     0.042 A 
HETATM    9  C           1     -17.017  -9.605  -3.167  0.00  0.00     0.014 A 
HETATM   10  C           1     -17.156  -9.906  -5.976  0.00  0.00     0.030 A 
HETATM   11  N           1     -19.637  -9.961  -5.543  0.00  0.00    -0.365 N 
HETATM   12  C           1     -15.924  -9.787  -5.326  0.00  0.00     0.002 A 
HETATM   13  C           1     -15.853  -9.639  -3.943  0.00  0.00     0.001 A 
HETATM   14  H           1     -19.988 -10.078  -6.526  0.00  0.00     0.165 HD
HETATM   15  C           1     -20.435  -9.877  -4.432  0.00  0.00     0.096 A 
ENDBRANCH   5   6
ENDBRANCH   1   5
BRANCH   1  16
HETATM   16  N           1     -20.860  -7.331  -2.253  0.00  0.00    -0.344 N 
HETATM   17  H           1     -19.938  -6.985  -2.019  0.00  0.00     0.163 HD
HETATM   18  C           1     -21.729  -6.544  -2.959  0.00  0.00     0.249 C 
HETATM   19  O           1     -22.486  -5.806  -2.374  0.00  0.00    -0.271 OA
BRANCH  18  20
HETATM   20  C           1     -21.742  -6.598  -4.466  0.00  0.00     0.275 C 
BRANCH  20  21
HETATM   21  C           1     -20.680  -5.654  -5.019  0.00  0.00     0.053 C 
BRANCH  21  22
HETATM   22  C           1     -20.174  -6.184  -6.353  0.00  0.00     0.115 C 
BRANCH  22  23
HETATM   23  C           1     -20.680  -5.305  -7.470  0.00  0.00     0.172 C 
HETATM   24  O           1     -21.738  -4.656  -7.323  0.00  0.00    -0.648 OA
HETATM   25  O           1     -20.042  -5.226  -8.541  0.00  0.00    -0.648 OA
ENDBRANCH  22  23
ENDBRANCH  21  22
ENDBRANCH  20  21
BRANCH  20  26
HETATM   26  N           1     -23.091  -6.180  -4.971  0.00  0.00    -0.066 N 
HETATM   27  H           1     -23.201  -5.148  -4.858  0.00  0.00     0.275 HD
HETATM   28  H           1     -23.178  -6.431  -5.982  0.00  0.00     0.275 HD
HETATM   29  H           1     -23.835  -6.671  -4.424  0.00  0.00     0.275 HD
ENDBRANCH  20  26
ENDBRANCH  18  20
ENDBRANCH   1  16
TORSDOF 9
ENDMDL
MODEL 9
REMARK VINA RESULT:      -6.9      3.266      6.935
REMARK  9 active torsions:
REMARK  status: ('A' for Active; 'I' for Inactive)
REMARK    1  A    between atoms: C_2  and  C_4 
REMARK    2  A    between atoms: C_2  and  C_3 
REMARK    3  A    between atoms: C_4  and  C_19 
REMARK    4  A    between atoms: C_7  and  C_9 
REMARK    5  A    between atoms: C_9  and  C_26 
REMARK    6  A    between atoms: C_9  and  N_11 
REMARK       I    between atoms: N_11  and  C_29 
REMARK    7  A    between atoms: C_19  and  C_29 
REMARK    8  A    between atoms: C_19  and  N_25 
REMARK    9  A    between atoms: C_26  and  C_27 
ROOT
HETATM    1  C           1     -20.846  -9.449  -4.667  0.00  0.00     0.190 C 
ENDROOT
BRANCH   1   2
HETATM    2  C           1     -20.419 -10.413  -5.747  0.00  0.00     0.197 C 
HETATM    3  O           1     -21.279 -11.002  -6.436  0.00  0.00    -0.646 OA
HETATM    4  O           1     -19.204 -10.623  -5.952  0.00  0.00    -0.646 OA
ENDBRANCH   1   2
BRANCH   1   5
HETATM    5  C           1     -20.081  -8.142  -4.820  0.00  0.00     0.077 C 
BRANCH   5   6
HETATM    6  C           1     -21.014  -7.066  -5.277  0.00  0.00    -0.028 A 
HETATM    7  C           1     -20.734  -6.072  -6.256  0.00  0.00    -0.002 A 
HETATM    8  C           1     -21.875  -5.278  -6.373  0.00  0.00     0.042 A 
HETATM    9  C           1     -19.614  -5.772  -7.054  0.00  0.00     0.014 A 
HETATM   10  C           1     -21.953  -4.193  -7.255  0.00  0.00     0.030 A 
HETATM   11  N           1     -22.809  -5.779  -5.494  0.00  0.00    -0.365 N 
HETATM   12  C           1     -20.829  -3.914  -8.038  0.00  0.00     0.002 A 
HETATM   13  C           1     -19.676  -4.691  -7.941  0.00  0.00     0.001 A 
HETATM   14  H           1     -23.774  -5.388  -5.356  0.00  0.00     0.165 HD
HETATM   15  C           1     -22.299  -6.860  -4.826  0.00  0.00     0.096 A 
ENDBRANCH   5   6
ENDBRANCH   1   5
BRANCH   1  16
HETATM   16  N           1     -20.564 -10.025  -3.367  0.00  0.00    -0.344 N 
HETATM   17  H           1     -19.688  -9.820  -2.903  0.00  0.00     0.163 HD
HETATM   18  C           1     -21.482 -10.844  -2.767  0.00  0.00     0.249 C 
HETATM   19  O           1     -21.449 -12.036  -2.965  0.00  0.00    -0.271 OA
BRANCH  18  20
HETATM   20  C           1     -22.536 -10.259  -1.859  0.00  0.00     0.275 C 
BRANCH  20  21
HETATM   21  C           1     -21.910  -9.900  -0.518  0.00  0.00     0.053 C 
BRANCH  21  22
HETATM   22  C           1     -22.422  -8.540  -0.065  0.00  0.00     0.115 C 
BRANCH  22  23
HETATM   23  C           1     -21.893  -7.469  -0.987  0.00  0.00     0.172 C 
HETATM   24  O           1     -20.731  -7.553  -1.439  0.00  0.00    -0.648 OA
HETATM   25  O           1     -22.615  -6.497  -1.297  0.00  0.00    -0.648 OA
ENDBRANCH  22  23
ENDBRANCH  21  22
ENDBRANCH  20  21
BRANCH  20  26
HETATM   26  N           1     -23.627 -11.266  -1.646  0.00  0.00    -0.066 N 
HETATM   27  H           1     -23.225 -12.132  -1.224  0.00  0.00     0.275 HD
HETATM   28  H           1     -24.347 -10.867  -1.002  0.00  0.00     0.275 HD
HETATM   29  H           1     -24.070 -11.499  -2.564  0.00  0.00     0.275 HD
ENDBRANCH  20  26
ENDBRANCH  18  20
ENDBRANCH   1  16
TORSDOF 9
ENDMDL
