MODEL 1
REMARK VINA RESULT:      -5.3      0.000      0.000
REMARK  8 active torsions:
REMARK  status: ('A' for Active; 'I' for Inactive)
REMARK    1  A    between atoms: C_1  and  C_9 
REMARK       I    between atoms: C_3  and  N_4 
REMARK    2  A    between atoms: C_3  and  C_15 
REMARK    3  A    between atoms: N_4  and  C_9 
REMARK    4  A    between atoms: O_8  and  C_10 
REMARK    5  A    between atoms: C_9  and  C_10 
REMARK    6  A    between atoms: S_13  and  C_14 
REMARK    7  A    between atoms: C_14  and  C_15 
REMARK    8  A    between atoms: C_15  and  N_16 
ROOT
HETATM    1  H           1     -23.974  -4.086  -8.995  0.00  0.00     0.163 HD
HETATM    2  C           1     -21.950  -3.950  -8.582  0.00  0.00     0.249 C 
HETATM    3  N           1     -23.064  -3.853  -9.372  0.00  0.00    -0.343 N 
HETATM    4  O           1     -20.864  -3.673  -9.032  0.00  0.00    -0.271 OA
ENDROOT
BRANCH   2   5
HETATM    5  C           1     -22.078  -4.403  -7.148  0.00  0.00     0.283 C 
BRANCH   5   6
HETATM    6  C           1     -21.357  -5.732  -6.969  0.00  0.00     0.113 C 
BRANCH   6   7
HETATM    7  S           1     -21.679  -6.377  -5.303  0.00  0.00    -0.180 SA
HETATM    8  H           1     -22.953  -5.951  -5.232  0.00  0.00     0.101 HD
ENDBRANCH   6   7
ENDBRANCH   5   6
BRANCH   5   9
HETATM    9  N           1     -23.529  -4.572  -6.806  0.00  0.00    -0.066 N 
HETATM   10  H           1     -23.949  -3.637  -6.602  0.00  0.00     0.275 HD
HETATM   11  H           1     -23.621  -5.186  -5.966  0.00  0.00     0.275 HD
HETATM   12  H           1     -24.028  -5.009  -7.613  0.00  0.00     0.275 HD
ENDBRANCH   5   9
ENDBRANCH   2   5
BRANCH   3  13
HETATM   13  C           1     -22.940  -3.417 -10.749  0.00  0.00     0.209 C 
BRANCH  13  14
HETATM   14  C           1     -24.314  -3.182 -11.327  0.00  0.00     0.198 C 
HETATM   15  O           1     -25.317  -3.200 -10.582  0.00  0.00    -0.646 OA
HETATM   16  O           1     -24.448  -2.967 -12.552  0.00  0.00    -0.646 OA
ENDBRANCH  13  14
BRANCH  13  17
HETATM   17  C           1     -22.225  -4.492 -11.559  0.00  0.00     0.200 C 
BRANCH  17  18
HETATM   18  O           1     -21.632  -3.912 -12.688  0.00  0.00    -0.398 OA
HETATM   19  H           1     -20.907  -3.396 -12.381  0.00  0.00     0.209 HD
ENDBRANCH  17  18
ENDBRANCH  13  17
ENDBRANCH   3  13
TORSDOF 8
ENDMDL
MODEL 2
REMARK VINA RESULT:      -5.2     10.442     11.542
REMARK  8 active torsions:
REMARK  status: ('A' for Active; 'I' for Inactive)
REMARK    1  A    between atoms: C_1  and  C_9 
REMARK       I    between atoms: C_3  and  N_4 
REMARK    2  A    between atoms: C_3  and  C_15 
REMARK    3  A    between atoms: N_4  and  C_9 
REMARK    4  A    between atoms: O_8  and  C_10 
REMARK    5  A    between atoms: C_9  and  C_10 
REMARK    6  A    between atoms: S_13  and  C_14 
REMARK    7  A    between atoms: C_14  and  C_15 
REMARK    8  A    between atoms: C_15  and  N_16 
ROOT
HETATM    1  H           1     -27.701  -8.336 -19.156  0.00  0.00     0.163 HD
HETATM    2  C           1     -28.408  -6.433 -18.755  0.00  0.00     0.249 C 
HETATM    3  N           1     -27.587  -7.351 -19.354  0.00  0.00    -0.343 N 
HETATM    4  O           1     -28.272  -5.256 -18.991  0.00  0.00    -0.271 OA
ENDROOT
BRANCH   2   5
HETATM    5  C           1     -29.483  -6.891 -17.801  0.00  0.00     0.283 C 
BRANCH   5   6
HETATM    6  C           1     -29.238  -6.280 -16.428  0.00  0.00     0.113 C 
BRANCH   6   7
HETATM    7  S           1     -27.772  -7.044 -15.677  0.00  0.00    -0.180 SA
HETATM    8  H           1     -28.333  -7.272 -14.476  0.00  0.00     0.101 HD
ENDBRANCH   6   7
ENDBRANCH   5   6
BRANCH   5   9
HETATM    9  N           1     -29.451  -8.387 -17.694  0.00  0.00    -0.066 N 
HETATM   10  H           1     -30.401  -8.738 -17.436  0.00  0.00     0.275 HD
HETATM   11  H           1     -28.764  -8.670 -16.960  0.00  0.00     0.275 HD
HETATM   12  H           1     -29.168  -8.796 -18.613  0.00  0.00     0.275 HD
ENDBRANCH   5   9
ENDBRANCH   2   5
BRANCH   3  13
HETATM   13  C           1     -26.554  -6.909 -20.271  0.00  0.00     0.209 C 
BRANCH  13  14
HETATM   14  C           1     -26.259  -8.009 -21.262  0.00  0.00     0.198 C 
HETATM   15  O           1     -27.132  -8.863 -21.526  0.00  0.00    -0.646 OA
HETATM   16  O           1     -25.141  -8.065 -21.818  0.00  0.00    -0.646 OA
ENDBRANCH  13  14
BRANCH  13  17
HETATM   17  C           1     -25.290  -6.577 -19.489  0.00  0.00     0.200 C 
BRANCH  17  18
HETATM   18  O           1     -24.601  -7.760 -19.187  0.00  0.00    -0.398 OA
HETATM   19  H           1     -24.393  -8.172 -20.008  0.00  0.00     0.209 HD
ENDBRANCH  17  18
ENDBRANCH  13  17
ENDBRANCH   3  13
TORSDOF 8
ENDMDL
MODEL 3
REMARK VINA RESULT:      -5.2      1.637      1.759
REMARK  8 active torsions:
REMARK  status: ('A' for Active; 'I' for Inactive)
REMARK    1  A    between atoms: C_1  and  C_9 
REMARK       I    between atoms: C_3  and  N_4 
REMARK    2  A    between atoms: C_3  and  C_15 
REMARK    3  A    between atoms: N_4  and  C_9 
REMARK    4  A    between atoms: O_8  and  C_10 
REMARK    5  A    between atoms: C_9  and  C_10 
REMARK    6  A    between atoms: S_13  and  C_14 
REMARK    7  A    between atoms: C_14  and  C_15 
REMARK    8  A    between atoms: C_15  and  N_16 
ROOT
HETATM    1  H           1     -22.228  -5.745  -9.395  0.00  0.00     0.163 HD
HETATM    2  C           1     -21.662  -4.566  -7.791  0.00  0.00     0.249 C 
HETATM    3  N           1     -22.162  -4.798  -9.044  0.00  0.00    -0.343 N 
HETATM    4  O           1     -21.582  -3.435  -7.373  0.00  0.00    -0.271 OA
ENDROOT
BRANCH   2   5
HETATM    5  C           1     -21.211  -5.721  -6.932  0.00  0.00     0.283 C 
BRANCH   5   6
HETATM    6  C           1     -20.962  -5.232  -5.512  0.00  0.00     0.113 C 
BRANCH   6   7
HETATM    7  S           1     -21.603  -6.450  -4.328  0.00  0.00    -0.180 SA
HETATM    8  H           1     -22.068  -7.311  -5.252  0.00  0.00     0.101 HD
ENDBRANCH   6   7
ENDBRANCH   5   6
BRANCH   5   9
HETATM    9  N           1     -19.944  -6.295  -7.492  0.00  0.00    -0.066 N 
HETATM   10  H           1     -19.715  -5.818  -8.394  0.00  0.00     0.275 HD
HETATM   11  H           1     -20.069  -7.319  -7.662  0.00  0.00     0.275 HD
HETATM   12  H           1     -19.164  -6.147  -6.813  0.00  0.00     0.275 HD
ENDBRANCH   5   9
ENDBRANCH   2   5
BRANCH   3  13
HETATM   13  C           1     -22.595  -3.687  -9.869  0.00  0.00     0.209 C 
BRANCH  13  14
HETATM   14  C           1     -24.045  -3.872 -10.241  0.00  0.00     0.198 C 
HETATM   15  O           1     -24.642  -4.924  -9.925  0.00  0.00    -0.646 OA
HETATM   16  O           1     -24.651  -2.973 -10.863  0.00  0.00    -0.646 OA
ENDBRANCH  13  14
BRANCH  13  17
HETATM   17  C           1     -21.749  -3.636 -11.135  0.00  0.00     0.200 C 
BRANCH  17  18
HETATM   18  O           1     -22.363  -4.396 -12.140  0.00  0.00    -0.398 OA
HETATM   19  H           1     -21.881  -4.240 -12.934  0.00  0.00     0.209 HD
ENDBRANCH  17  18
ENDBRANCH  13  17
ENDBRANCH   3  13
TORSDOF 8
ENDMDL
MODEL 4
REMARK VINA RESULT:      -5.1      3.469      5.352
REMARK  8 active torsions:
REMARK  status: ('A' for Active; 'I' for Inactive)
REMARK    1  A    between atoms: C_1  and  C_9 
REMARK       I    between atoms: C_3  and  N_4 
REMARK    2  A    between atoms: C_3  and  C_15 
REMARK    3  A    between atoms: N_4  and  C_9 
REMARK    4  A    between atoms: O_8  and  C_10 
REMARK    5  A    between atoms: C_9  and  C_10 
REMARK    6  A    between atoms: S_13  and  C_14 
REMARK    7  A    between atoms: C_14  and  C_15 
REMARK    8  A    between atoms: C_15  and  N_16 
ROOT
HETATM    1  H           1     -21.951  -3.719  -8.660  0.00  0.00     0.163 HD
HETATM    2  C           1     -20.933  -4.152 -10.410  0.00  0.00     0.249 C 
HETATM    3  N           1     -21.199  -4.258  -9.071  0.00  0.00    -0.343 N 
HETATM    4  O           1     -20.036  -4.795 -10.900  0.00  0.00    -0.271 OA
ENDROOT
BRANCH   2   5
HETATM    5  C           1     -21.761  -3.232 -11.273  0.00  0.00     0.283 C 
BRANCH   5   6
HETATM    6  C           1     -23.223  -3.324 -10.858  0.00  0.00     0.113 C 
BRANCH   6   7
HETATM    7  S           1     -24.282  -3.127 -12.319  0.00  0.00    -0.180 SA
HETATM    8  H           1     -25.331  -2.600 -11.661  0.00  0.00     0.101 HD
ENDBRANCH   6   7
ENDBRANCH   5   6
BRANCH   5   9
HETATM    9  N           1     -21.624  -3.639 -12.710  0.00  0.00    -0.066 N 
HETATM   10  H           1     -21.748  -4.674 -12.792  0.00  0.00     0.275 HD
HETATM   11  H           1     -20.675  -3.374 -13.059  0.00  0.00     0.275 HD
HETATM   12  H           1     -22.353  -3.155 -13.281  0.00  0.00     0.275 HD
ENDBRANCH   5   9
ENDBRANCH   2   5
BRANCH   3  13
HETATM   13  C           1     -20.403  -5.142  -8.242  0.00  0.00     0.209 C 
BRANCH  13  14
HETATM   14  C           1     -21.277  -5.751  -7.173  0.00  0.00     0.198 C 
HETATM   15  O           1     -22.235  -5.099  -6.702  0.00  0.00    -0.646 OA
HETATM   16  O           1     -21.045  -6.908  -6.760  0.00  0.00    -0.646 OA
ENDBRANCH  13  14
BRANCH  13  17
HETATM   17  C           1     -19.279  -4.348  -7.587  0.00  0.00     0.200 C 
BRANCH  17  18
HETATM   18  O           1     -19.306  -4.554  -6.201  0.00  0.00    -0.398 OA
HETATM   19  H           1     -18.773  -3.881  -5.815  0.00  0.00     0.209 HD
ENDBRANCH  17  18
ENDBRANCH  13  17
ENDBRANCH   3  13
TORSDOF 8
ENDMDL
MODEL 5
REMARK VINA RESULT:      -5.0      1.585      2.144
REMARK  8 active torsions:
REMARK  status: ('A' for Active; 'I' for Inactive)
REMARK    1  A    between atoms: C_1  and  C_9 
REMARK       I    between atoms: C_3  and  N_4 
REMARK    2  A    between atoms: C_3  and  C_15 
REMARK    3  A    between atoms: N_4  and  C_9 
REMARK    4  A    between atoms: O_8  and  C_10 
REMARK    5  A    between atoms: C_9  and  C_10 
REMARK    6  A    between atoms: S_13  and  C_14 
REMARK    7  A    between atoms: C_14  and  C_15 
REMARK    8  A    between atoms: C_15  and  N_16 
ROOT
HETATM    1  H           1     -22.845  -3.564  -8.798  0.00  0.00     0.163 HD
HETATM    2  C           1     -20.926  -4.207  -9.235  0.00  0.00     0.249 C 
HETATM    3  N           1     -22.251  -3.985  -9.501  0.00  0.00    -0.343 N 
HETATM    4  O           1     -20.218  -4.710 -10.074  0.00  0.00    -0.271 OA
ENDROOT
BRANCH   2   5
HETATM    5  C           1     -20.351  -3.822  -7.894  0.00  0.00     0.283 C 
BRANCH   5   6
HETATM    6  C           1     -19.729  -5.048  -7.238  0.00  0.00     0.113 C 
BRANCH   6   7
HETATM    7  S           1     -20.599  -5.413  -5.688  0.00  0.00    -0.180 SA
HETATM    8  H           1     -19.603  -6.127  -5.133  0.00  0.00     0.101 HD
ENDBRANCH   6   7
ENDBRANCH   5   6
BRANCH   5   9
HETATM    9  N           1     -21.444  -3.287  -7.017  0.00  0.00    -0.066 N 
HETATM   10  H           1     -21.682  -3.996  -6.287  0.00  0.00     0.275 HD
HETATM   11  H           1     -22.290  -3.087  -7.597  0.00  0.00     0.275 HD
HETATM   12  H           1     -21.122  -2.407  -6.556  0.00  0.00     0.275 HD
ENDBRANCH   5   9
ENDBRANCH   2   5
BRANCH   3  13
HETATM   13  C           1     -22.803  -4.355 -10.790  0.00  0.00     0.209 C 
BRANCH  13  14
HETATM   14  C           1     -23.203  -3.108 -11.542  0.00  0.00     0.198 C 
HETATM   15  O           1     -22.324  -2.344 -11.996  0.00  0.00    -0.646 OA
HETATM   16  O           1     -24.412  -2.841 -11.710  0.00  0.00    -0.646 OA
ENDBRANCH  13  14
BRANCH  13  17
HETATM   17  C           1     -24.027  -5.238 -10.583  0.00  0.00     0.200 C 
BRANCH  17  18
HETATM   18  O           1     -24.907  -4.616  -9.686  0.00  0.00    -0.398 OA
HETATM   19  H           1     -25.779  -4.855  -9.949  0.00  0.00     0.209 HD
ENDBRANCH  17  18
ENDBRANCH  13  17
ENDBRANCH   3  13
TORSDOF 8
ENDMDL
MODEL 6
REMARK VINA RESULT:      -5.0      2.293      2.878
REMARK  8 active torsions:
REMARK  status: ('A' for Active; 'I' for Inactive)
REMARK    1  A    between atoms: C_1  and  C_9 
REMARK       I    between atoms: C_3  and  N_4 
REMARK    2  A    between atoms: C_3  and  C_15 
REMARK    3  A    between atoms: N_4  and  C_9 
REMARK    4  A    between atoms: O_8  and  C_10 
REMARK    5  A    between atoms: C_9  and  C_10 
REMARK    6  A    between atoms: S_13  and  C_14 
REMARK    7  A    between atoms: C_14  and  C_15 
REMARK    8  A    between atoms: C_15  and  N_16 
ROOT
HETATM    1  H           1     -24.319  -2.655 -11.578  0.00  0.00     0.163 HD
HETATM    2  C           1     -22.837  -3.818 -10.718  0.00  0.00     0.249 C 
HETATM    3  N           1     -23.577  -3.320 -11.758  0.00  0.00    -0.343 N 
HETATM    4  O           1     -21.953  -4.612 -10.933  0.00  0.00    -0.271 OA
ENDROOT
BRANCH   2   5
HETATM    5  C           1     -23.126  -3.374  -9.305  0.00  0.00     0.283 C 
BRANCH   5   6
HETATM    6  C           1     -22.618  -4.426  -8.329  0.00  0.00     0.113 C 
BRANCH   6   7
HETATM    7  S           1     -21.277  -3.724  -7.325  0.00  0.00    -0.180 SA
HETATM    8  H           1     -21.872  -2.537  -7.108  0.00  0.00     0.101 HD
ENDBRANCH   6   7
ENDBRANCH   5   6
BRANCH   5   9
HETATM    9  N           1     -24.606  -3.202  -9.129  0.00  0.00    -0.066 N 
HETATM   10  H           1     -24.900  -2.284  -9.533  0.00  0.00     0.275 HD
HETATM   11  H           1     -24.841  -3.226  -8.111  0.00  0.00     0.275 HD
HETATM   12  H           1     -25.107  -3.976  -9.621  0.00  0.00     0.275 HD
ENDBRANCH   5   9
ENDBRANCH   2   5
BRANCH   3  13
HETATM   13  C           1     -23.299  -3.747 -13.115  0.00  0.00     0.209 C 
BRANCH  13  14
HETATM   14  C           1     -23.518  -2.591 -14.060  0.00  0.00     0.198 C 
HETATM   15  O           1     -24.459  -1.792 -13.862  0.00  0.00    -0.646 OA
HETATM   16  O           1     -22.758  -2.432 -15.039  0.00  0.00    -0.646 OA
ENDBRANCH  13  14
BRANCH  13  17
HETATM   17  C           1     -24.232  -4.892 -13.488  0.00  0.00     0.200 C 
BRANCH  17  18
HETATM   18  O           1     -24.475  -4.868 -14.869  0.00  0.00    -0.398 OA
HETATM   19  H           1     -24.974  -5.640 -15.072  0.00  0.00     0.209 HD
ENDBRANCH  17  18
ENDBRANCH  13  17
ENDBRANCH   3  13
TORSDOF 8
ENDMDL
MODEL 7
REMARK VINA RESULT:      -5.0      9.845     11.287
REMARK  8 active torsions:
REMARK  status: ('A' for Active; 'I' for Inactive)
REMARK    1  A    between atoms: C_1  and  C_9 
REMARK       I    between atoms: C_3  and  N_4 
REMARK    2  A    between atoms: C_3  and  C_15 
REMARK    3  A    between atoms: N_4  and  C_9 
REMARK    4  A    between atoms: O_8  and  C_10 
REMARK    5  A    between atoms: C_9  and  C_10 
REMARK    6  A    between atoms: S_13  and  C_14 
REMARK    7  A    between atoms: C_14  and  C_15 
REMARK    8  A    between atoms: C_15  and  N_16 
ROOT
HETATM    1  H           1     -26.028  -7.141 -17.461  0.00  0.00     0.163 HD
HETATM    2  C           1     -26.456  -6.493 -19.380  0.00  0.00     0.249 C 
HETATM    3  N           1     -26.724  -6.707 -18.054  0.00  0.00    -0.343 N 
HETATM    4  O           1     -27.286  -5.975 -20.088  0.00  0.00    -0.271 OA
ENDROOT
BRANCH   2   5
HETATM    5  C           1     -25.124  -6.906 -19.957  0.00  0.00     0.283 C 
BRANCH   5   6
HETATM    6  C           1     -25.343  -7.937 -21.055  0.00  0.00     0.113 C 
BRANCH   6   7
HETATM    7  S           1     -24.003  -7.820 -22.274  0.00  0.00    -0.180 SA
HETATM    8  H           1     -24.642  -6.977 -23.104  0.00  0.00     0.101 HD
ENDBRANCH   6   7
ENDBRANCH   5   6
BRANCH   5   9
HETATM    9  N           1     -24.274  -7.502 -18.874  0.00  0.00    -0.066 N 
HETATM   10  H           1     -23.408  -6.928 -18.757  0.00  0.00     0.275 HD
HETATM   11  H           1     -24.012  -8.479 -19.134  0.00  0.00     0.275 HD
HETATM   12  H           1     -24.810  -7.512 -17.977  0.00  0.00     0.275 HD
ENDBRANCH   5   9
ENDBRANCH   2   5
BRANCH   3  13
HETATM   13  C           1     -28.004  -6.310 -17.500  0.00  0.00     0.209 C 
BRANCH  13  14
HETATM   14  C           1     -27.980  -6.488 -16.002  0.00  0.00     0.198 C 
HETATM   15  O           1     -28.783  -5.855 -15.284  0.00  0.00    -0.646 OA
HETATM   16  O           1     -27.156  -7.270 -15.479  0.00  0.00    -0.646 OA
ENDBRANCH  13  14
BRANCH  13  17
HETATM   17  C           1     -29.105  -7.178 -18.097  0.00  0.00     0.200 C 
BRANCH  17  18
HETATM   18  O           1     -29.364  -8.259 -17.243  0.00  0.00    -0.398 OA
HETATM   19  H           1     -30.018  -8.789 -17.665  0.00  0.00     0.209 HD
ENDBRANCH  17  18
ENDBRANCH  13  17
ENDBRANCH   3  13
TORSDOF 8
ENDMDL
MODEL 8
REMARK VINA RESULT:      -5.0      3.181      5.202
REMARK  8 active torsions:
REMARK  status: ('A' for Active; 'I' for Inactive)
REMARK    1  A    between atoms: C_1  and  C_9 
REMARK       I    between atoms: C_3  and  N_4 
REMARK    2  A    between atoms: C_3  and  C_15 
REMARK    3  A    between atoms: N_4  and  C_9 
REMARK    4  A    between atoms: O_8  and  C_10 
REMARK    5  A    between atoms: C_9  and  C_10 
REMARK    6  A    between atoms: S_13  and  C_14 
REMARK    7  A    between atoms: C_14  and  C_15 
REMARK    8  A    between atoms: C_15  and  N_16 
ROOT
HETATM    1  H           1     -23.351  -4.878  -8.060  0.00  0.00     0.163 HD
HETATM    2  C           1     -22.550  -4.651  -9.955  0.00  0.00     0.249 C 
HETATM    3  N           1     -22.498  -4.870  -8.604  0.00  0.00    -0.343 N 
HETATM    4  O           1     -21.531  -4.641 -10.605  0.00  0.00    -0.271 OA
ENDROOT
BRANCH   2   5
HETATM    5  C           1     -23.878  -4.422 -10.632  0.00  0.00     0.283 C 
BRANCH   5   6
HETATM    6  C           1     -23.877  -3.055 -11.304  0.00  0.00     0.113 C 
BRANCH   6   7
HETATM    7  S           1     -23.811  -3.265 -13.106  0.00  0.00    -0.180 SA
HETATM    8  H           1     -23.499  -4.573 -13.083  0.00  0.00     0.101 HD
ENDBRANCH   6   7
ENDBRANCH   5   6
BRANCH   5   9
HETATM    9  N           1     -24.975  -4.476  -9.611  0.00  0.00    -0.066 N 
HETATM   10  H           1     -25.050  -3.549  -9.132  0.00  0.00     0.275 HD
HETATM   11  H           1     -24.759  -5.215  -8.905  0.00  0.00     0.275 HD
HETATM   12  H           1     -25.880  -4.699 -10.082  0.00  0.00     0.275 HD
ENDBRANCH   5   9
ENDBRANCH   2   5
BRANCH   3  13
HETATM   13  C           1     -21.221  -5.090  -7.954  0.00  0.00     0.209 C 
BRANCH  13  14
HETATM   14  C           1     -21.422  -5.948  -6.729  0.00  0.00     0.198 C 
HETATM   15  O           1     -20.833  -7.046  -6.631  0.00  0.00    -0.646 OA
HETATM   16  O           1     -22.177  -5.560  -5.812  0.00  0.00    -0.646 OA
ENDBRANCH  13  14
BRANCH  13  17
HETATM   17  C           1     -20.623  -3.750  -7.544  0.00  0.00     0.200 C 
BRANCH  17  18
HETATM   18  O           1     -21.638  -2.915  -7.055  0.00  0.00    -0.398 OA
HETATM   19  H           1     -21.736  -2.213  -7.675  0.00  0.00     0.209 HD
ENDBRANCH  17  18
ENDBRANCH  13  17
ENDBRANCH   3  13
TORSDOF 8
ENDMDL
MODEL 9
REMARK VINA RESULT:      -4.8      9.113     10.967
REMARK  8 active torsions:
REMARK  status: ('A' for Active; 'I' for Inactive)
REMARK    1  A    between atoms: C_1  and  C_9 
REMARK       I    between atoms: C_3  and  N_4 
REMARK    2  A    between atoms: C_3  and  C_15 
REMARK    3  A    between atoms: N_4  and  C_9 
REMARK    4  A    between atoms: O_8  and  C_10 
REMARK    5  A    between atoms: C_9  and  C_10 
REMARK    6  A    between atoms: S_13  and  C_14 
REMARK    7  A    between atoms: C_14  and  C_15 
REMARK    8  A    between atoms: C_15  and  N_16 
ROOT
HETATM    1  H           1     -25.507  -7.171 -18.344  0.00  0.00     0.163 HD
HETATM    2  C           1     -27.094  -6.153 -19.198  0.00  0.00     0.249 C 
HETATM    3  N           1     -26.333  -6.617 -18.159  0.00  0.00    -0.343 N 
HETATM    4  O           1     -28.081  -5.493 -18.977  0.00  0.00    -0.271 OA
ENDROOT
BRANCH   2   5
HETATM    5  C           1     -26.699  -6.464 -20.621  0.00  0.00     0.283 C 
BRANCH   5   6
HETATM    6  C           1     -26.319  -7.935 -20.732  0.00  0.00     0.113 C 
BRANCH   6   7
HETATM    7  S           1     -24.596  -8.076 -21.284  0.00  0.00    -0.180 SA
HETATM    8  H           1     -24.266  -9.084 -20.456  0.00  0.00     0.101 HD
ENDBRANCH   6   7
ENDBRANCH   5   6
BRANCH   5   9
HETATM    9  N           1     -25.525  -5.615 -21.010  0.00  0.00    -0.066 N 
HETATM   10  H           1     -25.132  -5.153 -20.159  0.00  0.00     0.275 HD
HETATM   11  H           1     -25.834  -4.885 -21.691  0.00  0.00     0.275 HD
HETATM   12  H           1     -24.792  -6.215 -21.451  0.00  0.00     0.275 HD
ENDBRANCH   5   9
ENDBRANCH   2   5
BRANCH   3  13
HETATM   13  C           1     -26.714  -6.317 -16.792  0.00  0.00     0.209 C 
BRANCH  13  14
HETATM   14  C           1     -25.527  -6.523 -15.884  0.00  0.00     0.198 C 
HETATM   15  O           1     -25.102  -5.576 -15.186  0.00  0.00    -0.646 OA
HETATM   16  O           1     -24.969  -7.640 -15.828  0.00  0.00    -0.646 OA
ENDBRANCH  13  14
BRANCH  13  17
HETATM   17  C           1     -27.846  -7.243 -16.366  0.00  0.00     0.200 C 
BRANCH  17  18
HETATM   18  O           1     -27.735  -7.519 -14.996  0.00  0.00    -0.398 OA
HETATM   19  H           1     -28.364  -6.975 -14.555  0.00  0.00     0.209 HD
ENDBRANCH  17  18
ENDBRANCH  13  17
ENDBRANCH   3  13
TORSDOF 8
ENDMDL
