MODEL 1
REMARK VINA RESULT:      -6.3      0.000      0.000
REMARK  9 active torsions:
REMARK  status: ('A' for Active; 'I' for Inactive)
REMARK    1  A    between atoms: N_1  and  C_5 
REMARK       I    between atoms: N_1  and  C_23 
REMARK    2  A    between atoms: C_2  and  C_18 
REMARK    3  A    between atoms: C_2  and  O_3 
REMARK    4  A    between atoms: C_4  and  C_10 
REMARK    5  A    between atoms: C_4  and  C_5 
REMARK    6  A    between atoms: C_5  and  C_16 
REMARK       I    between atoms: N_6  and  C_21 
REMARK    7  A    between atoms: C_10  and  C_21 
REMARK    8  A    between atoms: C_18  and  C_23 
REMARK    9  A    between atoms: C_18  and  N_22 
ROOT
HETATM    1  N           1     -22.135  -4.962  -9.076  0.00  0.00    -0.345 N 
HETATM    2  O           1     -21.809  -3.714  -7.254  0.00  0.00    -0.271 OA
HETATM    3  H           1     -22.066  -5.871  -9.517  0.00  0.00     0.163 HD
HETATM    4  C           1     -21.727  -4.798  -7.780  0.00  0.00     0.251 C 
ENDROOT
BRANCH   1   5
HETATM    5  C           1     -22.663  -3.834  -9.819  0.00  0.00     0.186 C 
BRANCH   5   6
HETATM    6  C           1     -22.202  -3.920 -11.268  0.00  0.00     0.045 C 
BRANCH   6   7
HETATM    7  C           1     -22.473  -2.595 -11.967  0.00  0.00     0.105 C 
BRANCH   7   8
HETATM    8  C           1     -23.248  -2.846 -13.238  0.00  0.00     0.215 C 
HETATM    9  N           1     -22.582  -3.023 -14.422  0.00  0.00    -0.370 N 
HETATM   10  H           1     -21.571  -2.985 -14.444  0.00  0.00     0.159 HD
HETATM   11  H           1     -23.101  -3.191 -15.274  0.00  0.00     0.159 HD
HETATM   12  O           1     -24.455  -2.891 -13.212  0.00  0.00    -0.274 OA
ENDBRANCH   7   8
ENDBRANCH   6   7
ENDBRANCH   5   6
BRANCH   5  13
HETATM   13  C           1     -24.171  -3.863  -9.768  0.00  0.00     0.196 C 
HETATM   14  O           1     -24.807  -2.825  -9.482  0.00  0.00    -0.646 OA
HETATM   15  O           1     -24.784  -4.925 -10.013  0.00  0.00    -0.646 OA
ENDBRANCH   5  13
ENDBRANCH   1   5
BRANCH   4  16
HETATM   16  C           1     -21.177  -5.972  -7.007  0.00  0.00     0.297 C 
BRANCH  16  17
HETATM   17  C           1     -21.390  -5.743  -5.517  0.00  0.00     0.206 C 
BRANCH  17  18
HETATM   18  O           1     -22.738  -5.958  -5.197  0.00  0.00    -0.398 OA
HETATM   19  H           1     -23.219  -5.931  -6.006  0.00  0.00     0.209 HD
ENDBRANCH  17  18
ENDBRANCH  16  17
BRANCH  16  20
HETATM   20  N           1     -19.710  -6.111  -7.287  0.00  0.00    -0.064 N 
HETATM   21  H           1     -19.258  -6.652  -6.517  0.00  0.00     0.275 HD
HETATM   22  H           1     -19.276  -5.161  -7.347  0.00  0.00     0.275 HD
HETATM   23  H           1     -19.574  -6.613  -8.193  0.00  0.00     0.275 HD
ENDBRANCH  16  20
ENDBRANCH   4  16
TORSDOF 9
ENDMDL
MODEL 2
REMARK VINA RESULT:      -6.1      1.782      5.826
REMARK  9 active torsions:
REMARK  status: ('A' for Active; 'I' for Inactive)
REMARK    1  A    between atoms: N_1  and  C_5 
REMARK       I    between atoms: N_1  and  C_23 
REMARK    2  A    between atoms: C_2  and  C_18 
REMARK    3  A    between atoms: C_2  and  O_3 
REMARK    4  A    between atoms: C_4  and  C_10 
REMARK    5  A    between atoms: C_4  and  C_5 
REMARK    6  A    between atoms: C_5  and  C_16 
REMARK       I    between atoms: N_6  and  C_21 
REMARK    7  A    between atoms: C_10  and  C_21 
REMARK    8  A    between atoms: C_18  and  C_23 
REMARK    9  A    between atoms: C_18  and  N_22 
ROOT
HETATM    1  N           1     -22.217  -3.294 -10.185  0.00  0.00    -0.345 N 
HETATM    2  O           1     -22.631  -4.980 -11.589  0.00  0.00    -0.271 OA
HETATM    3  H           1     -22.151  -2.295 -10.040  0.00  0.00     0.163 HD
HETATM    4  C           1     -22.551  -3.788 -11.417  0.00  0.00     0.251 C 
ENDROOT
BRANCH   1   5
HETATM    5  C           1     -21.958  -4.204  -9.085  0.00  0.00     0.186 C 
BRANCH   5   6
HETATM    6  C           1     -20.750  -3.716  -8.297  0.00  0.00     0.045 C 
BRANCH   6   7
HETATM    7  C           1     -19.703  -4.820  -8.236  0.00  0.00     0.105 C 
BRANCH   7   8
HETATM    8  C           1     -19.829  -5.561  -6.927  0.00  0.00     0.215 C 
HETATM    9  N           1     -20.145  -4.879  -5.782  0.00  0.00    -0.370 N 
HETATM   10  H           1     -20.295  -3.879  -5.814  0.00  0.00     0.159 HD
HETATM   11  H           1     -20.229  -5.376  -4.905  0.00  0.00     0.159 HD
HETATM   12  O           1     -19.650  -6.756  -6.889  0.00  0.00    -0.274 OA
ENDBRANCH   7   8
ENDBRANCH   6   7
ENDBRANCH   5   6
BRANCH   5  13
HETATM   13  C           1     -23.164  -4.252  -8.179  0.00  0.00     0.196 C 
HETATM   14  O           1     -23.031  -4.566  -6.976  0.00  0.00    -0.646 OA
HETATM   15  O           1     -24.296  -3.977  -8.632  0.00  0.00    -0.646 OA
ENDBRANCH   5  13
ENDBRANCH   1   5
BRANCH   4  16
HETATM   16  C           1     -22.821  -2.841 -12.561  0.00  0.00     0.297 C 
BRANCH  16  17
HETATM   17  C           1     -24.323  -2.718 -12.774  0.00  0.00     0.206 C 
BRANCH  17  18
HETATM   18  O           1     -24.995  -3.101 -11.605  0.00  0.00    -0.398 OA
HETATM   19  H           1     -25.917  -3.071 -11.797  0.00  0.00     0.209 HD
ENDBRANCH  17  18
ENDBRANCH  16  17
BRANCH  16  20
HETATM   20  N           1     -22.181  -3.371 -13.810  0.00  0.00    -0.064 N 
HETATM   21  H           1     -21.960  -4.384 -13.684  0.00  0.00     0.275 HD
HETATM   22  H           1     -21.299  -2.843 -14.000  0.00  0.00     0.275 HD
HETATM   23  H           1     -22.836  -3.254 -14.615  0.00  0.00     0.275 HD
ENDBRANCH  16  20
ENDBRANCH   4  16
TORSDOF 9
ENDMDL
MODEL 3
REMARK VINA RESULT:      -5.3      2.257      3.468
REMARK  9 active torsions:
REMARK  status: ('A' for Active; 'I' for Inactive)
REMARK    1  A    between atoms: N_1  and  C_5 
REMARK       I    between atoms: N_1  and  C_23 
REMARK    2  A    between atoms: C_2  and  C_18 
REMARK    3  A    between atoms: C_2  and  O_3 
REMARK    4  A    between atoms: C_4  and  C_10 
REMARK    5  A    between atoms: C_4  and  C_5 
REMARK    6  A    between atoms: C_5  and  C_16 
REMARK       I    between atoms: N_6  and  C_21 
REMARK    7  A    between atoms: C_10  and  C_21 
REMARK    8  A    between atoms: C_18  and  C_23 
REMARK    9  A    between atoms: C_18  and  N_22 
ROOT
HETATM    1  N           1     -21.378  -4.973  -6.651  0.00  0.00    -0.345 N 
HETATM    2  O           1     -21.237  -7.195  -6.818  0.00  0.00    -0.271 OA
HETATM    3  H           1     -21.358  -4.154  -6.056  0.00  0.00     0.163 HD
HETATM    4  C           1     -21.214  -6.219  -6.108  0.00  0.00     0.251 C 
ENDROOT
BRANCH   1   5
HETATM    5  C           1     -21.581  -4.825  -8.080  0.00  0.00     0.186 C 
BRANCH   5   6
HETATM    6  C           1     -22.570  -3.696  -8.337  0.00  0.00     0.045 C 
BRANCH   6   7
HETATM    7  C           1     -23.769  -4.235  -9.106  0.00  0.00     0.105 C 
BRANCH   7   8
HETATM    8  C           1     -23.884  -3.515 -10.428  0.00  0.00     0.215 C 
HETATM    9  N           1     -22.756  -3.215 -11.145  0.00  0.00    -0.370 N 
HETATM   10  H           1     -21.845  -3.476 -10.788  0.00  0.00     0.159 HD
HETATM   11  H           1     -22.833  -2.733 -12.030  0.00  0.00     0.159 HD
HETATM   12  O           1     -24.971  -3.204 -10.854  0.00  0.00    -0.274 OA
ENDBRANCH   7   8
ENDBRANCH   6   7
ENDBRANCH   5   6
BRANCH   5  13
HETATM   13  C           1     -20.265  -4.503  -8.743  0.00  0.00     0.196 C 
HETATM   14  O           1     -20.141  -4.629  -9.981  0.00  0.00    -0.646 OA
HETATM   15  O           1     -19.298  -4.109  -8.054  0.00  0.00    -0.646 OA
ENDBRANCH   5  13
ENDBRANCH   1   5
BRANCH   4  16
HETATM   16  C           1     -21.002  -6.371  -4.621  0.00  0.00     0.297 C 
BRANCH  16  17
HETATM   17  C           1     -20.519  -7.784  -4.320  0.00  0.00     0.206 C 
BRANCH  17  18
HETATM   18  O           1     -21.615  -8.656  -4.283  0.00  0.00    -0.398 OA
HETATM   19  H           1     -21.606  -9.143  -5.089  0.00  0.00     0.209 HD
ENDBRANCH  17  18
ENDBRANCH  16  17
BRANCH  16  20
HETATM   20  N           1     -22.296  -6.122  -3.905  0.00  0.00    -0.064 N 
HETATM   21  H           1     -22.780  -7.032  -3.736  0.00  0.00     0.275 HD
HETATM   22  H           1     -22.904  -5.506  -4.490  0.00  0.00     0.275 HD
HETATM   23  H           1     -22.104  -5.654  -2.991  0.00  0.00     0.275 HD
ENDBRANCH  16  20
ENDBRANCH   4  16
TORSDOF 9
ENDMDL
MODEL 4
REMARK VINA RESULT:      -5.3      3.443      7.800
REMARK  9 active torsions:
REMARK  status: ('A' for Active; 'I' for Inactive)
REMARK    1  A    between atoms: N_1  and  C_5 
REMARK       I    between atoms: N_1  and  C_23 
REMARK    2  A    between atoms: C_2  and  C_18 
REMARK    3  A    between atoms: C_2  and  O_3 
REMARK    4  A    between atoms: C_4  and  C_10 
REMARK    5  A    between atoms: C_4  and  C_5 
REMARK    6  A    between atoms: C_5  and  C_16 
REMARK       I    between atoms: N_6  and  C_21 
REMARK    7  A    between atoms: C_10  and  C_21 
REMARK    8  A    between atoms: C_18  and  C_23 
REMARK    9  A    between atoms: C_18  and  N_22 
ROOT
HETATM    1  N           1     -21.565  -5.706  -5.838  0.00  0.00    -0.345 N 
HETATM    2  O           1     -19.713  -4.458  -5.817  0.00  0.00    -0.271 OA
HETATM    3  H           1     -22.448  -5.924  -6.284  0.00  0.00     0.163 HD
HETATM    4  C           1     -20.766  -4.719  -6.348  0.00  0.00     0.251 C 
ENDROOT
BRANCH   1   5
HETATM    5  C           1     -21.150  -6.438  -4.658  0.00  0.00     0.186 C 
BRANCH   5   6
HETATM    6  C           1     -22.304  -6.501  -3.667  0.00  0.00     0.045 C 
BRANCH   6   7
HETATM    7  C           1     -21.793  -6.175  -2.270  0.00  0.00     0.105 C 
BRANCH   7   8
HETATM    8  C           1     -22.152  -7.299  -1.328  0.00  0.00     0.215 C 
HETATM    9  N           1     -21.625  -8.548  -1.520  0.00  0.00    -0.370 N 
HETATM   10  H           1     -20.996  -8.718  -2.294  0.00  0.00     0.159 HD
HETATM   11  H           1     -21.866  -9.301  -0.889  0.00  0.00     0.159 HD
HETATM   12  O           1     -22.903  -7.096  -0.404  0.00  0.00    -0.274 OA
ENDBRANCH   7   8
ENDBRANCH   6   7
ENDBRANCH   5   6
BRANCH   5  13
HETATM   13  C           1     -20.748  -7.838  -5.052  0.00  0.00     0.196 C 
HETATM   14  O           1     -19.725  -8.023  -5.747  0.00  0.00    -0.646 OA
HETATM   15  O           1     -21.438  -8.814  -4.684  0.00  0.00    -0.646 OA
ENDBRANCH   5  13
ENDBRANCH   1   5
BRANCH   4  16
HETATM   16  C           1     -21.199  -3.956  -7.577  0.00  0.00     0.297 C 
BRANCH  16  17
HETATM   17  C           1     -22.464  -4.586  -8.145  0.00  0.00     0.206 C 
BRANCH  17  18
HETATM   18  O           1     -23.562  -4.229  -7.351  0.00  0.00    -0.398 OA
HETATM   19  H           1     -23.501  -3.302  -7.198  0.00  0.00     0.209 HD
ENDBRANCH  17  18
ENDBRANCH  16  17
BRANCH  16  20
HETATM   20  N           1     -20.109  -4.008  -8.607  0.00  0.00    -0.064 N 
HETATM   21  H           1     -19.890  -3.039  -8.929  0.00  0.00     0.275 HD
HETATM   22  H           1     -20.426  -4.583  -9.420  0.00  0.00     0.275 HD
HETATM   23  H           1     -19.254  -4.438  -8.188  0.00  0.00     0.275 HD
ENDBRANCH  16  20
ENDBRANCH   4  16
TORSDOF 9
ENDMDL
MODEL 5
REMARK VINA RESULT:      -5.2      1.719      2.316
REMARK  9 active torsions:
REMARK  status: ('A' for Active; 'I' for Inactive)
REMARK    1  A    between atoms: N_1  and  C_5 
REMARK       I    between atoms: N_1  and  C_23 
REMARK    2  A    between atoms: C_2  and  C_18 
REMARK    3  A    between atoms: C_2  and  O_3 
REMARK    4  A    between atoms: C_4  and  C_10 
REMARK    5  A    between atoms: C_4  and  C_5 
REMARK    6  A    between atoms: C_5  and  C_16 
REMARK       I    between atoms: N_6  and  C_21 
REMARK    7  A    between atoms: C_10  and  C_21 
REMARK    8  A    between atoms: C_18  and  C_23 
REMARK    9  A    between atoms: C_18  and  N_22 
ROOT
HETATM    1  N           1     -22.736  -4.676  -8.758  0.00  0.00    -0.345 N 
HETATM    2  O           1     -21.665  -3.365  -7.301  0.00  0.00    -0.271 OA
HETATM    3  H           1     -22.909  -5.612  -9.104  0.00  0.00     0.163 HD
HETATM    4  C           1     -21.872  -4.481  -7.714  0.00  0.00     0.251 C 
ENDROOT
BRANCH   1   5
HETATM    5  C           1     -23.402  -3.542  -9.371  0.00  0.00     0.186 C 
BRANCH   5   6
HETATM    6  C           1     -22.716  -3.201 -10.687  0.00  0.00     0.045 C 
BRANCH   6   7
HETATM    7  C           1     -21.919  -4.406 -11.172  0.00  0.00     0.105 C 
BRANCH   7   8
HETATM    8  C           1     -20.445  -4.088 -11.121  0.00  0.00     0.215 C 
HETATM    9  N           1     -20.001  -2.842 -11.475  0.00  0.00    -0.370 N 
HETATM   10  H           1     -20.661  -2.134 -11.771  0.00  0.00     0.159 HD
HETATM   11  H           1     -19.012  -2.629 -11.441  0.00  0.00     0.159 HD
HETATM   12  O           1     -19.657  -4.932 -10.767  0.00  0.00    -0.274 OA
ENDBRANCH   7   8
ENDBRANCH   6   7
ENDBRANCH   5   6
BRANCH   5  13
HETATM   13  C           1     -24.846  -3.890  -9.630  0.00  0.00     0.196 C 
HETATM   14  O           1     -25.210  -5.086  -9.635  0.00  0.00    -0.646 OA
HETATM   15  O           1     -25.680  -2.982  -9.840  0.00  0.00    -0.646 OA
ENDBRANCH   5  13
ENDBRANCH   1   5
BRANCH   4  16
HETATM   16  C           1     -21.180  -5.661  -7.077  0.00  0.00     0.297 C 
BRANCH  16  17
HETATM   17  C           1     -20.862  -5.339  -5.623  0.00  0.00     0.206 C 
BRANCH  17  18
HETATM   18  O           1     -20.561  -6.523  -4.936  0.00  0.00    -0.398 OA
HETATM   19  H           1     -20.937  -6.444  -4.075  0.00  0.00     0.209 HD
ENDBRANCH  17  18
ENDBRANCH  16  17
BRANCH  16  20
HETATM   20  N           1     -19.906  -5.950  -7.815  0.00  0.00    -0.064 N 
HETATM   21  H           1     -19.090  -5.706  -7.209  0.00  0.00     0.275 HD
HETATM   22  H           1     -19.874  -5.379  -8.690  0.00  0.00     0.275 HD
HETATM   23  H           1     -19.867  -6.964  -8.060  0.00  0.00     0.275 HD
ENDBRANCH  16  20
ENDBRANCH   4  16
TORSDOF 9
ENDMDL
MODEL 6
REMARK VINA RESULT:      -5.2      2.365      3.151
REMARK  9 active torsions:
REMARK  status: ('A' for Active; 'I' for Inactive)
REMARK    1  A    between atoms: N_1  and  C_5 
REMARK       I    between atoms: N_1  and  C_23 
REMARK    2  A    between atoms: C_2  and  C_18 
REMARK    3  A    between atoms: C_2  and  O_3 
REMARK    4  A    between atoms: C_4  and  C_10 
REMARK    5  A    between atoms: C_4  and  C_5 
REMARK    6  A    between atoms: C_5  and  C_16 
REMARK       I    between atoms: N_6  and  C_21 
REMARK    7  A    between atoms: C_10  and  C_21 
REMARK    8  A    between atoms: C_18  and  C_23 
REMARK    9  A    between atoms: C_18  and  N_22 
ROOT
HETATM    1  N           1     -21.878  -4.283  -9.198  0.00  0.00    -0.345 N 
HETATM    2  O           1     -20.020  -5.351  -8.570  0.00  0.00    -0.271 OA
HETATM    3  H           1     -22.683  -3.732  -8.930  0.00  0.00     0.163 HD
HETATM    4  C           1     -20.981  -4.694  -8.249  0.00  0.00     0.251 C 
ENDROOT
BRANCH   1   5
HETATM    5  C           1     -21.675  -4.638 -10.590  0.00  0.00     0.186 C 
BRANCH   5   6
HETATM    6  C           1     -23.019  -4.944 -11.236  0.00  0.00     0.045 C 
BRANCH   6   7
HETATM    7  C           1     -24.112  -4.909 -10.177  0.00  0.00     0.105 C 
BRANCH   7   8
HETATM    8  C           1     -24.803  -3.567 -10.211  0.00  0.00     0.215 C 
HETATM    9  N           1     -25.100  -2.920  -9.041  0.00  0.00    -0.370 N 
HETATM   10  H           1     -24.857  -3.342  -8.154  0.00  0.00     0.159 HD
HETATM   11  H           1     -25.563  -2.021  -9.064  0.00  0.00     0.159 HD
HETATM   12  O           1     -25.094  -3.064 -11.270  0.00  0.00    -0.274 OA
ENDBRANCH   7   8
ENDBRANCH   6   7
ENDBRANCH   5   6
BRANCH   5  13
HETATM   13  C           1     -21.020  -3.485 -11.311  0.00  0.00     0.196 C 
HETATM   14  O           1     -19.806  -3.539 -11.603  0.00  0.00    -0.646 OA
HETATM   15  O           1     -21.693  -2.477 -11.616  0.00  0.00    -0.646 OA
ENDBRANCH   5  13
ENDBRANCH   1   5
BRANCH   4  16
HETATM   16  C           1     -21.193  -4.324  -6.801  0.00  0.00     0.297 C 
BRANCH  16  17
HETATM   17  C           1     -19.996  -4.784  -5.980  0.00  0.00     0.206 C 
BRANCH  17  18
HETATM   18  O           1     -20.131  -6.145  -5.675  0.00  0.00    -0.398 OA
HETATM   19  H           1     -20.302  -6.592  -6.486  0.00  0.00     0.209 HD
ENDBRANCH  17  18
ENDBRANCH  16  17
BRANCH  16  20
HETATM   20  N           1     -22.435  -4.994  -6.292  0.00  0.00    -0.064 N 
HETATM   21  H           1     -23.078  -5.187  -7.091  0.00  0.00     0.275 HD
HETATM   22  H           1     -22.911  -4.366  -5.604  0.00  0.00     0.275 HD
HETATM   23  H           1     -22.180  -5.892  -5.824  0.00  0.00     0.275 HD
ENDBRANCH  16  20
ENDBRANCH   4  16
TORSDOF 9
ENDMDL
MODEL 7
REMARK VINA RESULT:      -5.2      6.244      9.157
REMARK  9 active torsions:
REMARK  status: ('A' for Active; 'I' for Inactive)
REMARK    1  A    between atoms: N_1  and  C_5 
REMARK       I    between atoms: N_1  and  C_23 
REMARK    2  A    between atoms: C_2  and  C_18 
REMARK    3  A    between atoms: C_2  and  O_3 
REMARK    4  A    between atoms: C_4  and  C_10 
REMARK    5  A    between atoms: C_4  and  C_5 
REMARK    6  A    between atoms: C_5  and  C_16 
REMARK       I    between atoms: N_6  and  C_21 
REMARK    7  A    between atoms: C_10  and  C_21 
REMARK    8  A    between atoms: C_18  and  C_23 
REMARK    9  A    between atoms: C_18  and  N_22 
ROOT
HETATM    1  N           1     -21.816  -9.256  -1.535  0.00  0.00    -0.345 N 
HETATM    2  O           1     -20.893  -9.709   0.447  0.00  0.00    -0.271 OA
HETATM    3  H           1     -22.413  -9.561  -2.294  0.00  0.00     0.163 HD
HETATM    4  C           1     -21.606 -10.073  -0.457  0.00  0.00     0.251 C 
ENDROOT
BRANCH   1   5
HETATM    5  C           1     -21.181  -7.953  -1.592  0.00  0.00     0.186 C 
BRANCH   5   6
HETATM    6  C           1     -20.597  -7.733  -2.981  0.00  0.00     0.045 C 
BRANCH   6   7
HETATM    7  C           1     -21.499  -8.385  -4.021  0.00  0.00     0.105 C 
BRANCH   7   8
HETATM    8  C           1     -21.756  -7.411  -5.145  0.00  0.00     0.215 C 
HETATM    9  N           1     -22.574  -6.331  -4.942  0.00  0.00    -0.370 N 
HETATM   10  H           1     -23.006  -6.187  -4.038  0.00  0.00     0.159 HD
HETATM   11  H           1     -22.746  -5.679  -5.695  0.00  0.00     0.159 HD
HETATM   12  O           1     -21.241  -7.583  -6.224  0.00  0.00    -0.274 OA
ENDBRANCH   7   8
ENDBRANCH   6   7
ENDBRANCH   5   6
BRANCH   5  13
HETATM   13  C           1     -22.206  -6.884  -1.302  0.00  0.00     0.196 C 
HETATM   14  O           1     -22.204  -5.821  -1.961  0.00  0.00    -0.646 OA
HETATM   15  O           1     -23.057  -7.062  -0.404  0.00  0.00    -0.646 OA
ENDBRANCH   5  13
ENDBRANCH   1   5
BRANCH   4  16
HETATM   16  C           1     -22.266 -11.429  -0.399  0.00  0.00     0.297 C 
BRANCH  16  17
HETATM   17  C           1     -23.770 -11.254  -0.238  0.00  0.00     0.206 C 
BRANCH  17  18
HETATM   18  O           1     -24.049  -9.942   0.169  0.00  0.00    -0.398 OA
HETATM   19  H           1     -24.979  -9.822   0.088  0.00  0.00     0.209 HD
ENDBRANCH  17  18
ENDBRANCH  16  17
BRANCH  16  20
HETATM   20  N           1     -21.724 -12.198   0.769  0.00  0.00    -0.064 N 
HETATM   21  H           1     -22.057 -13.187   0.720  0.00  0.00     0.275 HD
HETATM   22  H           1     -22.058 -11.762   1.658  0.00  0.00     0.275 HD
HETATM   23  H           1     -20.680 -12.181   0.744  0.00  0.00     0.275 HD
ENDBRANCH  16  20
ENDBRANCH   4  16
TORSDOF 9
ENDMDL
MODEL 8
REMARK VINA RESULT:      -5.0      1.639      2.160
REMARK  9 active torsions:
REMARK  status: ('A' for Active; 'I' for Inactive)
REMARK    1  A    between atoms: N_1  and  C_5 
REMARK       I    between atoms: N_1  and  C_23 
REMARK    2  A    between atoms: C_2  and  C_18 
REMARK    3  A    between atoms: C_2  and  O_3 
REMARK    4  A    between atoms: C_4  and  C_10 
REMARK    5  A    between atoms: C_4  and  C_5 
REMARK    6  A    between atoms: C_5  and  C_16 
REMARK       I    between atoms: N_6  and  C_21 
REMARK    7  A    between atoms: C_10  and  C_21 
REMARK    8  A    between atoms: C_18  and  C_23 
REMARK    9  A    between atoms: C_18  and  N_22 
ROOT
HETATM    1  N           1     -22.151  -4.133  -9.545  0.00  0.00    -0.345 N 
HETATM    2  O           1     -22.393  -2.918  -7.687  0.00  0.00    -0.271 OA
HETATM    3  H           1     -21.694  -4.907 -10.010  0.00  0.00     0.163 HD
HETATM    4  C           1     -21.849  -3.842  -8.242  0.00  0.00     0.251 C 
ENDROOT
BRANCH   1   5
HETATM    5  C           1     -23.124  -3.330 -10.261  0.00  0.00     0.186 C 
BRANCH   5   6
HETATM    6  C           1     -22.837  -3.398 -11.755  0.00  0.00     0.045 C 
BRANCH   6   7
HETATM    7  C           1     -24.031  -2.852 -12.526  0.00  0.00     0.105 C 
BRANCH   7   8
HETATM    8  C           1     -23.559  -2.263 -13.834  0.00  0.00     0.215 C 
HETATM    9  N           1     -24.089  -1.083 -14.283  0.00  0.00    -0.370 N 
HETATM   10  H           1     -24.797  -0.606 -13.740  0.00  0.00     0.159 HD
HETATM   11  H           1     -23.773  -0.688 -15.160  0.00  0.00     0.159 HD
HETATM   12  O           1     -22.714  -2.832 -14.483  0.00  0.00    -0.274 OA
ENDBRANCH   7   8
ENDBRANCH   6   7
ENDBRANCH   5   6
BRANCH   5  13
HETATM   13  C           1     -24.509  -3.862  -9.989  0.00  0.00     0.196 C 
HETATM   14  O           1     -24.713  -5.095  -9.970  0.00  0.00    -0.646 OA
HETATM   15  O           1     -25.453  -3.068  -9.781  0.00  0.00    -0.646 OA
ENDBRANCH   5  13
ENDBRANCH   1   5
BRANCH   4  16
HETATM   16  C           1     -20.836  -4.678  -7.497  0.00  0.00     0.297 C 
BRANCH  16  17
HETATM   17  C           1     -19.467  -4.510  -8.144  0.00  0.00     0.206 C 
BRANCH  17  18
HETATM   18  O           1     -19.503  -5.008  -9.453  0.00  0.00    -0.398 OA
HETATM   19  H           1     -20.297  -4.689  -9.847  0.00  0.00     0.209 HD
ENDBRANCH  17  18
ENDBRANCH  16  17
BRANCH  16  20
HETATM   20  N           1     -21.242  -6.121  -7.554  0.00  0.00    -0.064 N 
HETATM   21  H           1     -20.876  -6.551  -8.432  0.00  0.00     0.275 HD
HETATM   22  H           1     -22.285  -6.189  -7.539  0.00  0.00     0.275 HD
HETATM   23  H           1     -20.848  -6.626  -6.728  0.00  0.00     0.275 HD
ENDBRANCH  16  20
ENDBRANCH   4  16
TORSDOF 9
ENDMDL
MODEL 9
REMARK VINA RESULT:      -4.8      6.015      8.658
REMARK  9 active torsions:
REMARK  status: ('A' for Active; 'I' for Inactive)
REMARK    1  A    between atoms: N_1  and  C_5 
REMARK       I    between atoms: N_1  and  C_23 
REMARK    2  A    between atoms: C_2  and  C_18 
REMARK    3  A    between atoms: C_2  and  O_3 
REMARK    4  A    between atoms: C_4  and  C_10 
REMARK    5  A    between atoms: C_4  and  C_5 
REMARK    6  A    between atoms: C_5  and  C_16 
REMARK       I    between atoms: N_6  and  C_21 
REMARK    7  A    between atoms: C_10  and  C_21 
REMARK    8  A    between atoms: C_18  and  C_23 
REMARK    9  A    between atoms: C_18  and  N_22 
ROOT
HETATM    1  N           1     -20.740  -8.181  -4.313  0.00  0.00    -0.345 N 
HETATM    2  O           1     -21.900  -9.825  -3.347  0.00  0.00    -0.271 OA
HETATM    3  H           1     -19.925  -7.904  -4.847  0.00  0.00     0.163 HD
HETATM    4  C           1     -20.929  -9.496  -3.983  0.00  0.00     0.251 C 
ENDROOT
BRANCH   1   5
HETATM    5  C           1     -21.706  -7.182  -3.898  0.00  0.00     0.186 C 
BRANCH   5   6
HETATM    6  C           1     -21.204  -6.480  -2.644  0.00  0.00     0.045 C 
BRANCH   6   7
HETATM    7  C           1     -22.328  -6.402  -1.620  0.00  0.00     0.105 C 
BRANCH   7   8
HETATM    8  C           1     -22.166  -7.511  -0.609  0.00  0.00     0.215 C 
HETATM    9  N           1     -21.027  -8.272  -0.604  0.00  0.00    -0.370 N 
HETATM   10  H           1     -20.295  -8.090  -1.279  0.00  0.00     0.159 HD
HETATM   11  H           1     -20.919  -9.015   0.073  0.00  0.00     0.159 HD
HETATM   12  O           1     -23.041  -7.727   0.196  0.00  0.00    -0.274 OA
ENDBRANCH   7   8
ENDBRANCH   6   7
ENDBRANCH   5   6
BRANCH   5  13
HETATM   13  C           1     -21.888  -6.171  -5.004  0.00  0.00     0.196 C 
HETATM   14  O           1     -20.894  -5.591  -5.490  0.00  0.00    -0.646 OA
HETATM   15  O           1     -23.034  -5.916  -5.434  0.00  0.00    -0.646 OA
ENDBRANCH   5  13
ENDBRANCH   1   5
BRANCH   4  16
HETATM   16  C           1     -19.922 -10.534  -4.415  0.00  0.00     0.297 C 
BRANCH  16  17
HETATM   17  C           1     -18.668 -10.413  -3.559  0.00  0.00     0.206 C 
BRANCH  17  18
HETATM   18  O           1     -18.974  -9.728  -2.375  0.00  0.00    -0.398 OA
HETATM   19  H           1     -19.624 -10.239  -1.923  0.00  0.00     0.209 HD
ENDBRANCH  17  18
ENDBRANCH  16  17
BRANCH  16  20
HETATM   20  N           1     -19.567 -10.315  -5.856  0.00  0.00    -0.064 N 
HETATM   21  H           1     -18.573 -10.596  -6.016  0.00  0.00     0.275 HD
HETATM   22  H           1     -19.687  -9.305  -6.094  0.00  0.00     0.275 HD
HETATM   23  H           1     -20.193 -10.892  -6.461  0.00  0.00     0.275 HD
ENDBRANCH  16  20
ENDBRANCH   4  16
TORSDOF 9
ENDMDL
