MODEL 1
REMARK VINA RESULT:      -5.5      0.000      0.000
REMARK  8 active torsions:
REMARK  status: ('A' for Active; 'I' for Inactive)
REMARK    1  A    between atoms: C_2  and  S_12 
REMARK    2  A    between atoms: C_2  and  C_3 
REMARK    3  A    between atoms: C_3  and  C_19 
REMARK    4  A    between atoms: C_3  and  N_15 
REMARK    5  A    between atoms: C_4  and  C_16 
REMARK    6  A    between atoms: C_4  and  C_5 
REMARK    7  A    between atoms: C_4  and  N_9 
REMARK    8  A    between atoms: C_5  and  C_6 
REMARK       I    between atoms: N_15  and  C_16 
ROOT
HETATM    1  O           1     -23.597  -4.543 -10.342  0.00  0.00    -0.271 OA
HETATM    2  N           1     -21.502  -3.984  -9.807  0.00  0.00    -0.344 N 
HETATM    3  C           1     -22.610  -3.898 -10.606  0.00  0.00     0.249 C 
HETATM    4  H           1     -20.676  -3.442 -10.029  0.00  0.00     0.163 HD
ENDROOT
BRANCH   3   5
HETATM    5  C           1     -22.601  -2.998 -11.817  0.00  0.00     0.284 C 
BRANCH   5   6
HETATM    6  C           1     -24.006  -2.912 -12.399  0.00  0.00     0.155 C 
BRANCH   6   7
HETATM    7  C           1     -23.922  -2.803 -13.901  0.00  0.00     0.175 C 
HETATM    8  O           1     -23.773  -1.685 -14.439  0.00  0.00    -0.648 OA
HETATM    9  O           1     -24.002  -3.831 -14.609  0.00  0.00    -0.648 OA
ENDBRANCH   6   7
ENDBRANCH   5   6
BRANCH   5  10
HETATM   10  N           1     -21.666  -3.558 -12.848  0.00  0.00    -0.066 N 
HETATM   11  H           1     -21.898  -3.155 -13.784  0.00  0.00     0.275 HD
HETATM   12  H           1     -20.682  -3.311 -12.597  0.00  0.00     0.275 HD
HETATM   13  H           1     -21.766  -4.598 -12.880  0.00  0.00     0.275 HD
ENDBRANCH   5  10
ENDBRANCH   3   5
BRANCH   2  14
HETATM   14  C           1     -21.512  -4.849  -8.644  0.00  0.00     0.194 C 
BRANCH  14  15
HETATM   15  C           1     -20.081  -5.228  -8.283  0.00  0.00     0.106 C 
BRANCH  15  16
HETATM   16  S           1     -20.072  -6.118  -6.701  0.00  0.00    -0.180 SA
HETATM   17  H           1     -20.798  -7.168  -7.126  0.00  0.00     0.101 HD
ENDBRANCH  15  16
ENDBRANCH  14  15
BRANCH  14  18
HETATM   18  C           1     -22.149  -4.124  -7.484  0.00  0.00     0.197 C 
HETATM   19  O           1     -23.243  -4.519  -7.026  0.00  0.00    -0.646 OA
HETATM   20  O           1     -21.584  -3.130  -6.983  0.00  0.00    -0.646 OA
ENDBRANCH  14  18
ENDBRANCH   2  14
TORSDOF 8
ENDMDL
MODEL 2
REMARK VINA RESULT:      -5.5     12.584     13.785
REMARK  8 active torsions:
REMARK  status: ('A' for Active; 'I' for Inactive)
REMARK    1  A    between atoms: C_2  and  S_12 
REMARK    2  A    between atoms: C_2  and  C_3 
REMARK    3  A    between atoms: C_3  and  C_19 
REMARK    4  A    between atoms: C_3  and  N_15 
REMARK    5  A    between atoms: C_4  and  C_16 
REMARK    6  A    between atoms: C_4  and  C_5 
REMARK    7  A    between atoms: C_4  and  N_9 
REMARK    8  A    between atoms: C_5  and  C_6 
REMARK       I    between atoms: N_15  and  C_16 
ROOT
HETATM    1  O           1     -33.524  -1.384 -10.743  0.00  0.00    -0.271 OA
HETATM    2  N           1     -35.619  -1.725 -11.437  0.00  0.00    -0.344 N 
HETATM    3  C           1     -34.403  -2.173 -10.994  0.00  0.00     0.249 C 
HETATM    4  H           1     -36.356  -2.387 -11.647  0.00  0.00     0.163 HD
ENDROOT
BRANCH   3   5
HETATM    5  C           1     -34.162  -3.652 -10.820  0.00  0.00     0.284 C 
BRANCH   5   6
HETATM    6  C           1     -33.386  -4.186 -12.016  0.00  0.00     0.155 C 
BRANCH   6   7
HETATM    7  C           1     -34.304  -4.282 -13.209  0.00  0.00     0.175 C 
HETATM    8  O           1     -34.351  -3.347 -14.038  0.00  0.00    -0.648 OA
HETATM    9  O           1     -35.018  -5.295 -13.370  0.00  0.00    -0.648 OA
ENDBRANCH   6   7
ENDBRANCH   5   6
BRANCH   5  10
HETATM   10  N           1     -35.478  -4.364 -10.719  0.00  0.00    -0.066 N 
HETATM   11  H           1     -35.312  -5.388 -10.596  0.00  0.00     0.275 HD
HETATM   12  H           1     -36.011  -3.998  -9.898  0.00  0.00     0.275 HD
HETATM   13  H           1     -36.029  -4.201 -11.592  0.00  0.00     0.275 HD
ENDBRANCH   5  10
ENDBRANCH   3   5
BRANCH   2  14
HETATM   14  C           1     -35.850  -0.303 -11.605  0.00  0.00     0.194 C 
BRANCH  14  15
HETATM   15  C           1     -36.417  -0.043 -12.995  0.00  0.00     0.106 C 
BRANCH  15  16
HETATM   16  S           1     -35.102   0.587 -14.076  0.00  0.00    -0.180 SA
HETATM   17  H           1     -35.720   0.294 -15.235  0.00  0.00     0.101 HD
ENDBRANCH  15  16
ENDBRANCH  14  15
BRANCH  14  18
HETATM   18  C           1     -36.834   0.172 -10.563  0.00  0.00     0.197 C 
HETATM   19  O           1     -36.472   0.296  -9.373  0.00  0.00    -0.646 OA
HETATM   20  O           1     -38.009   0.441 -10.891  0.00  0.00    -0.646 OA
ENDBRANCH  14  18
ENDBRANCH   2  14
TORSDOF 8
ENDMDL
MODEL 3
REMARK VINA RESULT:      -5.5     12.183     13.691
REMARK  8 active torsions:
REMARK  status: ('A' for Active; 'I' for Inactive)
REMARK    1  A    between atoms: C_2  and  S_12 
REMARK    2  A    between atoms: C_2  and  C_3 
REMARK    3  A    between atoms: C_3  and  C_19 
REMARK    4  A    between atoms: C_3  and  N_15 
REMARK    5  A    between atoms: C_4  and  C_16 
REMARK    6  A    between atoms: C_4  and  C_5 
REMARK    7  A    between atoms: C_4  and  N_9 
REMARK    8  A    between atoms: C_5  and  C_6 
REMARK       I    between atoms: N_15  and  C_16 
ROOT
HETATM    1  O           1     -33.882  -2.047 -11.303  0.00  0.00    -0.271 OA
HETATM    2  N           1     -34.991  -1.611 -13.193  0.00  0.00    -0.344 N 
HETATM    3  C           1     -34.333  -2.462 -12.345  0.00  0.00     0.249 C 
HETATM    4  H           1     -35.369  -1.959 -14.065  0.00  0.00     0.163 HD
ENDROOT
BRANCH   3   5
HETATM    5  C           1     -34.172  -3.917 -12.710  0.00  0.00     0.284 C 
BRANCH   5   6
HETATM    6  C           1     -33.151  -4.564 -11.784  0.00  0.00     0.155 C 
BRANCH   6   7
HETATM    7  C           1     -33.827  -5.628 -10.955  0.00  0.00     0.175 C 
HETATM    8  O           1     -34.935  -5.396 -10.425  0.00  0.00    -0.648 OA
HETATM    9  O           1     -33.279  -6.741 -10.797  0.00  0.00    -0.648 OA
ENDBRANCH   6   7
ENDBRANCH   5   6
BRANCH   5  10
HETATM   10  N           1     -33.699  -4.025 -14.130  0.00  0.00    -0.066 N 
HETATM   11  H           1     -33.891  -4.988 -14.488  0.00  0.00     0.275 HD
HETATM   12  H           1     -34.207  -3.328 -14.720  0.00  0.00     0.275 HD
HETATM   13  H           1     -32.673  -3.834 -14.170  0.00  0.00     0.275 HD
ENDBRANCH   5  10
ENDBRANCH   3   5
BRANCH   2  14
HETATM   14  C           1     -35.145  -0.213 -12.841  0.00  0.00     0.194 C 
BRANCH  14  15
HETATM   15  C           1     -35.277   0.617 -14.111  0.00  0.00     0.106 C 
BRANCH  15  16
HETATM   16  S           1     -35.662  -0.474 -15.509  0.00  0.00    -0.180 SA
HETATM   17  H           1     -34.828   0.117 -16.384  0.00  0.00     0.101 HD
ENDBRANCH  15  16
ENDBRANCH  14  15
BRANCH  14  18
HETATM   18  C           1     -36.383  -0.041 -11.995  0.00  0.00     0.197 C 
HETATM   19  O           1     -37.496  -0.396 -12.439  0.00  0.00    -0.646 OA
HETATM   20  O           1     -36.294   0.456 -10.852  0.00  0.00    -0.646 OA
ENDBRANCH  14  18
ENDBRANCH   2  14
TORSDOF 8
ENDMDL
MODEL 4
REMARK VINA RESULT:      -5.5      3.232      6.704
REMARK  8 active torsions:
REMARK  status: ('A' for Active; 'I' for Inactive)
REMARK    1  A    between atoms: C_2  and  S_12 
REMARK    2  A    between atoms: C_2  and  C_3 
REMARK    3  A    between atoms: C_3  and  C_19 
REMARK    4  A    between atoms: C_3  and  N_15 
REMARK    5  A    between atoms: C_4  and  C_16 
REMARK    6  A    between atoms: C_4  and  C_5 
REMARK    7  A    between atoms: C_4  and  N_9 
REMARK    8  A    between atoms: C_5  and  C_6 
REMARK       I    between atoms: N_15  and  C_16 
ROOT
HETATM    1  O           1     -21.463  -3.172  -7.212  0.00  0.00    -0.271 OA
HETATM    2  N           1     -22.184  -4.765  -8.602  0.00  0.00    -0.344 N 
HETATM    3  C           1     -21.587  -4.352  -7.441  0.00  0.00     0.249 C 
HETATM    4  H           1     -22.288  -5.754  -8.793  0.00  0.00     0.163 HD
ENDROOT
BRANCH   3   5
HETATM    5  C           1     -21.083  -5.370  -6.448  0.00  0.00     0.284 C 
BRANCH   5   6
HETATM    6  C           1     -22.262  -5.983  -5.705  0.00  0.00     0.155 C 
BRANCH   6   7
HETATM    7  C           1     -21.794  -6.527  -4.378  0.00  0.00     0.175 C 
HETATM    8  O           1     -20.975  -7.471  -4.345  0.00  0.00    -0.648 OA
HETATM    9  O           1     -22.223  -6.034  -3.313  0.00  0.00    -0.648 OA
ENDBRANCH   6   7
ENDBRANCH   5   6
BRANCH   5  10
HETATM   10  N           1     -20.168  -4.698  -5.466  0.00  0.00    -0.066 N 
HETATM   11  H           1     -20.642  -4.633  -4.537  0.00  0.00     0.275 HD
HETATM   12  H           1     -19.290  -5.257  -5.371  0.00  0.00     0.275 HD
HETATM   13  H           1     -19.935  -3.739  -5.809  0.00  0.00     0.275 HD
ENDBRANCH   5  10
ENDBRANCH   3   5
BRANCH   2  14
HETATM   14  C           1     -22.668  -3.786  -9.556  0.00  0.00     0.194 C 
BRANCH  14  15
HETATM   15  C           1     -22.061  -4.070 -10.924  0.00  0.00     0.106 C 
BRANCH  15  16
HETATM   16  S           1     -22.623  -2.815 -12.108  0.00  0.00    -0.180 SA
HETATM   17  H           1     -21.821  -1.831 -11.663  0.00  0.00     0.101 HD
ENDBRANCH  15  16
ENDBRANCH  14  15
BRANCH  14  18
HETATM   18  C           1     -24.172  -3.872  -9.645  0.00  0.00     0.197 C 
HETATM   19  O           1     -24.870  -2.859  -9.420  0.00  0.00    -0.646 OA
HETATM   20  O           1     -24.719  -4.955  -9.943  0.00  0.00    -0.646 OA
ENDBRANCH  14  18
ENDBRANCH   2  14
TORSDOF 8
ENDMDL
MODEL 5
REMARK VINA RESULT:      -5.3      2.225      2.763
REMARK  8 active torsions:
REMARK  status: ('A' for Active; 'I' for Inactive)
REMARK    1  A    between atoms: C_2  and  S_12 
REMARK    2  A    between atoms: C_2  and  C_3 
REMARK    3  A    between atoms: C_3  and  C_19 
REMARK    4  A    between atoms: C_3  and  N_15 
REMARK    5  A    between atoms: C_4  and  C_16 
REMARK    6  A    between atoms: C_4  and  C_5 
REMARK    7  A    between atoms: C_4  and  N_9 
REMARK    8  A    between atoms: C_5  and  C_6 
REMARK       I    between atoms: N_15  and  C_16 
ROOT
HETATM    1  O           1     -23.115  -3.215  -8.469  0.00  0.00    -0.271 OA
HETATM    2  N           1     -22.228  -5.250  -8.714  0.00  0.00    -0.344 N 
HETATM    3  C           1     -23.171  -4.299  -8.999  0.00  0.00     0.249 C 
HETATM    4  H           1     -22.275  -6.158  -9.159  0.00  0.00     0.163 HD
ENDROOT
BRANCH   3   5
HETATM    5  C           1     -24.280  -4.605  -9.976  0.00  0.00     0.284 C 
BRANCH   5   6
HETATM    6  C           1     -23.718  -4.638 -11.391  0.00  0.00     0.155 C 
BRANCH   6   7
HETATM    7  C           1     -24.010  -3.328 -12.079  0.00  0.00     0.175 C 
HETATM    8  O           1     -25.070  -3.185 -12.725  0.00  0.00    -0.648 OA
HETATM    9  O           1     -23.193  -2.385 -12.003  0.00  0.00    -0.648 OA
ENDBRANCH   6   7
ENDBRANCH   5   6
BRANCH   5  10
HETATM   10  N           1     -25.335  -3.542  -9.882  0.00  0.00    -0.066 N 
HETATM   11  H           1     -25.910  -3.698  -9.023  0.00  0.00     0.275 HD
HETATM   12  H           1     -24.879  -2.603  -9.828  0.00  0.00     0.275 HD
HETATM   13  H           1     -25.947  -3.584 -10.727  0.00  0.00     0.275 HD
ENDBRANCH   5  10
ENDBRANCH   3   5
BRANCH   2  14
HETATM   14  C           1     -21.163  -4.956  -7.775  0.00  0.00     0.194 C 
BRANCH  14  15
HETATM   15  C           1     -20.896  -6.182  -6.912  0.00  0.00     0.106 C 
BRANCH  15  16
HETATM   16  S           1     -21.208  -5.776  -5.171  0.00  0.00    -0.180 SA
HETATM   17  H           1     -22.549  -5.860  -5.245  0.00  0.00     0.101 HD
ENDBRANCH  15  16
ENDBRANCH  14  15
BRANCH  14  18
HETATM   18  C           1     -19.911  -4.592  -8.535  0.00  0.00     0.197 C 
HETATM   19  O           1     -18.926  -4.120  -7.926  0.00  0.00    -0.646 OA
HETATM   20  O           1     -19.859  -4.762  -9.771  0.00  0.00    -0.646 OA
ENDBRANCH  14  18
ENDBRANCH   2  14
TORSDOF 8
ENDMDL
MODEL 6
REMARK VINA RESULT:      -5.1     12.391     14.357
REMARK  8 active torsions:
REMARK  status: ('A' for Active; 'I' for Inactive)
REMARK    1  A    between atoms: C_2  and  S_12 
REMARK    2  A    between atoms: C_2  and  C_3 
REMARK    3  A    between atoms: C_3  and  C_19 
REMARK    4  A    between atoms: C_3  and  N_15 
REMARK    5  A    between atoms: C_4  and  C_16 
REMARK    6  A    between atoms: C_4  and  C_5 
REMARK    7  A    between atoms: C_4  and  N_9 
REMARK    8  A    between atoms: C_5  and  C_6 
REMARK       I    between atoms: N_15  and  C_16 
ROOT
HETATM    1  O           1     -36.256  -1.518 -12.061  0.00  0.00    -0.271 OA
HETATM    2  N           1     -34.775  -1.410 -13.729  0.00  0.00    -0.344 N 
HETATM    3  C           1     -35.181  -1.852 -12.498  0.00  0.00     0.249 C 
HETATM    4  H           1     -33.874  -1.692 -14.096  0.00  0.00     0.163 HD
ENDROOT
BRANCH   3   5
HETATM    5  C           1     -34.286  -2.758 -11.689  0.00  0.00     0.284 C 
BRANCH   5   6
HETATM    6  C           1     -35.107  -3.908 -11.119  0.00  0.00     0.155 C 
BRANCH   6   7
HETATM    7  C           1     -34.204  -5.086 -10.849  0.00  0.00     0.175 C 
HETATM    8  O           1     -34.616  -6.044 -10.160  0.00  0.00    -0.648 OA
HETATM    9  O           1     -33.043  -5.104 -11.314  0.00  0.00    -0.648 OA
ENDBRANCH   6   7
ENDBRANCH   5   6
BRANCH   5  10
HETATM   10  N           1     -33.671  -1.978 -10.565  0.00  0.00    -0.066 N 
HETATM   11  H           1     -33.874  -0.961 -10.696  0.00  0.00     0.275 HD
HETATM   12  H           1     -34.076  -2.298  -9.656  0.00  0.00     0.275 HD
HETATM   13  H           1     -32.638  -2.131 -10.559  0.00  0.00     0.275 HD
ENDBRANCH   5  10
ENDBRANCH   3   5
BRANCH   2  14
HETATM   14  C           1     -35.636  -0.539 -14.506  0.00  0.00     0.194 C 
BRANCH  14  15
HETATM   15  C           1     -35.008   0.845 -14.595  0.00  0.00     0.106 C 
BRANCH  15  16
HETATM   16  S           1     -35.976   1.878 -15.730  0.00  0.00    -0.180 SA
HETATM   17  H           1     -36.557   2.630 -14.777  0.00  0.00     0.101 HD
ENDBRANCH  15  16
ENDBRANCH  14  15
BRANCH  14  18
HETATM   18  C           1     -35.802  -1.107 -15.894  0.00  0.00     0.197 C 
HETATM   19  O           1     -36.945  -1.235 -16.384  0.00  0.00    -0.646 OA
HETATM   20  O           1     -34.797  -1.448 -16.554  0.00  0.00    -0.646 OA
ENDBRANCH  14  18
ENDBRANCH   2  14
TORSDOF 8
ENDMDL
MODEL 7
REMARK VINA RESULT:      -5.0      2.674      3.841
REMARK  8 active torsions:
REMARK  status: ('A' for Active; 'I' for Inactive)
REMARK    1  A    between atoms: C_2  and  S_12 
REMARK    2  A    between atoms: C_2  and  C_3 
REMARK    3  A    between atoms: C_3  and  C_19 
REMARK    4  A    between atoms: C_3  and  N_15 
REMARK    5  A    between atoms: C_4  and  C_16 
REMARK    6  A    between atoms: C_4  and  C_5 
REMARK    7  A    between atoms: C_4  and  N_9 
REMARK    8  A    between atoms: C_5  and  C_6 
REMARK       I    between atoms: N_15  and  C_16 
ROOT
HETATM    1  O           1     -21.059  -3.288  -7.066  0.00  0.00    -0.271 OA
HETATM    2  N           1     -22.003  -5.309  -7.178  0.00  0.00    -0.344 N 
HETATM    3  C           1     -21.790  -4.045  -7.659  0.00  0.00     0.249 C 
HETATM    4  H           1     -22.615  -5.943  -7.676  0.00  0.00     0.163 HD
ENDROOT
BRANCH   3   5
HETATM    5  C           1     -22.468  -3.597  -8.931  0.00  0.00     0.284 C 
BRANCH   5   6
HETATM    6  C           1     -23.878  -4.171  -8.985  0.00  0.00     0.155 C 
BRANCH   6   7
HETATM    7  C           1     -24.706  -3.378  -9.966  0.00  0.00     0.175 C 
HETATM    8  O           1     -25.914  -3.161  -9.730  0.00  0.00    -0.648 OA
HETATM    9  O           1     -24.184  -2.938 -11.013  0.00  0.00    -0.648 OA
ENDBRANCH   6   7
ENDBRANCH   5   6
BRANCH   5  10
HETATM   10  N           1     -21.684  -4.086 -10.113  0.00  0.00    -0.066 N 
HETATM   11  H           1     -20.752  -3.614 -10.131  0.00  0.00     0.275 HD
HETATM   12  H           1     -21.548  -5.119 -10.038  0.00  0.00     0.275 HD
HETATM   13  H           1     -22.205  -3.866 -10.991  0.00  0.00     0.275 HD
ENDBRANCH   5  10
ENDBRANCH   3   5
BRANCH   2  14
HETATM   14  C           1     -21.351  -5.739  -5.956  0.00  0.00     0.194 C 
BRANCH  14  15
HETATM   15  C           1     -22.368  -6.425  -5.054  0.00  0.00     0.106 C 
BRANCH  15  16
HETATM   16  S           1     -21.811  -6.328  -3.329  0.00  0.00    -0.180 SA
HETATM   17  H           1     -21.064  -7.447  -3.360  0.00  0.00     0.101 HD
ENDBRANCH  15  16
ENDBRANCH  14  15
BRANCH  14  18
HETATM   18  C           1     -20.242  -6.706  -6.291  0.00  0.00     0.197 C 
HETATM   19  O           1     -19.366  -6.387  -7.124  0.00  0.00    -0.646 OA
HETATM   20  O           1     -20.200  -7.824  -5.736  0.00  0.00    -0.646 OA
ENDBRANCH  14  18
ENDBRANCH   2  14
TORSDOF 8
ENDMDL
MODEL 8
REMARK VINA RESULT:      -4.9      4.038      5.694
REMARK  8 active torsions:
REMARK  status: ('A' for Active; 'I' for Inactive)
REMARK    1  A    between atoms: C_2  and  S_12 
REMARK    2  A    between atoms: C_2  and  C_3 
REMARK    3  A    between atoms: C_3  and  C_19 
REMARK    4  A    between atoms: C_3  and  N_15 
REMARK    5  A    between atoms: C_4  and  C_16 
REMARK    6  A    between atoms: C_4  and  C_5 
REMARK    7  A    between atoms: C_4  and  N_9 
REMARK    8  A    between atoms: C_5  and  C_6 
REMARK       I    between atoms: N_15  and  C_16 
ROOT
HETATM    1  O           1     -22.601  -5.627  -5.673  0.00  0.00    -0.271 OA
HETATM    2  N           1     -20.865  -6.690  -4.753  0.00  0.00    -0.344 N 
HETATM    3  C           1     -21.405  -5.795  -5.637  0.00  0.00     0.249 C 
HETATM    4  H           1     -19.863  -6.829  -4.722  0.00  0.00     0.163 HD
ENDROOT
BRANCH   3   5
HETATM    5  C           1     -20.506  -5.016  -6.566  0.00  0.00     0.284 C 
BRANCH   5   6
HETATM    6  C           1     -21.313  -3.926  -7.259  0.00  0.00     0.155 C 
BRANCH   6   7
HETATM    7  C           1     -21.422  -4.240  -8.731  0.00  0.00     0.175 C 
HETATM    8  O           1     -20.530  -3.859  -9.518  0.00  0.00    -0.648 OA
HETATM    9  O           1     -22.404  -4.882  -9.162  0.00  0.00    -0.648 OA
ENDBRANCH   6   7
ENDBRANCH   5   6
BRANCH   5  10
HETATM   10  N           1     -19.930  -5.942  -7.595  0.00  0.00    -0.066 N 
HETATM   11  H           1     -19.420  -6.719  -7.117  0.00  0.00     0.275 HD
HETATM   12  H           1     -20.701  -6.340  -8.177  0.00  0.00     0.275 HD
HETATM   13  H           1     -19.268  -5.414  -8.207  0.00  0.00     0.275 HD
ENDBRANCH   5  10
ENDBRANCH   3   5
BRANCH   2  14
HETATM   14  C           1     -21.730  -7.438  -3.861  0.00  0.00     0.194 C 
BRANCH  14  15
HETATM   15  C           1     -21.300  -8.900  -3.847  0.00  0.00     0.106 C 
BRANCH  15  16
HETATM   16  S           1     -19.679  -9.061  -4.647  0.00  0.00    -0.180 SA
HETATM   17  H           1     -19.071  -9.669  -3.612  0.00  0.00     0.101 HD
ENDBRANCH  15  16
ENDBRANCH  14  15
BRANCH  14  18
HETATM   18  C           1     -21.626  -6.870  -2.467  0.00  0.00     0.197 C 
HETATM   19  O           1     -22.265  -5.839  -2.163  0.00  0.00    -0.646 OA
HETATM   20  O           1     -20.901  -7.429  -1.617  0.00  0.00    -0.646 OA
ENDBRANCH  14  18
ENDBRANCH   2  14
TORSDOF 8
ENDMDL
MODEL 9
REMARK VINA RESULT:      -4.7      5.102      8.741
REMARK  8 active torsions:
REMARK  status: ('A' for Active; 'I' for Inactive)
REMARK    1  A    between atoms: C_2  and  S_12 
REMARK    2  A    between atoms: C_2  and  C_3 
REMARK    3  A    between atoms: C_3  and  C_19 
REMARK    4  A    between atoms: C_3  and  N_15 
REMARK    5  A    between atoms: C_4  and  C_16 
REMARK    6  A    between atoms: C_4  and  C_5 
REMARK    7  A    between atoms: C_4  and  N_9 
REMARK    8  A    between atoms: C_5  and  C_6 
REMARK       I    between atoms: N_15  and  C_16 
ROOT
HETATM    1  O           1     -22.340  -7.089  -4.857  0.00  0.00    -0.271 OA
HETATM    2  N           1     -21.019  -5.332  -5.253  0.00  0.00    -0.344 N 
HETATM    3  C           1     -21.584  -6.256  -4.415  0.00  0.00     0.249 C 
HETATM    4  H           1     -20.385  -4.634  -4.883  0.00  0.00     0.163 HD
ENDROOT
BRANCH   3   5
HETATM    5  C           1     -21.262  -6.235  -2.941  0.00  0.00     0.284 C 
BRANCH   5   6
HETATM    6  C           1     -20.643  -7.566  -2.536  0.00  0.00     0.155 C 
BRANCH   6   7
HETATM    7  C           1     -21.461  -8.185  -1.430  0.00  0.00     0.175 C 
HETATM    8  O           1     -21.305  -7.804  -0.250  0.00  0.00    -0.648 OA
HETATM    9  O           1     -22.295  -9.079  -1.693  0.00  0.00    -0.648 OA
ENDBRANCH   6   7
ENDBRANCH   5   6
BRANCH   5  10
HETATM   10  N           1     -22.523  -6.011  -2.159  0.00  0.00    -0.066 N 
HETATM   11  H           1     -23.315  -6.507  -2.626  0.00  0.00     0.275 HD
HETATM   12  H           1     -22.402  -6.384  -1.190  0.00  0.00     0.275 HD
HETATM   13  H           1     -22.728  -4.987  -2.115  0.00  0.00     0.275 HD
ENDBRANCH   5  10
ENDBRANCH   3   5
BRANCH   2  14
HETATM   14  C           1     -21.329  -5.352  -6.669  0.00  0.00     0.194 C 
BRANCH  14  15
HETATM   15  C           1     -21.776  -3.965  -7.110  0.00  0.00     0.106 C 
BRANCH  15  16
HETATM   16  S           1     -23.060  -4.118  -8.383  0.00  0.00    -0.180 SA
HETATM   17  H           1     -23.487  -2.845  -8.307  0.00  0.00     0.101 HD
ENDBRANCH  15  16
ENDBRANCH  14  15
BRANCH  14  18
HETATM   18  C           1     -20.100  -5.756  -7.446  0.00  0.00     0.197 C 
HETATM   19  O           1     -19.706  -5.053  -8.402  0.00  0.00    -0.646 OA
HETATM   20  O           1     -19.477  -6.794  -7.135  0.00  0.00    -0.646 OA
ENDBRANCH  14  18
ENDBRANCH   2  14
TORSDOF 8
ENDMDL
