MODEL 1
REMARK VINA RESULT:      -7.1      0.000      0.000
REMARK  8 active torsions:
REMARK  status: ('A' for Active; 'I' for Inactive)
REMARK    1  A    between atoms: C_4  and  C_16 
REMARK    2  A    between atoms: N_6  and  C_16 
REMARK       I    between atoms: N_6  and  C_13 
REMARK    3  A    between atoms: C_10  and  C_11 
REMARK    4  A    between atoms: C_11  and  C_12 
REMARK    5  A    between atoms: C_12  and  C_13 
REMARK    6  A    between atoms: C_12  and  N_25 
REMARK    7  A    between atoms: C_16  and  C_17 
REMARK    8  A    between atoms: C_17  and  C_18 
ROOT
HETATM    1  N           1     -34.708  -1.425 -12.435  0.00  0.00    -0.344 N 
HETATM    2  H           1     -33.826  -1.690 -12.854  0.00  0.00     0.163 HD
HETATM    3  C           1     -35.371  -0.312 -12.879  0.00  0.00     0.249 C 
HETATM    4  O           1     -35.153   0.763 -12.372  0.00  0.00    -0.271 OA
ENDROOT
BRANCH   1   5
HETATM    5  C           1     -35.271  -2.224 -11.364  0.00  0.00     0.191 C 
BRANCH   5   6
HETATM    6  C           1     -36.240  -1.386 -10.567  0.00  0.00     0.197 C 
HETATM    7  O           1     -37.453  -1.377 -10.868  0.00  0.00    -0.646 OA
HETATM    8  O           1     -35.829  -0.700  -9.605  0.00  0.00    -0.646 OA
ENDBRANCH   5   6
BRANCH   5   9
HETATM    9  C           1     -34.152  -2.711 -10.453  0.00  0.00     0.094 C 
BRANCH   9  10
HETATM   10  C           1     -33.826  -4.135 -10.779  0.00  0.00     0.028 A 
HETATM   11  C           1     -32.820  -4.533 -11.627  0.00  0.00     0.114 A 
HETATM   12  N           1     -32.880  -5.899 -11.632  0.00  0.00    -0.360 N 
HETATM   13  H           1     -32.255  -6.546 -12.175  0.00  0.00     0.166 HD
HETATM   14  C           1     -33.900  -6.268 -10.803  0.00  0.00     0.180 A 
HETATM   15  N           1     -34.491  -5.222 -10.273  0.00  0.00    -0.354 N 
ATOM     16  HN          1     -35.277  -5.219  -9.623  1.00  0.00     0.166 HD
ENDBRANCH   9  10
ENDBRANCH   5   9
ENDBRANCH   1   5
BRANCH   3  17
HETATM   17  C           1     -36.371  -0.428 -14.003  0.00  0.00     0.284 C 
BRANCH  17  18
HETATM   18  C           1     -35.807   0.229 -15.256  0.00  0.00     0.155 C 
BRANCH  18  19
HETATM   19  C           1     -35.831  -0.758 -16.397  0.00  0.00     0.175 C 
HETATM   20  O           1     -36.811  -0.791 -17.173  0.00  0.00    -0.648 OA
HETATM   21  O           1     -34.873  -1.543 -16.566  0.00  0.00    -0.648 OA
ENDBRANCH  18  19
ENDBRANCH  17  18
BRANCH  17  22
HETATM   22  N           1     -37.645   0.260 -13.610  0.00  0.00    -0.066 N 
HETATM   23  H           1     -37.516   1.295 -13.670  0.00  0.00     0.275 HD
HETATM   24  H           1     -38.413  -0.032 -14.257  0.00  0.00     0.275 HD
HETATM   25  H           1     -37.896  -0.003 -12.631  0.00  0.00     0.275 HD
ENDBRANCH  17  22
ENDBRANCH   3  17
TORSDOF 8
ENDMDL
MODEL 2
REMARK VINA RESULT:      -6.4     13.057     15.758
REMARK  8 active torsions:
REMARK  status: ('A' for Active; 'I' for Inactive)
REMARK    1  A    between atoms: C_4  and  C_16 
REMARK    2  A    between atoms: N_6  and  C_16 
REMARK       I    between atoms: N_6  and  C_13 
REMARK    3  A    between atoms: C_10  and  C_11 
REMARK    4  A    between atoms: C_11  and  C_12 
REMARK    5  A    between atoms: C_12  and  C_13 
REMARK    6  A    between atoms: C_12  and  N_25 
REMARK    7  A    between atoms: C_16  and  C_17 
REMARK    8  A    between atoms: C_17  and  C_18 
ROOT
HETATM    1  N           1     -21.248  -3.907  -8.032  0.00  0.00    -0.344 N 
HETATM    2  H           1     -21.624  -3.103  -7.543  0.00  0.00     0.163 HD
HETATM    3  C           1     -20.297  -4.688  -7.434  0.00  0.00     0.249 C 
HETATM    4  O           1     -19.125  -4.433  -7.582  0.00  0.00    -0.271 OA
ENDROOT
BRANCH   1   5
HETATM    5  C           1     -21.720  -4.230  -9.364  0.00  0.00     0.191 C 
BRANCH   5   6
HETATM    6  C           1     -20.631  -3.941 -10.367  0.00  0.00     0.197 C 
HETATM    7  O           1     -19.935  -4.875 -10.821  0.00  0.00    -0.646 OA
HETATM    8  O           1     -20.424  -2.767 -10.744  0.00  0.00    -0.646 OA
ENDBRANCH   5   6
BRANCH   5   9
HETATM    9  C           1     -22.945  -3.385  -9.687  0.00  0.00     0.094 C 
BRANCH   9  10
HETATM   10  C           1     -23.280  -3.525 -11.139  0.00  0.00     0.028 A 
HETATM   11  C           1     -23.624  -4.707 -11.751  0.00  0.00     0.114 A 
HETATM   12  N           1     -23.843  -4.377 -13.060  0.00  0.00    -0.360 N 
HETATM   13  H           1     -24.126  -5.037 -13.828  0.00  0.00     0.166 HD
HETATM   14  C           1     -23.626  -3.035 -13.188  0.00  0.00     0.180 A 
HETATM   15  N           1     -23.284  -2.494 -12.042  0.00  0.00    -0.354 N 
ATOM     16  HN          1     -23.067  -1.513 -11.861  1.00  0.00     0.166 HD
ENDBRANCH   9  10
ENDBRANCH   5   9
ENDBRANCH   1   5
BRANCH   3  17
HETATM   17  C           1     -20.711  -5.869  -6.589  0.00  0.00     0.284 C 
BRANCH  17  18
HETATM   18  C           1     -20.834  -5.434  -5.134  0.00  0.00     0.155 C 
BRANCH  18  19
HETATM   19  C           1     -21.728  -6.399  -4.395  0.00  0.00     0.175 C 
HETATM   20  O           1     -22.268  -6.052  -3.322  0.00  0.00    -0.648 OA
HETATM   21  O           1     -21.929  -7.544  -4.854  0.00  0.00    -0.648 OA
ENDBRANCH  18  19
ENDBRANCH  17  18
BRANCH  17  22
HETATM   22  N           1     -19.677  -6.949  -6.701  0.00  0.00    -0.066 N 
HETATM   23  H           1     -18.726  -6.540  -6.559  0.00  0.00     0.275 HD
HETATM   24  H           1     -19.854  -7.678  -5.972  0.00  0.00     0.275 HD
HETATM   25  H           1     -19.730  -7.386  -7.649  0.00  0.00     0.275 HD
ENDBRANCH  17  22
ENDBRANCH   3  17
TORSDOF 8
ENDMDL
MODEL 3
REMARK VINA RESULT:      -6.2     12.884     15.617
REMARK  8 active torsions:
REMARK  status: ('A' for Active; 'I' for Inactive)
REMARK    1  A    between atoms: C_4  and  C_16 
REMARK    2  A    between atoms: N_6  and  C_16 
REMARK       I    between atoms: N_6  and  C_13 
REMARK    3  A    between atoms: C_10  and  C_11 
REMARK    4  A    between atoms: C_11  and  C_12 
REMARK    5  A    between atoms: C_12  and  C_13 
REMARK    6  A    between atoms: C_12  and  N_25 
REMARK    7  A    between atoms: C_16  and  C_17 
REMARK    8  A    between atoms: C_17  and  C_18 
ROOT
HETATM    1  N           1     -21.110  -3.682  -7.362  0.00  0.00    -0.344 N 
HETATM    2  H           1     -21.139  -2.930  -6.685  0.00  0.00     0.163 HD
HETATM    3  C           1     -20.206  -4.700  -7.217  0.00  0.00     0.249 C 
HETATM    4  O           1     -19.111  -4.611  -7.720  0.00  0.00    -0.271 OA
ENDROOT
BRANCH   1   5
HETATM    5  C           1     -22.027  -3.682  -8.485  0.00  0.00     0.191 C 
BRANCH   5   6
HETATM    6  C           1     -23.410  -4.051  -8.005  0.00  0.00     0.197 C 
HETATM    7  O           1     -23.564  -4.555  -6.872  0.00  0.00    -0.646 OA
HETATM    8  O           1     -24.401  -3.853  -8.741  0.00  0.00    -0.646 OA
ENDBRANCH   5   6
BRANCH   5   9
HETATM    9  C           1     -21.561  -4.698  -9.520  0.00  0.00     0.094 C 
BRANCH   9  10
HETATM   10  C           1     -21.974  -4.245 -10.886  0.00  0.00     0.028 A 
HETATM   11  C           1     -21.142  -3.625 -11.788  0.00  0.00     0.114 A 
HETATM   12  N           1     -21.923  -3.390 -12.886  0.00  0.00    -0.360 N 
HETATM   13  H           1     -21.617  -2.927 -13.778  0.00  0.00     0.166 HD
HETATM   14  C           1     -23.173  -3.866 -12.611  0.00  0.00     0.180 A 
HETATM   15  N           1     -23.233  -4.388 -11.408  0.00  0.00    -0.354 N 
ATOM     16  HN          1     -24.045  -4.812 -10.957  1.00  0.00     0.166 HD
ENDBRANCH   9  10
ENDBRANCH   5   9
ENDBRANCH   1   5
BRANCH   3  17
HETATM   17  C           1     -20.575  -5.931  -6.427  0.00  0.00     0.284 C 
BRANCH  17  18
HETATM   18  C           1     -20.689  -5.573  -4.951  0.00  0.00     0.155 C 
BRANCH  18  19
HETATM   19  C           1     -21.747  -6.433  -4.304  0.00  0.00     0.175 C 
HETATM   20  O           1     -22.241  -6.094  -3.206  0.00  0.00    -0.648 OA
HETATM   21  O           1     -22.129  -7.482  -4.864  0.00  0.00    -0.648 OA
ENDBRANCH  18  19
ENDBRANCH  17  18
BRANCH  17  22
HETATM   22  N           1     -19.514  -6.976  -6.606  0.00  0.00    -0.066 N 
HETATM   23  H           1     -19.315  -7.433  -5.688  0.00  0.00     0.275 HD
HETATM   24  H           1     -19.847  -7.697  -7.288  0.00  0.00     0.275 HD
HETATM   25  H           1     -18.642  -6.529  -6.970  0.00  0.00     0.275 HD
ENDBRANCH  17  22
ENDBRANCH   3  17
TORSDOF 8
ENDMDL
MODEL 4
REMARK VINA RESULT:      -6.1     13.898     16.414
REMARK  8 active torsions:
REMARK  status: ('A' for Active; 'I' for Inactive)
REMARK    1  A    between atoms: C_4  and  C_16 
REMARK    2  A    between atoms: N_6  and  C_16 
REMARK       I    between atoms: N_6  and  C_13 
REMARK    3  A    between atoms: C_10  and  C_11 
REMARK    4  A    between atoms: C_11  and  C_12 
REMARK    5  A    between atoms: C_12  and  C_13 
REMARK    6  A    between atoms: C_12  and  N_25 
REMARK    7  A    between atoms: C_16  and  C_17 
REMARK    8  A    between atoms: C_17  and  C_18 
ROOT
HETATM    1  N           1     -22.272  -4.812  -6.445  0.00  0.00    -0.344 N 
HETATM    2  H           1     -23.042  -4.245  -6.114  0.00  0.00     0.163 HD
HETATM    3  C           1     -21.497  -5.503  -5.553  0.00  0.00     0.249 C 
HETATM    4  O           1     -20.514  -4.984  -5.079  0.00  0.00    -0.271 OA
ENDROOT
BRANCH   1   5
HETATM    5  C           1     -21.990  -4.893  -7.865  0.00  0.00     0.191 C 
BRANCH   5   6
HETATM    6  C           1     -20.496  -4.900  -8.082  0.00  0.00     0.197 C 
HETATM    7  O           1     -19.880  -5.985  -8.149  0.00  0.00    -0.646 OA
HETATM    8  O           1     -19.876  -3.820  -8.194  0.00  0.00    -0.646 OA
ENDBRANCH   5   6
BRANCH   5   9
HETATM    9  C           1     -22.600  -3.690  -8.573  0.00  0.00     0.094 C 
BRANCH   9  10
HETATM   10  C           1     -22.587  -3.921 -10.052  0.00  0.00     0.028 A 
HETATM   11  C           1     -23.433  -4.775 -10.717  0.00  0.00     0.114 A 
HETATM   12  N           1     -23.075  -4.676 -12.033  0.00  0.00    -0.360 N 
HETATM   13  H           1     -23.512  -5.193 -12.837  0.00  0.00     0.166 HD
HETATM   14  C           1     -22.045  -3.783 -12.112  0.00  0.00     0.180 A 
HETATM   15  N           1     -21.728  -3.310 -10.928  0.00  0.00    -0.354 N 
ATOM     16  HN          1     -20.999  -2.632 -10.708  1.00  0.00     0.166 HD
ENDBRANCH   9  10
ENDBRANCH   5   9
ENDBRANCH   1   5
BRANCH   3  17
HETATM   17  C           1     -21.871  -6.911  -5.161  0.00  0.00     0.284 C 
BRANCH  17  18
HETATM   18  C           1     -21.593  -7.117  -3.677  0.00  0.00     0.155 C 
BRANCH  18  19
HETATM   19  C           1     -21.031  -8.500  -3.457  0.00  0.00     0.175 C 
HETATM   20  O           1     -21.788  -9.494  -3.498  0.00  0.00    -0.648 OA
HETATM   21  O           1     -19.811  -8.651  -3.233  0.00  0.00    -0.648 OA
ENDBRANCH  18  19
ENDBRANCH  17  18
BRANCH  17  22
HETATM   22  N           1     -21.056  -7.885  -5.960  0.00  0.00    -0.066 N 
HETATM   23  H           1     -20.066  -7.554  -6.008  0.00  0.00     0.275 HD
HETATM   24  H           1     -21.087  -8.824  -5.501  0.00  0.00     0.275 HD
HETATM   25  H           1     -21.446  -7.956  -6.926  0.00  0.00     0.275 HD
ENDBRANCH  17  22
ENDBRANCH   3  17
TORSDOF 8
ENDMDL
MODEL 5
REMARK VINA RESULT:      -6.1      9.248     11.310
REMARK  8 active torsions:
REMARK  status: ('A' for Active; 'I' for Inactive)
REMARK    1  A    between atoms: C_4  and  C_16 
REMARK    2  A    between atoms: N_6  and  C_16 
REMARK       I    between atoms: N_6  and  C_13 
REMARK    3  A    between atoms: C_10  and  C_11 
REMARK    4  A    between atoms: C_11  and  C_12 
REMARK    5  A    between atoms: C_12  and  C_13 
REMARK    6  A    between atoms: C_12  and  N_25 
REMARK    7  A    between atoms: C_16  and  C_17 
REMARK    8  A    between atoms: C_17  and  C_18 
ROOT
HETATM    1  N           1     -27.605  -6.350 -16.605  0.00  0.00    -0.344 N 
HETATM    2  H           1     -27.585  -5.451 -16.139  0.00  0.00     0.163 HD
HETATM    3  C           1     -28.766  -7.073 -16.648  0.00  0.00     0.249 C 
HETATM    4  O           1     -29.018  -7.864 -15.770  0.00  0.00    -0.271 OA
ENDROOT
BRANCH   1   5
HETATM    5  C           1     -26.404  -6.870 -17.229  0.00  0.00     0.191 C 
BRANCH   5   6
HETATM    6  C           1     -25.252  -6.775 -16.258  0.00  0.00     0.197 C 
HETATM    7  O           1     -24.542  -7.778 -16.031  0.00  0.00    -0.646 OA
HETATM    8  O           1     -25.009  -5.694 -15.680  0.00  0.00    -0.646 OA
ENDBRANCH   5   6
BRANCH   5   9
HETATM    9  C           1     -26.085  -6.054 -18.475  0.00  0.00     0.094 C 
BRANCH   9  10
HETATM   10  C           1     -25.771  -6.978 -19.610  0.00  0.00     0.028 A 
HETATM   11  C           1     -24.504  -7.377 -19.965  0.00  0.00     0.114 A 
HETATM   12  N           1     -24.681  -8.206 -21.038  0.00  0.00    -0.360 N 
HETATM   13  H           1     -23.924  -8.699 -21.574  0.00  0.00     0.166 HD
HETATM   14  C           1     -26.022  -8.274 -21.288  0.00  0.00     0.180 A 
HETATM   15  N           1     -26.706  -7.541 -20.440  0.00  0.00    -0.354 N 
ATOM     16  HN          1     -27.718  -7.416 -20.405  1.00  0.00     0.166 HD
ENDBRANCH   9  10
ENDBRANCH   5   9
ENDBRANCH   1   5
BRANCH   3  17
HETATM   17  C           1     -29.733  -6.882 -17.792  0.00  0.00     0.284 C 
BRANCH  17  18
HETATM   18  C           1     -31.111  -6.541 -17.240  0.00  0.00     0.155 C 
BRANCH  18  19
HETATM   19  C           1     -31.279  -5.041 -17.194  0.00  0.00     0.175 C 
HETATM   20  O           1     -30.667  -4.320 -18.012  0.00  0.00    -0.648 OA
HETATM   21  O           1     -32.028  -4.522 -16.340  0.00  0.00    -0.648 OA
ENDBRANCH  18  19
ENDBRANCH  17  18
BRANCH  17  22
HETATM   22  N           1     -29.815  -8.147 -18.592  0.00  0.00    -0.066 N 
HETATM   23  H           1     -29.683  -8.969 -17.961  0.00  0.00     0.275 HD
HETATM   24  H           1     -30.754  -8.209 -19.051  0.00  0.00     0.275 HD
HETATM   25  H           1     -29.070  -8.146 -19.324  0.00  0.00     0.275 HD
ENDBRANCH  17  22
ENDBRANCH   3  17
TORSDOF 8
ENDMDL
MODEL 6
REMARK VINA RESULT:      -6.1     15.884     17.373
REMARK  8 active torsions:
REMARK  status: ('A' for Active; 'I' for Inactive)
REMARK    1  A    between atoms: C_4  and  C_16 
REMARK    2  A    between atoms: N_6  and  C_16 
REMARK       I    between atoms: N_6  and  C_13 
REMARK    3  A    between atoms: C_10  and  C_11 
REMARK    4  A    between atoms: C_11  and  C_12 
REMARK    5  A    between atoms: C_12  and  C_13 
REMARK    6  A    between atoms: C_12  and  N_25 
REMARK    7  A    between atoms: C_16  and  C_17 
REMARK    8  A    between atoms: C_17  and  C_18 
ROOT
HETATM    1  N           1     -21.493  -6.342  -3.252  0.00  0.00    -0.344 N 
HETATM    2  H           1     -21.352  -5.542  -2.648  0.00  0.00     0.163 HD
HETATM    3  C           1     -21.692  -6.161  -4.594  0.00  0.00     0.249 C 
HETATM    4  O           1     -22.812  -6.021  -5.025  0.00  0.00    -0.271 OA
ENDROOT
BRANCH   1   5
HETATM    5  C           1     -21.482  -7.681  -2.695  0.00  0.00     0.191 C 
BRANCH   5   6
HETATM    6  C           1     -21.829  -7.617  -1.227  0.00  0.00     0.197 C 
HETATM    7  O           1     -21.224  -8.345  -0.410  0.00  0.00    -0.646 OA
HETATM    8  O           1     -22.721  -6.838  -0.829  0.00  0.00    -0.646 OA
ENDBRANCH   5   6
BRANCH   5   9
HETATM    9  C           1     -20.096  -8.289  -2.863  0.00  0.00     0.094 C 
BRANCH   9  10
HETATM   10  C           1     -20.100  -9.227  -4.030  0.00  0.00     0.028 A 
HETATM   11  C           1     -19.018  -9.466  -4.844  0.00  0.00     0.114 A 
HETATM   12  N           1     -19.462 -10.373  -5.765  0.00  0.00    -0.360 N 
HETATM   13  H           1     -18.899 -10.788  -6.550  0.00  0.00     0.166 HD
HETATM   14  C           1     -20.770 -10.643  -5.480  0.00  0.00     0.180 A 
HETATM   15  N           1     -21.183  -9.963  -4.435  0.00  0.00    -0.354 N 
ATOM     16  HN          1     -22.112  -9.979  -4.014  1.00  0.00     0.166 HD
ENDBRANCH   9  10
ENDBRANCH   5   9
ENDBRANCH   1   5
BRANCH   3  17
HETATM   17  C           1     -20.513  -6.134  -5.535  0.00  0.00     0.284 C 
BRANCH  17  18
HETATM   18  C           1     -20.069  -4.693  -5.754  0.00  0.00     0.155 C 
BRANCH  18  19
HETATM   19  C           1     -20.513  -4.231  -7.120  0.00  0.00     0.175 C 
HETATM   20  O           1     -19.720  -4.285  -8.085  0.00  0.00    -0.648 OA
HETATM   21  O           1     -21.672  -3.795  -7.287  0.00  0.00    -0.648 OA
ENDBRANCH  18  19
ENDBRANCH  17  18
BRANCH  17  22
HETATM   22  N           1     -20.910  -6.738  -6.850  0.00  0.00    -0.066 N 
HETATM   23  H           1     -21.003  -5.984  -7.566  0.00  0.00     0.275 HD
HETATM   24  H           1     -20.177  -7.419  -7.155  0.00  0.00     0.275 HD
HETATM   25  H           1     -21.824  -7.233  -6.744  0.00  0.00     0.275 HD
ENDBRANCH  17  22
ENDBRANCH   3  17
TORSDOF 8
ENDMDL
MODEL 7
REMARK VINA RESULT:      -6.0     25.685     26.742
REMARK  8 active torsions:
REMARK  status: ('A' for Active; 'I' for Inactive)
REMARK    1  A    between atoms: C_4  and  C_16 
REMARK    2  A    between atoms: N_6  and  C_16 
REMARK       I    between atoms: N_6  and  C_13 
REMARK    3  A    between atoms: C_10  and  C_11 
REMARK    4  A    between atoms: C_11  and  C_12 
REMARK    5  A    between atoms: C_12  and  C_13 
REMARK    6  A    between atoms: C_12  and  N_25 
REMARK    7  A    between atoms: C_16  and  C_17 
REMARK    8  A    between atoms: C_17  and  C_18 
ROOT
HETATM    1  N           1     -10.029   6.870 -20.417  0.00  0.00    -0.344 N 
HETATM    2  H           1      -9.136   6.392 -20.413  0.00  0.00     0.163 HD
HETATM    3  C           1     -10.128   8.140 -19.919  0.00  0.00     0.249 C 
HETATM    4  O           1     -10.384   8.313 -18.751  0.00  0.00    -0.271 OA
ENDROOT
BRANCH   1   5
HETATM    5  C           1     -11.203   6.207 -20.953  0.00  0.00     0.191 C 
BRANCH   5   6
HETATM    6  C           1     -12.177   5.930 -19.835  0.00  0.00     0.197 C 
HETATM    7  O           1     -11.851   5.172 -18.895  0.00  0.00    -0.646 OA
HETATM    8  O           1     -13.311   6.456 -19.849  0.00  0.00    -0.646 OA
ENDBRANCH   5   6
BRANCH   5   9
HETATM    9  C           1     -10.790   4.894 -21.605  0.00  0.00     0.094 C 
BRANCH   9  10
HETATM   10  C           1     -12.004   4.047 -21.833  0.00  0.00     0.028 A 
HETATM   11  C           1     -12.862   4.183 -22.899  0.00  0.00     0.114 A 
HETATM   12  N           1     -13.814   3.220 -22.711  0.00  0.00    -0.360 N 
HETATM   13  H           1     -14.637   3.029 -23.337  0.00  0.00     0.166 HD
HETATM   14  C           1     -13.503   2.553 -21.561  0.00  0.00     0.180 A 
HETATM   15  N           1     -12.413   3.032 -21.008  0.00  0.00    -0.354 N 
ATOM     16  HN          1     -11.964   2.716 -20.148  1.00  0.00     0.166 HD
ENDBRANCH   9  10
ENDBRANCH   5   9
ENDBRANCH   1   5
BRANCH   3  17
HETATM   17  C           1      -9.915   9.327 -20.827  0.00  0.00     0.284 C 
BRANCH  17  18
HETATM   18  C           1     -11.001   9.350 -21.895  0.00  0.00     0.155 C 
BRANCH  18  19
HETATM   19  C           1     -12.221  10.059 -21.358  0.00  0.00     0.175 C 
HETATM   20  O           1     -13.291   9.431 -21.205  0.00  0.00    -0.648 OA
HETATM   21  O           1     -12.161  11.273 -21.066  0.00  0.00    -0.648 OA
ENDBRANCH  18  19
ENDBRANCH  17  18
BRANCH  17  22
HETATM   22  N           1      -8.572   9.216 -21.485  0.00  0.00    -0.066 N 
HETATM   23  H           1      -7.884   8.814 -20.809  0.00  0.00     0.275 HD
HETATM   24  H           1      -8.644   8.592 -22.321  0.00  0.00     0.275 HD
HETATM   25  H           1      -8.251  10.165 -21.784  0.00  0.00     0.275 HD
ENDBRANCH  17  22
ENDBRANCH   3  17
TORSDOF 8
ENDMDL
MODEL 8
REMARK VINA RESULT:      -5.9     16.554     18.170
REMARK  8 active torsions:
REMARK  status: ('A' for Active; 'I' for Inactive)
REMARK    1  A    between atoms: C_4  and  C_16 
REMARK    2  A    between atoms: N_6  and  C_16 
REMARK       I    between atoms: N_6  and  C_13 
REMARK    3  A    between atoms: C_10  and  C_11 
REMARK    4  A    between atoms: C_11  and  C_12 
REMARK    5  A    between atoms: C_12  and  C_13 
REMARK    6  A    between atoms: C_12  and  N_25 
REMARK    7  A    between atoms: C_16  and  C_17 
REMARK    8  A    between atoms: C_17  and  C_18 
ROOT
HETATM    1  N           1     -21.085  -7.726  -1.912  0.00  0.00    -0.344 N 
HETATM    2  H           1     -20.086  -7.748  -1.751  0.00  0.00     0.163 HD
HETATM    3  C           1     -21.616  -6.840  -2.810  0.00  0.00     0.249 C 
HETATM    4  O           1     -21.957  -5.740  -2.444  0.00  0.00    -0.271 OA
ENDROOT
BRANCH   1   5
HETATM    5  C           1     -21.955  -8.636  -1.191  0.00  0.00     0.191 C 
BRANCH   5   6
HETATM    6  C           1     -22.339  -8.020   0.133  0.00  0.00     0.197 C 
HETATM    7  O           1     -21.563  -8.105   1.109  0.00  0.00    -0.646 OA
HETATM    8  O           1     -23.433  -7.428   0.253  0.00  0.00    -0.646 OA
ENDBRANCH   5   6
BRANCH   5   9
HETATM    9  C           1     -21.224  -9.950  -0.947  0.00  0.00     0.094 C 
BRANCH   9  10
HETATM   10  C           1     -22.221 -11.034  -0.679  0.00  0.00     0.028 A 
HETATM   11  C           1     -22.117 -11.958   0.333  0.00  0.00     0.114 A 
HETATM   12  N           1     -23.228 -12.745   0.209  0.00  0.00    -0.360 N 
HETATM   13  H           1     -23.482 -13.562   0.819  0.00  0.00     0.166 HD
HETATM   14  C           1     -23.947 -12.277  -0.853  0.00  0.00     0.180 A 
HETATM   15  N           1     -23.362 -11.242  -1.410  0.00  0.00    -0.354 N 
ATOM     16  HN          1     -23.687 -10.706  -2.215  1.00  0.00     0.166 HD
ENDBRANCH   9  10
ENDBRANCH   5   9
ENDBRANCH   1   5
BRANCH   3  17
HETATM   17  C           1     -21.773  -7.235  -4.258  0.00  0.00     0.284 C 
BRANCH  17  18
HETATM   18  C           1     -20.409  -7.232  -4.937  0.00  0.00     0.155 C 
BRANCH  18  19
HETATM   19  C           1     -20.359  -6.124  -5.961  0.00  0.00     0.175 C 
HETATM   20  O           1     -20.574  -6.379  -7.166  0.00  0.00    -0.648 OA
HETATM   21  O           1     -20.102  -4.954  -5.605  0.00  0.00    -0.648 OA
ENDBRANCH  18  19
ENDBRANCH  17  18
BRANCH  17  22
HETATM   22  N           1     -22.675  -6.255  -4.947  0.00  0.00    -0.066 N 
HETATM   23  H           1     -23.669  -6.554  -4.830  0.00  0.00     0.275 HD
HETATM   24  H           1     -22.545  -5.307  -4.526  0.00  0.00     0.275 HD
HETATM   25  H           1     -22.440  -6.220  -5.965  0.00  0.00     0.275 HD
ENDBRANCH  17  22
ENDBRANCH   3  17
TORSDOF 8
ENDMDL
MODEL 9
REMARK VINA RESULT:      -5.9     16.532     17.991
REMARK  8 active torsions:
REMARK  status: ('A' for Active; 'I' for Inactive)
REMARK    1  A    between atoms: C_4  and  C_16 
REMARK    2  A    between atoms: N_6  and  C_16 
REMARK       I    between atoms: N_6  and  C_13 
REMARK    3  A    between atoms: C_10  and  C_11 
REMARK    4  A    between atoms: C_11  and  C_12 
REMARK    5  A    between atoms: C_12  and  C_13 
REMARK    6  A    between atoms: C_12  and  N_25 
REMARK    7  A    between atoms: C_16  and  C_17 
REMARK    8  A    between atoms: C_17  and  C_18 
ROOT
HETATM    1  N           1     -21.216  -7.703  -1.841  0.00  0.00    -0.344 N 
HETATM    2  H           1     -20.225  -7.628  -1.647  0.00  0.00     0.163 HD
HETATM    3  C           1     -21.806  -6.848  -2.733  0.00  0.00     0.249 C 
HETATM    4  O           1     -22.268  -5.800  -2.350  0.00  0.00    -0.271 OA
ENDROOT
BRANCH   1   5
HETATM    5  C           1     -22.011  -8.716  -1.175  0.00  0.00     0.191 C 
BRANCH   5   6
HETATM    6  C           1     -22.222  -8.322   0.267  0.00  0.00     0.197 C 
HETATM    7  O           1     -23.358  -7.983   0.662  0.00  0.00    -0.646 OA
HETATM    8  O           1     -21.259  -8.333   1.065  0.00  0.00    -0.646 OA
ENDBRANCH   5   6
BRANCH   5   9
HETATM    9  C           1     -21.282 -10.052  -1.234  0.00  0.00     0.094 C 
BRANCH   9  10
HETATM   10  C           1     -21.264 -10.549  -2.646  0.00  0.00     0.028 A 
HETATM   11  C           1     -22.383 -10.875  -3.375  0.00  0.00     0.114 A 
HETATM   12  N           1     -21.909 -11.275  -4.593  0.00  0.00    -0.360 N 
HETATM   13  H           1     -22.487 -11.599  -5.409  0.00  0.00     0.166 HD
HETATM   14  C           1     -20.547 -11.179  -4.556  0.00  0.00     0.180 A 
HETATM   15  N           1     -20.129 -10.742  -3.390  0.00  0.00    -0.354 N 
ATOM     16  HN          1     -19.164 -10.580  -3.100  1.00  0.00     0.166 HD
ENDBRANCH   9  10
ENDBRANCH   5   9
ENDBRANCH   1   5
BRANCH   3  17
HETATM   17  C           1     -21.876  -7.214  -4.196  0.00  0.00     0.284 C 
BRANCH  17  18
HETATM   18  C           1     -20.472  -7.226  -4.785  0.00  0.00     0.155 C 
BRANCH  18  19
HETATM   19  C           1     -20.376  -6.190  -5.879  0.00  0.00     0.175 C 
HETATM   20  O           1     -20.080  -5.009  -5.596  0.00  0.00    -0.648 OA
HETATM   21  O           1     -20.592  -6.513  -7.067  0.00  0.00    -0.648 OA
ENDBRANCH  18  19
ENDBRANCH  17  18
BRANCH  17  22
HETATM   22  N           1     -22.714  -6.204  -4.923  0.00  0.00    -0.066 N 
HETATM   23  H           1     -22.218  -5.899  -5.790  0.00  0.00     0.275 HD
HETATM   24  H           1     -23.632  -6.634  -5.181  0.00  0.00     0.275 HD
HETATM   25  H           1     -22.877  -5.377  -4.306  0.00  0.00     0.275 HD
ENDBRANCH  17  22
ENDBRANCH   3  17
TORSDOF 8
ENDMDL
