MODEL 1
REMARK VINA RESULT:      -7.1      0.000      0.000
REMARK  8 active torsions:
REMARK  status: ('A' for Active; 'I' for Inactive)
REMARK    1  A    between atoms: C_1  and  O_8 
REMARK    2  A    between atoms: C_1  and  C_9 
REMARK    3  A    between atoms: N_4  and  C_21 
REMARK    4  A    between atoms: C_7  and  C_12 
REMARK    5  A    between atoms: C_9  and  C_14 
REMARK    6  A    between atoms: C_9  and  N_19 
REMARK    7  A    between atoms: C_12  and  C_21 
REMARK       I    between atoms: N_19  and  C_20 
REMARK    8  A    between atoms: C_20  and  C_21 
ROOT
HETATM    1  O           1     -36.489  -1.527 -12.301  0.00  0.00    -0.271 OA
HETATM    2  H           1     -34.114  -1.285 -14.336  0.00  0.00     0.163 HD
HETATM    3  N           1     -35.055  -1.181 -13.977  0.00  0.00    -0.343 N 
HETATM    4  C           1     -35.368  -1.652 -12.730  0.00  0.00     0.249 C 
ENDROOT
BRANCH   4   5
HETATM    5  C           1     -34.310  -2.326 -11.891  0.00  0.00     0.275 C 
BRANCH   5   6
HETATM    6  N           1     -34.009  -1.477 -10.691  0.00  0.00    -0.066 N 
HETATM    7  H           1     -33.453  -0.642 -10.985  0.00  0.00     0.275 HD
HETATM    8  H           1     -34.904  -1.161 -10.255  0.00  0.00     0.275 HD
HETATM    9  H           1     -33.460  -2.034  -9.999  0.00  0.00     0.275 HD
ENDBRANCH   5   6
BRANCH   5  10
HETATM   10  C           1     -34.814  -3.688 -11.435  0.00  0.00     0.046 C 
BRANCH  10  11
HETATM   11  C           1     -33.640  -4.525 -10.941  0.00  0.00    -0.020 C 
HETATM   12  C           1     -32.523  -4.493 -11.976  0.00  0.00     0.009 C 
HETATM   13  C           1     -34.095  -5.963 -10.729  0.00  0.00     0.009 C 
ENDBRANCH  10  11
ENDBRANCH   5  10
ENDBRANCH   4   5
BRANCH   3  14
HETATM   14  C           1     -36.072  -0.533 -14.782  0.00  0.00     0.214 C 
BRANCH  14  15
HETATM   15  C           1     -35.933   0.978 -14.656  0.00  0.00     0.147 C 
HETATM   16  C           1     -34.573   1.314 -14.057  0.00  0.00     0.042 C 
BRANCH  15  17
HETATM   17  O           1     -36.043   1.565 -15.925  0.00  0.00    -0.393 OA
HETATM   18  H           1     -36.020   2.498 -15.797  0.00  0.00     0.210 HD
ENDBRANCH  15  17
ENDBRANCH  14  15
BRANCH  14  19
HETATM   19  C           1     -35.900  -0.935 -16.227  0.00  0.00     0.199 C 
HETATM   20  O           1     -36.852  -0.813 -17.027  0.00  0.00    -0.646 OA
HETATM   21  O           1     -34.804  -1.390 -16.623  0.00  0.00    -0.646 OA
ENDBRANCH  14  19
ENDBRANCH   3  14
TORSDOF 8
ENDMDL
MODEL 2
REMARK VINA RESULT:      -6.5     12.675     14.537
REMARK  8 active torsions:
REMARK  status: ('A' for Active; 'I' for Inactive)
REMARK    1  A    between atoms: C_1  and  O_8 
REMARK    2  A    between atoms: C_1  and  C_9 
REMARK    3  A    between atoms: N_4  and  C_21 
REMARK    4  A    between atoms: C_7  and  C_12 
REMARK    5  A    between atoms: C_9  and  C_14 
REMARK    6  A    between atoms: C_9  and  N_19 
REMARK    7  A    between atoms: C_12  and  C_21 
REMARK       I    between atoms: N_19  and  C_20 
REMARK    8  A    between atoms: C_20  and  C_21 
ROOT
HETATM    1  O           1     -21.717  -3.546  -7.183  0.00  0.00    -0.271 OA
HETATM    2  H           1     -22.110  -5.698  -9.432  0.00  0.00     0.163 HD
HETATM    3  N           1     -22.149  -4.790  -8.987  0.00  0.00    -0.343 N 
HETATM    4  C           1     -21.672  -4.630  -7.714  0.00  0.00     0.249 C 
ENDROOT
BRANCH   4   5
HETATM    5  C           1     -21.088  -5.808  -6.974  0.00  0.00     0.275 C 
BRANCH   5   6
HETATM    6  N           1     -19.748  -6.149  -7.556  0.00  0.00    -0.066 N 
HETATM    7  H           1     -19.050  -6.258  -6.785  0.00  0.00     0.275 HD
HETATM    8  H           1     -19.818  -7.045  -8.089  0.00  0.00     0.275 HD
HETATM    9  H           1     -19.442  -5.383  -8.196  0.00  0.00     0.275 HD
ENDBRANCH   5   6
BRANCH   5  10
HETATM   10  C           1     -20.927  -5.455  -5.501  0.00  0.00     0.046 C 
BRANCH  10  11
HETATM   11  C           1     -21.803  -6.375  -4.660  0.00  0.00    -0.020 C 
HETATM   12  C           1     -21.456  -6.198  -3.187  0.00  0.00     0.009 C 
HETATM   13  C           1     -21.560  -7.822  -5.068  0.00  0.00     0.009 C 
ENDBRANCH  10  11
ENDBRANCH   5  10
ENDBRANCH   4   5
BRANCH   3  14
HETATM   14  C           1     -22.710  -3.657  -9.698  0.00  0.00     0.214 C 
BRANCH  14  15
HETATM   15  C           1     -22.143  -3.615 -11.112  0.00  0.00     0.147 C 
HETATM   16  C           1     -20.624  -3.702 -11.051  0.00  0.00     0.042 C 
BRANCH  15  17
HETATM   17  O           1     -22.645  -4.697 -11.848  0.00  0.00    -0.393 OA
HETATM   18  H           1     -21.903  -5.206 -12.128  0.00  0.00     0.210 HD
ENDBRANCH  15  17
ENDBRANCH  14  15
BRANCH  14  19
HETATM   19  C           1     -24.211  -3.798  -9.762  0.00  0.00     0.199 C 
HETATM   20  O           1     -24.725  -4.916  -9.978  0.00  0.00    -0.646 OA
HETATM   21  O           1     -24.940  -2.795  -9.598  0.00  0.00    -0.646 OA
ENDBRANCH  14  19
ENDBRANCH   3  14
TORSDOF 8
ENDMDL
MODEL 3
REMARK VINA RESULT:      -6.3      1.533      2.088
REMARK  8 active torsions:
REMARK  status: ('A' for Active; 'I' for Inactive)
REMARK    1  A    between atoms: C_1  and  O_8 
REMARK    2  A    between atoms: C_1  and  C_9 
REMARK    3  A    between atoms: N_4  and  C_21 
REMARK    4  A    between atoms: C_7  and  C_12 
REMARK    5  A    between atoms: C_9  and  C_14 
REMARK    6  A    between atoms: C_9  and  N_19 
REMARK    7  A    between atoms: C_12  and  C_21 
REMARK       I    between atoms: N_19  and  C_20 
REMARK    8  A    between atoms: C_20  and  C_21 
ROOT
HETATM    1  O           1     -34.667  -2.890 -13.792  0.00  0.00    -0.271 OA
HETATM    2  H           1     -35.312  -0.410 -11.982  0.00  0.00     0.163 HD
HETATM    3  N           1     -35.301  -0.985 -12.816  0.00  0.00    -0.343 N 
HETATM    4  C           1     -34.679  -2.204 -12.799  0.00  0.00     0.249 C 
ENDROOT
BRANCH   4   5
HETATM    5  C           1     -34.007  -2.691 -11.538  0.00  0.00     0.275 C 
BRANCH   5   6
HETATM    6  N           1     -33.949  -1.572 -10.539  0.00  0.00    -0.066 N 
HETATM    7  H           1     -34.234  -1.929  -9.599  0.00  0.00     0.275 HD
HETATM    8  H           1     -32.974  -1.201 -10.488  0.00  0.00     0.275 HD
HETATM    9  H           1     -34.599  -0.809 -10.833  0.00  0.00     0.275 HD
ENDBRANCH   5   6
BRANCH   5  10
HETATM   10  C           1     -34.801  -3.852 -10.954  0.00  0.00     0.046 C 
BRANCH  10  11
HETATM   11  C           1     -33.844  -4.963 -10.540  0.00  0.00    -0.020 C 
HETATM   12  C           1     -32.768  -5.130 -11.605  0.00  0.00     0.009 C 
HETATM   13  C           1     -34.616  -6.268 -10.390  0.00  0.00     0.009 C 
ENDBRANCH  10  11
ENDBRANCH   5  10
ENDBRANCH   4   5
BRANCH   3  14
HETATM   14  C           1     -35.947  -0.518 -14.027  0.00  0.00     0.214 C 
BRANCH  14  15
HETATM   15  C           1     -37.439  -0.349 -13.774  0.00  0.00     0.147 C 
HETATM   16  C           1     -37.672  -0.046 -12.300  0.00  0.00     0.042 C 
BRANCH  15  17
HETATM   17  O           1     -37.927   0.711 -14.553  0.00  0.00    -0.393 OA
HETATM   18  H           1     -38.100   0.363 -15.411  0.00  0.00     0.210 HD
ENDBRANCH  15  17
ENDBRANCH  14  15
BRANCH  14  19
HETATM   19  C           1     -35.352   0.807 -14.434  0.00  0.00     0.199 C 
HETATM   20  O           1     -35.514   1.234 -15.598  0.00  0.00    -0.646 OA
HETATM   21  O           1     -34.696   1.479 -13.608  0.00  0.00    -0.646 OA
ENDBRANCH  14  19
ENDBRANCH   3  14
TORSDOF 8
ENDMDL
MODEL 4
REMARK VINA RESULT:      -6.2      1.653      2.376
REMARK  8 active torsions:
REMARK  status: ('A' for Active; 'I' for Inactive)
REMARK    1  A    between atoms: C_1  and  O_8 
REMARK    2  A    between atoms: C_1  and  C_9 
REMARK    3  A    between atoms: N_4  and  C_21 
REMARK    4  A    between atoms: C_7  and  C_12 
REMARK    5  A    between atoms: C_9  and  C_14 
REMARK    6  A    between atoms: C_9  and  N_19 
REMARK    7  A    between atoms: C_12  and  C_21 
REMARK       I    between atoms: N_19  and  C_20 
REMARK    8  A    between atoms: C_20  and  C_21 
ROOT
HETATM    1  O           1     -34.923  -1.408 -11.679  0.00  0.00    -0.271 OA
HETATM    2  H           1     -35.240  -2.081 -14.727  0.00  0.00     0.163 HD
HETATM    3  N           1     -35.285  -1.529 -13.879  0.00  0.00    -0.343 N 
HETATM    4  C           1     -34.871  -2.066 -12.690  0.00  0.00     0.249 C 
ENDROOT
BRANCH   4   5
HETATM    5  C           1     -34.346  -3.481 -12.643  0.00  0.00     0.275 C 
BRANCH   5   6
HETATM    6  N           1     -33.644  -3.796 -13.930  0.00  0.00    -0.066 N 
HETATM    7  H           1     -33.987  -4.711 -14.300  0.00  0.00     0.275 HD
HETATM    8  H           1     -33.842  -3.044 -14.628  0.00  0.00     0.275 HD
HETATM    9  H           1     -32.615  -3.854 -13.760  0.00  0.00     0.275 HD
ENDBRANCH   5   6
BRANCH   5  10
HETATM   10  C           1     -33.370  -3.622 -11.483  0.00  0.00     0.046 C 
BRANCH  10  11
HETATM   11  C           1     -33.879  -4.686 -10.518  0.00  0.00    -0.020 C 
HETATM   12  C           1     -33.345  -6.049 -10.937  0.00  0.00     0.009 C 
HETATM   13  C           1     -35.402  -4.707 -10.543  0.00  0.00     0.009 C 
ENDBRANCH  10  11
ENDBRANCH   5  10
ENDBRANCH   4   5
BRANCH   3  14
HETATM   14  C           1     -35.788  -0.170 -13.924  0.00  0.00     0.214 C 
BRANCH  14  15
HETATM   15  C           1     -35.601   0.394 -15.327  0.00  0.00     0.147 C 
HETATM   16  C           1     -35.440  -0.753 -16.317  0.00  0.00     0.042 C 
BRANCH  15  17
HETATM   17  O           1     -36.724   1.158 -15.676  0.00  0.00    -0.393 OA
HETATM   18  H           1     -36.652   1.346 -16.596  0.00  0.00     0.210 HD
ENDBRANCH  15  17
ENDBRANCH  14  15
BRANCH  14  19
HETATM   19  C           1     -37.255  -0.165 -13.571  0.00  0.00     0.199 C 
HETATM   20  O           1     -38.075  -0.766 -14.299  0.00  0.00    -0.646 OA
HETATM   21  O           1     -37.650   0.440 -12.551  0.00  0.00    -0.646 OA
ENDBRANCH  14  19
ENDBRANCH   3  14
TORSDOF 8
ENDMDL
MODEL 5
REMARK VINA RESULT:      -5.8     11.938     13.832
REMARK  8 active torsions:
REMARK  status: ('A' for Active; 'I' for Inactive)
REMARK    1  A    between atoms: C_1  and  O_8 
REMARK    2  A    between atoms: C_1  and  C_9 
REMARK    3  A    between atoms: N_4  and  C_21 
REMARK    4  A    between atoms: C_7  and  C_12 
REMARK    5  A    between atoms: C_9  and  C_14 
REMARK    6  A    between atoms: C_9  and  N_19 
REMARK    7  A    between atoms: C_12  and  C_21 
REMARK       I    between atoms: N_19  and  C_20 
REMARK    8  A    between atoms: C_20  and  C_21 
ROOT
HETATM    1  O           1     -20.866  -3.926  -9.149  0.00  0.00    -0.271 OA
HETATM    2  H           1     -23.993  -3.929  -8.899  0.00  0.00     0.163 HD
HETATM    3  N           1     -23.088  -3.809  -9.336  0.00  0.00    -0.343 N 
HETATM    4  C           1     -21.946  -4.069  -8.628  0.00  0.00     0.249 C 
ENDROOT
BRANCH   4   5
HETATM    5  C           1     -22.036  -4.537  -7.195  0.00  0.00     0.275 C 
BRANCH   5   6
HETATM    6  N           1     -23.476  -4.592  -6.778  0.00  0.00    -0.066 N 
HETATM    7  H           1     -24.077  -4.760  -7.617  0.00  0.00     0.275 HD
HETATM    8  H           1     -23.611  -5.369  -6.093  0.00  0.00     0.275 HD
HETATM    9  H           1     -23.745  -3.685  -6.334  0.00  0.00     0.275 HD
ENDBRANCH   5   6
BRANCH   5  10
HETATM   10  C           1     -21.419  -5.923  -7.073  0.00  0.00     0.046 C 
BRANCH  10  11
HETATM   11  C           1     -20.550  -5.983  -5.823  0.00  0.00    -0.020 C 
HETATM   12  C           1     -21.366  -6.542  -4.664  0.00  0.00     0.009 C 
HETATM   13  C           1     -20.066  -4.582  -5.473  0.00  0.00     0.009 C 
ENDBRANCH  10  11
ENDBRANCH   5  10
ENDBRANCH   4   5
BRANCH   3  14
HETATM   14  C           1     -23.001  -3.360 -10.712  0.00  0.00     0.214 C 
BRANCH  14  15
HETATM   15  C           1     -22.370  -4.455 -11.563  0.00  0.00     0.147 C 
HETATM   16  C           1     -23.426  -5.495 -11.915  0.00  0.00     0.042 C 
BRANCH  15  17
HETATM   17  O           1     -21.858  -3.892 -12.741  0.00  0.00    -0.393 OA
HETATM   18  H           1     -21.788  -2.964 -12.593  0.00  0.00     0.210 HD
ENDBRANCH  15  17
ENDBRANCH  14  15
BRANCH  14  19
HETATM   19  C           1     -24.385  -3.055 -11.229  0.00  0.00     0.199 C 
HETATM   20  O           1     -25.377  -3.190 -10.479  0.00  0.00    -0.646 OA
HETATM   21  O           1     -24.541  -2.668 -12.408  0.00  0.00    -0.646 OA
ENDBRANCH  14  19
ENDBRANCH   3  14
TORSDOF 8
ENDMDL
MODEL 6
REMARK VINA RESULT:      -5.7      3.917      5.899
REMARK  8 active torsions:
REMARK  status: ('A' for Active; 'I' for Inactive)
REMARK    1  A    between atoms: C_1  and  O_8 
REMARK    2  A    between atoms: C_1  and  C_9 
REMARK    3  A    between atoms: N_4  and  C_21 
REMARK    4  A    between atoms: C_7  and  C_12 
REMARK    5  A    between atoms: C_9  and  C_14 
REMARK    6  A    between atoms: C_9  and  N_19 
REMARK    7  A    between atoms: C_12  and  C_21 
REMARK       I    between atoms: N_19  and  C_20 
REMARK    8  A    between atoms: C_20  and  C_21 
ROOT
HETATM    1  O           1     -34.996  -4.930 -15.445  0.00  0.00    -0.271 OA
HETATM    2  H           1     -32.395  -3.663 -14.232  0.00  0.00     0.163 HD
HETATM    3  N           1     -33.344  -4.017 -14.253  0.00  0.00    -0.343 N 
HETATM    4  C           1     -33.866  -4.507 -15.420  0.00  0.00     0.249 C 
ENDROOT
BRANCH   4   5
HETATM    5  C           1     -33.027  -4.520 -16.675  0.00  0.00     0.275 C 
BRANCH   5   6
HETATM    6  N           1     -33.176  -3.209 -17.388  0.00  0.00    -0.066 N 
HETATM    7  H           1     -32.422  -2.555 -17.077  0.00  0.00     0.275 HD
HETATM    8  H           1     -33.098  -3.362 -18.419  0.00  0.00     0.275 HD
HETATM    9  H           1     -34.108  -2.795 -17.165  0.00  0.00     0.275 HD
ENDBRANCH   5   6
BRANCH   5  10
HETATM   10  C           1     -31.565  -4.736 -16.308  0.00  0.00     0.046 C 
BRANCH  10  11
HETATM   11  C           1     -30.948  -5.754 -17.259  0.00  0.00    -0.020 C 
HETATM   12  C           1     -31.961  -6.852 -17.554  0.00  0.00     0.009 C 
HETATM   13  C           1     -29.710  -6.366 -16.615  0.00  0.00     0.009 C 
ENDBRANCH  10  11
ENDBRANCH   5  10
ENDBRANCH   4   5
BRANCH   3  14
HETATM   14  C           1     -34.150  -4.004 -13.048  0.00  0.00     0.214 C 
BRANCH  14  15
HETATM   15  C           1     -33.308  -4.479 -11.870  0.00  0.00     0.147 C 
HETATM   16  C           1     -33.988  -5.670 -11.208  0.00  0.00     0.042 C 
BRANCH  15  17
HETATM   17  O           1     -32.038  -4.860 -12.328  0.00  0.00    -0.393 OA
HETATM   18  H           1     -31.461  -4.132 -12.171  0.00  0.00     0.210 HD
ENDBRANCH  15  17
ENDBRANCH  14  15
BRANCH  14  19
HETATM   19  C           1     -34.638  -2.601 -12.784  0.00  0.00     0.199 C 
HETATM   20  O           1     -34.648  -2.152 -11.617  0.00  0.00    -0.646 OA
HETATM   21  O           1     -35.032  -1.888 -13.733  0.00  0.00    -0.646 OA
ENDBRANCH  14  19
ENDBRANCH   3  14
TORSDOF 8
ENDMDL
MODEL 7
REMARK VINA RESULT:      -5.5     13.168     15.618
REMARK  8 active torsions:
REMARK  status: ('A' for Active; 'I' for Inactive)
REMARK    1  A    between atoms: C_1  and  O_8 
REMARK    2  A    between atoms: C_1  and  C_9 
REMARK    3  A    between atoms: N_4  and  C_21 
REMARK    4  A    between atoms: C_7  and  C_12 
REMARK    5  A    between atoms: C_9  and  C_14 
REMARK    6  A    between atoms: C_9  and  N_19 
REMARK    7  A    between atoms: C_12  and  C_21 
REMARK       I    between atoms: N_19  and  C_20 
REMARK    8  A    between atoms: C_20  and  C_21 
ROOT
HETATM    1  O           1     -21.592  -3.387  -8.341  0.00  0.00    -0.271 OA
HETATM    2  H           1     -22.916  -5.824  -6.875  0.00  0.00     0.163 HD
HETATM    3  N           1     -22.233  -5.099  -7.060  0.00  0.00    -0.343 N 
HETATM    4  C           1     -22.405  -4.252  -8.120  0.00  0.00     0.249 C 
ENDROOT
BRANCH   4   5
HETATM    5  C           1     -23.613  -4.397  -9.014  0.00  0.00     0.275 C 
BRANCH   5   6
HETATM    6  N           1     -24.468  -3.169  -8.901  0.00  0.00    -0.066 N 
HETATM    7  H           1     -24.418  -2.626  -9.793  0.00  0.00     0.275 HD
HETATM    8  H           1     -25.458  -3.450  -8.721  0.00  0.00     0.275 HD
HETATM    9  H           1     -24.124  -2.577  -8.113  0.00  0.00     0.275 HD
ENDBRANCH   5   6
BRANCH   5  10
HETATM   10  C           1     -23.159  -4.569 -10.457  0.00  0.00     0.046 C 
BRANCH  10  11
HETATM   11  C           1     -23.301  -3.243 -11.196  0.00  0.00    -0.020 C 
HETATM   12  C           1     -24.280  -3.408 -12.351  0.00  0.00     0.009 C 
HETATM   13  C           1     -21.943  -2.816 -11.737  0.00  0.00     0.009 C 
ENDBRANCH  10  11
ENDBRANCH   5  10
ENDBRANCH   4   5
BRANCH   3  14
HETATM   14  C           1     -21.073  -4.959  -6.201  0.00  0.00     0.214 C 
BRANCH  14  15
HETATM   15  C           1     -21.265  -5.803  -4.947  0.00  0.00     0.147 C 
HETATM   16  C           1     -22.576  -6.571  -5.049  0.00  0.00     0.042 C 
BRANCH  15  17
HETATM   17  O           1     -20.200  -6.708  -4.827  0.00  0.00    -0.393 OA
HETATM   18  H           1     -20.238  -7.276  -5.578  0.00  0.00     0.210 HD
ENDBRANCH  15  17
ENDBRANCH  14  15
BRANCH  14  19
HETATM   19  C           1     -19.843  -5.426  -6.938  0.00  0.00     0.199 C 
HETATM   20  O           1     -19.837  -6.543  -7.499  0.00  0.00    -0.646 OA
HETATM   21  O           1     -18.829  -4.696  -6.989  0.00  0.00    -0.646 OA
ENDBRANCH  14  19
ENDBRANCH   3  14
TORSDOF 8
ENDMDL
MODEL 8
REMARK VINA RESULT:      -5.4     15.012     17.026
REMARK  8 active torsions:
REMARK  status: ('A' for Active; 'I' for Inactive)
REMARK    1  A    between atoms: C_1  and  O_8 
REMARK    2  A    between atoms: C_1  and  C_9 
REMARK    3  A    between atoms: N_4  and  C_21 
REMARK    4  A    between atoms: C_7  and  C_12 
REMARK    5  A    between atoms: C_9  and  C_14 
REMARK    6  A    between atoms: C_9  and  N_19 
REMARK    7  A    between atoms: C_12  and  C_21 
REMARK       I    between atoms: N_19  and  C_20 
REMARK    8  A    between atoms: C_20  and  C_21 
ROOT
HETATM    1  O           1     -21.496  -7.601  -4.683  0.00  0.00    -0.271 OA
HETATM    2  H           1     -21.289  -4.472  -4.642  0.00  0.00     0.163 HD
HETATM    3  N           1     -21.374  -5.400  -5.036  0.00  0.00    -0.343 N 
HETATM    4  C           1     -21.394  -6.493  -4.214  0.00  0.00     0.249 C 
ENDROOT
BRANCH   4   5
HETATM    5  C           1     -21.289  -6.315  -2.718  0.00  0.00     0.275 C 
BRANCH   5   6
HETATM    6  N           1     -22.635  -5.956  -2.163  0.00  0.00    -0.066 N 
HETATM    7  H           1     -23.343  -5.963  -2.931  0.00  0.00     0.275 HD
HETATM    8  H           1     -22.908  -6.653  -1.433  0.00  0.00     0.275 HD
HETATM    9  H           1     -22.593  -5.003  -1.738  0.00  0.00     0.275 HD
ENDBRANCH   5   6
BRANCH   5  10
HETATM   10  C           1     -20.807  -7.613  -2.084  0.00  0.00     0.046 C 
BRANCH  10  11
HETATM   11  C           1     -21.901  -8.174  -1.183  0.00  0.00    -0.020 C 
HETATM   12  C           1     -21.416  -8.182   0.260  0.00  0.00     0.009 C 
HETATM   13  C           1     -22.233  -9.597  -1.615  0.00  0.00     0.009 C 
ENDBRANCH  10  11
ENDBRANCH   5  10
ENDBRANCH   4   5
BRANCH   3  14
HETATM   14  C           1     -21.475  -5.572  -6.472  0.00  0.00     0.214 C 
BRANCH  14  15
HETATM   15  C           1     -22.332  -4.457  -7.058  0.00  0.00     0.147 C 
HETATM   16  C           1     -22.308  -4.544  -8.578  0.00  0.00     0.042 C 
BRANCH  15  17
HETATM   17  O           1     -23.652  -4.595  -6.603  0.00  0.00    -0.393 OA
HETATM   18  H           1     -24.150  -3.896  -6.992  0.00  0.00     0.210 HD
ENDBRANCH  15  17
ENDBRANCH  14  15
BRANCH  14  19
HETATM   19  C           1     -20.097  -5.521  -7.083  0.00  0.00     0.199 C 
HETATM   20  O           1     -19.473  -4.438  -7.128  0.00  0.00    -0.646 OA
HETATM   21  O           1     -19.578  -6.560  -7.545  0.00  0.00    -0.646 OA
ENDBRANCH  14  19
ENDBRANCH   3  14
TORSDOF 8
ENDMDL
MODEL 9
REMARK VINA RESULT:      -5.4      2.465      5.178
REMARK  8 active torsions:
REMARK  status: ('A' for Active; 'I' for Inactive)
REMARK    1  A    between atoms: C_1  and  O_8 
REMARK    2  A    between atoms: C_1  and  C_9 
REMARK    3  A    between atoms: N_4  and  C_21 
REMARK    4  A    between atoms: C_7  and  C_12 
REMARK    5  A    between atoms: C_9  and  C_14 
REMARK    6  A    between atoms: C_9  and  N_19 
REMARK    7  A    between atoms: C_12  and  C_21 
REMARK       I    between atoms: N_19  and  C_20 
REMARK    8  A    between atoms: C_20  and  C_21 
ROOT
HETATM    1  O           1     -33.933  -1.429 -11.061  0.00  0.00    -0.271 OA
HETATM    2  H           1     -36.123  -3.520 -11.882  0.00  0.00     0.163 HD
HETATM    3  N           1     -35.196  -3.132 -11.761  0.00  0.00    -0.343 N 
HETATM    4  C           1     -35.039  -1.891 -11.207  0.00  0.00     0.249 C 
ENDROOT
BRANCH   4   5
HETATM    5  C           1     -36.250  -1.098 -10.777  0.00  0.00     0.275 C 
BRANCH   5   6
HETATM    6  N           1     -36.073  -0.648  -9.357  0.00  0.00    -0.066 N 
HETATM    7  H           1     -35.069  -0.747  -9.082  0.00  0.00     0.275 HD
HETATM    8  H           1     -36.359   0.353  -9.271  0.00  0.00     0.275 HD
HETATM    9  H           1     -36.665  -1.236  -8.729  0.00  0.00     0.275 HD
ENDBRANCH   5   6
BRANCH   5  10
HETATM   10  C           1     -36.409   0.118 -11.679  0.00  0.00     0.046 C 
BRANCH  10  11
HETATM   11  C           1     -36.467  -0.333 -13.133  0.00  0.00    -0.020 C 
HETATM   12  C           1     -35.476   0.480 -13.957  0.00  0.00     0.009 C 
HETATM   13  C           1     -37.875  -0.117 -13.675  0.00  0.00     0.009 C 
ENDBRANCH  10  11
ENDBRANCH   5  10
ENDBRANCH   4   5
BRANCH   3  14
HETATM   14  C           1     -34.032  -3.893 -12.173  0.00  0.00     0.214 C 
BRANCH  14  15
HETATM   15  C           1     -34.226  -5.358 -11.802  0.00  0.00     0.147 C 
HETATM   16  C           1     -34.883  -5.451 -10.431  0.00  0.00     0.042 C 
BRANCH  15  17
HETATM   17  O           1     -35.046  -5.977 -12.756  0.00  0.00    -0.393 OA
HETATM   18  H           1     -34.902  -6.904 -12.681  0.00  0.00     0.210 HD
ENDBRANCH  15  17
ENDBRANCH  14  15
BRANCH  14  19
HETATM   19  C           1     -33.857  -3.772 -13.667  0.00  0.00     0.199 C 
HETATM   20  O           1     -34.661  -3.088 -14.337  0.00  0.00    -0.646 OA
HETATM   21  O           1     -32.907  -4.356 -14.234  0.00  0.00    -0.646 OA
ENDBRANCH  14  19
ENDBRANCH   3  14
TORSDOF 8
ENDMDL
