MODEL 1
REMARK VINA RESULT:      -7.1      0.000      0.000
REMARK  11 active torsions:
REMARK  status: ('A' for Active; 'I' for Inactive)
REMARK    1  A    between atoms: C_1  and  C_16 
REMARK    2  A    between atoms: C_1  and  C_2 
REMARK    3  A    between atoms: C_1  and  N_21 
REMARK    4  A    between atoms: C_2  and  C_25 
REMARK    5  A    between atoms: C_6  and  C_9 
REMARK    6  A    between atoms: C_6  and  C_7 
REMARK    7  A    between atoms: C_6  and  N_17 
REMARK    8  A    between atoms: C_7  and  O_24 
REMARK    9  A    between atoms: C_11  and  C_25 
REMARK       I    between atoms: C_11  and  N_12 
REMARK   10  A    between atoms: P_14  and  O_24 
REMARK   11  A    between atoms: P_14  and  O_19 
REMARK       I    between atoms: C_16  and  N_17 
ROOT
HETATM    1  H           1     -36.036  -2.331 -13.141  0.00  0.00     0.163 HD
HETATM    2  O           1     -33.901  -2.177 -10.848  0.00  0.00    -0.271 OA
HETATM    3  C           1     -34.585  -2.679 -11.709  0.00  0.00     0.249 C 
HETATM    4  N           1     -35.464  -1.910 -12.420  0.00  0.00    -0.343 N 
ENDROOT
BRANCH   3   5
HETATM    5  C           1     -34.467  -4.156 -11.998  0.00  0.00     0.275 C 
BRANCH   5   6
HETATM    6  C           1     -34.283  -4.917 -10.692  0.00  0.00     0.052 C 
BRANCH   6   7
HETATM    7  C           1     -33.541  -6.219 -10.962  0.00  0.00     0.105 C 
BRANCH   7   8
HETATM    8  C           1     -34.223  -7.349 -10.231  0.00  0.00     0.215 C 
HETATM    9  N           1     -33.725  -8.621 -10.318  0.00  0.00    -0.370 N 
HETATM   10  H           1     -34.183  -9.379  -9.828  0.00  0.00     0.159 HD
HETATM   11  H           1     -32.898  -8.804 -10.873  0.00  0.00     0.159 HD
HETATM   12  O           1     -35.210  -7.131  -9.569  0.00  0.00    -0.274 OA
ENDBRANCH   7   8
ENDBRANCH   6   7
ENDBRANCH   5   6
BRANCH   5  13
HETATM   13  N           1     -33.283  -4.398 -12.887  0.00  0.00    -0.066 N 
HETATM   14  H           1     -33.464  -3.984 -13.830  0.00  0.00     0.275 HD
HETATM   15  H           1     -32.436  -3.951 -12.468  0.00  0.00     0.275 HD
HETATM   16  H           1     -33.123  -5.426 -12.982  0.00  0.00     0.275 HD
ENDBRANCH   5  13
ENDBRANCH   3   5
BRANCH   4  17
HETATM   17  C           1     -35.578  -0.491 -12.142  0.00  0.00     0.210 C 
BRANCH  17  18
HETATM   18  C           1     -36.690  -0.262 -11.148  0.00  0.00     0.198 C 
HETATM   19  O           1     -37.722  -0.966 -11.192  0.00  0.00    -0.646 OA
HETATM   20  O           1     -36.579   0.632 -10.282  0.00  0.00    -0.646 OA
ENDBRANCH  17  18
BRANCH  17  21
HETATM   21  C           1     -35.886   0.255 -13.433  0.00  0.00     0.217 C 
BRANCH  21  22
HETATM   22  O           1     -36.603  -0.584 -14.298  0.00  0.00    -0.287 OA
BRANCH  22  23
HETATM   23  P           1     -36.312  -0.387 -15.875  0.00  0.00     0.406 P 
HETATM   24  O           1     -36.239   1.057 -16.187  0.00  0.00    -0.624 OA
HETATM   25  O           1     -37.405  -1.006 -16.659  0.00  0.00    -0.624 OA
BRANCH  23  26
HETATM   26  O           1     -34.910  -1.093 -16.255  0.00  0.00    -0.300 OA
HETATM   27  H           1     -34.404  -1.073 -15.460  0.00  0.00     0.223 HD
ENDBRANCH  23  26
ENDBRANCH  22  23
ENDBRANCH  21  22
ENDBRANCH  17  21
ENDBRANCH   4  17
TORSDOF 11
ENDMDL
MODEL 2
REMARK VINA RESULT:      -7.0     12.295     13.729
REMARK  11 active torsions:
REMARK  status: ('A' for Active; 'I' for Inactive)
REMARK    1  A    between atoms: C_1  and  C_16 
REMARK    2  A    between atoms: C_1  and  C_2 
REMARK    3  A    between atoms: C_1  and  N_21 
REMARK    4  A    between atoms: C_2  and  C_25 
REMARK    5  A    between atoms: C_6  and  C_9 
REMARK    6  A    between atoms: C_6  and  C_7 
REMARK    7  A    between atoms: C_6  and  N_17 
REMARK    8  A    between atoms: C_7  and  O_24 
REMARK    9  A    between atoms: C_11  and  C_25 
REMARK       I    between atoms: C_11  and  N_12 
REMARK   10  A    between atoms: P_14  and  O_24 
REMARK   11  A    between atoms: P_14  and  O_19 
REMARK       I    between atoms: C_16  and  N_17 
ROOT
HETATM    1  H           1     -21.642  -5.434 -10.004  0.00  0.00     0.163 HD
HETATM    2  O           1     -21.790  -3.355  -7.659  0.00  0.00    -0.271 OA
HETATM    3  C           1     -21.500  -4.380  -8.229  0.00  0.00     0.249 C 
HETATM    4  N           1     -21.886  -4.576  -9.526  0.00  0.00    -0.343 N 
ENDROOT
BRANCH   3   5
HETATM    5  C           1     -20.710  -5.446  -7.508  0.00  0.00     0.275 C 
BRANCH   5   6
HETATM    6  C           1     -21.526  -5.979  -6.338  0.00  0.00     0.052 C 
BRANCH   6   7
HETATM    7  C           1     -20.864  -5.574  -5.028  0.00  0.00     0.105 C 
BRANCH   7   8
HETATM    8  C           1     -21.306  -6.509  -3.929  0.00  0.00     0.215 C 
HETATM    9  N           1     -22.149  -6.062  -2.947  0.00  0.00    -0.370 N 
HETATM   10  H           1     -22.445  -6.690  -2.210  0.00  0.00     0.159 HD
HETATM   11  H           1     -22.475  -5.104  -2.958  0.00  0.00     0.159 HD
HETATM   12  O           1     -20.917  -7.653  -3.917  0.00  0.00    -0.274 OA
ENDBRANCH   7   8
ENDBRANCH   6   7
ENDBRANCH   5   6
BRANCH   5  13
HETATM   13  N           1     -19.429  -4.857  -6.995  0.00  0.00    -0.066 N 
HETATM   14  H           1     -19.289  -3.909  -7.412  0.00  0.00     0.275 HD
HETATM   15  H           1     -19.476  -4.775  -5.954  0.00  0.00     0.275 HD
HETATM   16  H           1     -18.631  -5.476  -7.259  0.00  0.00     0.275 HD
ENDBRANCH   5  13
ENDBRANCH   3   5
BRANCH   4  17
HETATM   17  C           1     -22.645  -3.552 -10.219  0.00  0.00     0.210 C 
BRANCH  17  18
HETATM   18  C           1     -24.120  -3.804 -10.027  0.00  0.00     0.198 C 
HETATM   19  O           1     -24.583  -4.955 -10.185  0.00  0.00    -0.646 OA
HETATM   20  O           1     -24.879  -2.864  -9.711  0.00  0.00    -0.646 OA
ENDBRANCH  17  18
BRANCH  17  21
HETATM   21  C           1     -22.311  -3.592 -11.704  0.00  0.00     0.217 C 
BRANCH  21  22
HETATM   22  O           1     -22.825  -2.447 -12.331  0.00  0.00    -0.287 OA
BRANCH  22  23
HETATM   23  P           1     -23.609  -2.693 -13.722  0.00  0.00     0.406 P 
HETATM   24  O           1     -24.416  -3.929 -13.621  0.00  0.00    -0.624 OA
HETATM   25  O           1     -22.629  -2.832 -14.822  0.00  0.00    -0.624 OA
BRANCH  23  26
HETATM   26  O           1     -24.581  -1.438 -14.020  0.00  0.00    -0.300 OA
HETATM   27  H           1     -24.019  -0.683 -13.991  0.00  0.00     0.223 HD
ENDBRANCH  23  26
ENDBRANCH  22  23
ENDBRANCH  21  22
ENDBRANCH  17  21
ENDBRANCH   4  17
TORSDOF 11
ENDMDL
MODEL 3
REMARK VINA RESULT:      -6.3     12.833     15.516
REMARK  11 active torsions:
REMARK  status: ('A' for Active; 'I' for Inactive)
REMARK    1  A    between atoms: C_1  and  C_16 
REMARK    2  A    between atoms: C_1  and  C_2 
REMARK    3  A    between atoms: C_1  and  N_21 
REMARK    4  A    between atoms: C_2  and  C_25 
REMARK    5  A    between atoms: C_6  and  C_9 
REMARK    6  A    between atoms: C_6  and  C_7 
REMARK    7  A    between atoms: C_6  and  N_17 
REMARK    8  A    between atoms: C_7  and  O_24 
REMARK    9  A    between atoms: C_11  and  C_25 
REMARK       I    between atoms: C_11  and  N_12 
REMARK   10  A    between atoms: P_14  and  O_24 
REMARK   11  A    between atoms: P_14  and  O_19 
REMARK       I    between atoms: C_16  and  N_17 
ROOT
HETATM    1  H           1     -21.583  -5.801  -9.390  0.00  0.00     0.163 HD
HETATM    2  O           1     -23.406  -3.710  -7.925  0.00  0.00    -0.271 OA
HETATM    3  C           1     -23.071  -4.501  -8.775  0.00  0.00     0.249 C 
HETATM    4  N           1     -21.864  -5.139  -8.679  0.00  0.00    -0.343 N 
ENDROOT
BRANCH   3   5
HETATM    5  C           1     -23.984  -4.785  -9.943  0.00  0.00     0.275 C 
BRANCH   5   6
HETATM    6  C           1     -23.296  -4.372 -11.238  0.00  0.00     0.052 C 
BRANCH   6   7
HETATM    7  C           1     -23.790  -2.996 -11.660  0.00  0.00     0.105 C 
BRANCH   7   8
HETATM    8  C           1     -23.498  -2.783 -13.125  0.00  0.00     0.215 C 
HETATM    9  N           1     -22.324  -3.238 -13.664  0.00  0.00    -0.370 N 
HETATM   10  H           1     -22.129  -3.094 -14.647  0.00  0.00     0.159 HD
HETATM   11  H           1     -21.652  -3.717 -13.078  0.00  0.00     0.159 HD
HETATM   12  O           1     -24.302  -2.212 -13.823  0.00  0.00    -0.274 OA
ENDBRANCH   7   8
ENDBRANCH   6   7
ENDBRANCH   5   6
BRANCH   5  13
HETATM   13  N           1     -25.256  -4.005  -9.783  0.00  0.00    -0.066 N 
HETATM   14  H           1     -25.138  -3.296  -9.026  0.00  0.00     0.275 HD
HETATM   15  H           1     -25.482  -3.521 -10.682  0.00  0.00     0.275 HD
HETATM   16  H           1     -26.034  -4.657  -9.534  0.00  0.00     0.275 HD
ENDBRANCH   5  13
ENDBRANCH   3   5
BRANCH   4  17
HETATM   17  C           1     -20.987  -4.865  -7.557  0.00  0.00     0.210 C 
BRANCH  17  18
HETATM   18  C           1     -19.691  -4.281  -8.063  0.00  0.00     0.198 C 
HETATM   19  O           1     -19.666  -3.665  -9.150  0.00  0.00    -0.646 OA
HETATM   20  O           1     -18.643  -4.413  -7.396  0.00  0.00    -0.646 OA
ENDBRANCH  17  18
BRANCH  17  21
HETATM   21  C           1     -20.703  -6.161  -6.809  0.00  0.00     0.217 C 
BRANCH  21  22
HETATM   22  O           1     -20.692  -5.912  -5.429  0.00  0.00    -0.287 OA
BRANCH  22  23
HETATM   23  P           1     -21.935  -6.514  -4.592  0.00  0.00     0.406 P 
HETATM   24  O           1     -21.869  -6.032  -3.195  0.00  0.00    -0.624 OA
HETATM   25  O           1     -21.871  -7.992  -4.606  0.00  0.00    -0.624 OA
BRANCH  23  26
HETATM   26  O           1     -23.322  -6.028  -5.264  0.00  0.00    -0.300 OA
HETATM   27  H           1     -23.276  -5.087  -5.261  0.00  0.00     0.223 HD
ENDBRANCH  23  26
ENDBRANCH  22  23
ENDBRANCH  21  22
ENDBRANCH  17  21
ENDBRANCH   4  17
TORSDOF 11
ENDMDL
MODEL 4
REMARK VINA RESULT:      -6.0     13.649     15.701
REMARK  11 active torsions:
REMARK  status: ('A' for Active; 'I' for Inactive)
REMARK    1  A    between atoms: C_1  and  C_16 
REMARK    2  A    between atoms: C_1  and  C_2 
REMARK    3  A    between atoms: C_1  and  N_21 
REMARK    4  A    between atoms: C_2  and  C_25 
REMARK    5  A    between atoms: C_6  and  C_9 
REMARK    6  A    between atoms: C_6  and  C_7 
REMARK    7  A    between atoms: C_6  and  N_17 
REMARK    8  A    between atoms: C_7  and  O_24 
REMARK    9  A    between atoms: C_11  and  C_25 
REMARK       I    between atoms: C_11  and  N_12 
REMARK   10  A    between atoms: P_14  and  O_24 
REMARK   11  A    between atoms: P_14  and  O_19 
REMARK       I    between atoms: C_16  and  N_17 
ROOT
HETATM    1  H           1     -22.335  -5.268  -5.228  0.00  0.00     0.163 HD
HETATM    2  O           1     -20.739  -7.839  -6.055  0.00  0.00    -0.271 OA
HETATM    3  C           1     -21.426  -7.121  -5.367  0.00  0.00     0.249 C 
HETATM    4  N           1     -21.760  -5.869  -5.804  0.00  0.00    -0.343 N 
ENDROOT
BRANCH   3   5
HETATM    5  C           1     -21.915  -7.608  -4.025  0.00  0.00     0.275 C 
BRANCH   5   6
HETATM    6  C           1     -21.203  -6.844  -2.916  0.00  0.00     0.052 C 
BRANCH   6   7
HETATM    7  C           1     -22.225  -6.344  -1.905  0.00  0.00     0.105 C 
BRANCH   7   8
HETATM    8  C           1     -22.259  -7.276  -0.719  0.00  0.00     0.215 C 
HETATM    9  N           1     -21.177  -8.066  -0.437  0.00  0.00    -0.370 N 
HETATM   10  H           1     -21.200  -8.691   0.359  0.00  0.00     0.159 HD
HETATM   11  H           1     -20.354  -8.025  -1.025  0.00  0.00     0.159 HD
HETATM   12  O           1     -23.241  -7.324  -0.017  0.00  0.00    -0.274 OA
ENDBRANCH   7   8
ENDBRANCH   6   7
ENDBRANCH   5   6
BRANCH   5  13
HETATM   13  N           1     -21.624  -9.073  -3.888  0.00  0.00    -0.066 N 
HETATM   14  H           1     -22.150  -9.459  -3.073  0.00  0.00     0.275 HD
HETATM   15  H           1     -21.919  -9.569  -4.760  0.00  0.00     0.275 HD
HETATM   16  H           1     -20.599  -9.212  -3.739  0.00  0.00     0.275 HD
ENDBRANCH   5  13
ENDBRANCH   3   5
BRANCH   4  17
HETATM   17  C           1     -21.289  -5.401  -7.094  0.00  0.00     0.210 C 
BRANCH  17  18
HETATM   18  C           1     -19.996  -4.645  -6.913  0.00  0.00     0.198 C 
HETATM   19  O           1     -19.516  -4.493  -5.769  0.00  0.00    -0.646 OA
HETATM   20  O           1     -19.405  -4.171  -7.907  0.00  0.00    -0.646 OA
ENDBRANCH  17  18
BRANCH  17  21
HETATM   21  C           1     -22.334  -4.481  -7.711  0.00  0.00     0.217 C 
BRANCH  21  22
HETATM   22  O           1     -22.357  -4.665  -9.101  0.00  0.00    -0.287 OA
BRANCH  22  23
HETATM   23  P           1     -23.608  -4.005  -9.882  0.00  0.00     0.406 P 
HETATM   24  O           1     -24.430  -5.075 -10.488  0.00  0.00    -0.624 OA
HETATM   25  O           1     -23.107  -3.105 -10.945  0.00  0.00    -0.624 OA
BRANCH  23  26
HETATM   26  O           1     -24.507  -3.160  -8.839  0.00  0.00    -0.300 OA
HETATM   27  H           1     -25.237  -2.847  -9.345  0.00  0.00     0.223 HD
ENDBRANCH  23  26
ENDBRANCH  22  23
ENDBRANCH  21  22
ENDBRANCH  17  21
ENDBRANCH   4  17
TORSDOF 11
ENDMDL
MODEL 5
REMARK VINA RESULT:      -6.0     14.818     17.525
REMARK  11 active torsions:
REMARK  status: ('A' for Active; 'I' for Inactive)
REMARK    1  A    between atoms: C_1  and  C_16 
REMARK    2  A    between atoms: C_1  and  C_2 
REMARK    3  A    between atoms: C_1  and  N_21 
REMARK    4  A    between atoms: C_2  and  C_25 
REMARK    5  A    between atoms: C_6  and  C_9 
REMARK    6  A    between atoms: C_6  and  C_7 
REMARK    7  A    between atoms: C_6  and  N_17 
REMARK    8  A    between atoms: C_7  and  O_24 
REMARK    9  A    between atoms: C_11  and  C_25 
REMARK       I    between atoms: C_11  and  N_12 
REMARK   10  A    between atoms: P_14  and  O_24 
REMARK   11  A    between atoms: P_14  and  O_19 
REMARK       I    between atoms: C_16  and  N_17 
ROOT
HETATM    1  H           1     -19.778  -6.879  -4.568  0.00  0.00     0.163 HD
HETATM    2  O           1     -22.503  -5.700  -5.579  0.00  0.00    -0.271 OA
HETATM    3  C           1     -21.307  -5.852  -5.511  0.00  0.00     0.249 C 
HETATM    4  N           1     -20.780  -6.751  -4.625  0.00  0.00    -0.343 N 
ENDROOT
BRANCH   3   5
HETATM    5  C           1     -20.393  -5.050  -6.406  0.00  0.00     0.275 C 
BRANCH   5   6
HETATM    6  C           1     -21.175  -3.904  -7.035  0.00  0.00     0.052 C 
BRANCH   6   7
HETATM    7  C           1     -21.336  -4.157  -8.527  0.00  0.00     0.105 C 
BRANCH   7   8
HETATM    8  C           1     -22.796  -4.363  -8.848  0.00  0.00     0.215 C 
HETATM    9  N           1     -23.751  -4.083  -7.908  0.00  0.00    -0.370 N 
HETATM   10  H           1     -24.730  -4.221  -8.124  0.00  0.00     0.159 HD
HETATM   11  H           1     -23.478  -3.738  -6.996  0.00  0.00     0.159 HD
HETATM   12  O           1     -23.122  -4.773  -9.937  0.00  0.00    -0.274 OA
ENDBRANCH   7   8
ENDBRANCH   6   7
ENDBRANCH   5   6
BRANCH   5  13
HETATM   13  N           1     -19.850  -5.936  -7.488  0.00  0.00    -0.066 N 
HETATM   14  H           1     -20.456  -6.781  -7.584  0.00  0.00     0.275 HD
HETATM   15  H           1     -19.837  -5.412  -8.392  0.00  0.00     0.275 HD
HETATM   16  H           1     -18.878  -6.230  -7.242  0.00  0.00     0.275 HD
ENDBRANCH   5  13
ENDBRANCH   3   5
BRANCH   4  17
HETATM   17  C           1     -21.658  -7.522  -3.765  0.00  0.00     0.210 C 
BRANCH  17  18
HETATM   18  C           1     -21.681  -6.905  -2.388  0.00  0.00     0.198 C 
HETATM   19  O           1     -21.040  -7.436  -1.455  0.00  0.00    -0.646 OA
HETATM   20  O           1     -22.339  -5.864  -2.180  0.00  0.00    -0.646 OA
ENDBRANCH  17  18
BRANCH  17  21
HETATM   21  C           1     -21.148  -8.954  -3.673  0.00  0.00     0.217 C 
BRANCH  21  22
HETATM   22  O           1     -19.758  -8.968  -3.853  0.00  0.00    -0.287 OA
BRANCH  22  23
HETATM   23  P           1     -19.227  -9.660  -5.213  0.00  0.00     0.406 P 
HETATM   24  O           1     -18.808  -8.612  -6.169  0.00  0.00    -0.624 OA
HETATM   25  O           1     -20.313 -10.468  -5.811  0.00  0.00    -0.624 OA
BRANCH  23  26
HETATM   26  O           1     -17.968 -10.614  -4.874  0.00  0.00    -0.300 OA
HETATM   27  H           1     -17.813 -11.102  -5.665  0.00  0.00     0.223 HD
ENDBRANCH  23  26
ENDBRANCH  22  23
ENDBRANCH  21  22
ENDBRANCH  17  21
ENDBRANCH   4  17
TORSDOF 11
ENDMDL
MODEL 6
REMARK VINA RESULT:      -5.9     25.301     26.687
REMARK  11 active torsions:
REMARK  status: ('A' for Active; 'I' for Inactive)
REMARK    1  A    between atoms: C_1  and  C_16 
REMARK    2  A    between atoms: C_1  and  C_2 
REMARK    3  A    between atoms: C_1  and  N_21 
REMARK    4  A    between atoms: C_2  and  C_25 
REMARK    5  A    between atoms: C_6  and  C_9 
REMARK    6  A    between atoms: C_6  and  C_7 
REMARK    7  A    between atoms: C_6  and  N_17 
REMARK    8  A    between atoms: C_7  and  O_24 
REMARK    9  A    between atoms: C_11  and  C_25 
REMARK       I    between atoms: C_11  and  N_12 
REMARK   10  A    between atoms: P_14  and  O_24 
REMARK   11  A    between atoms: P_14  and  O_19 
REMARK       I    between atoms: C_16  and  N_17 
ROOT
HETATM    1  H           1     -12.207   6.144 -21.239  0.00  0.00     0.163 HD
HETATM    2  O           1     -10.943   3.463 -22.264  0.00  0.00    -0.271 OA
HETATM    3  C           1     -11.767   4.338 -22.148  0.00  0.00     0.249 C 
HETATM    4  N           1     -11.517   5.410 -21.336  0.00  0.00    -0.343 N 
ENDROOT
BRANCH   3   5
HETATM    5  C           1     -13.073   4.248 -22.899  0.00  0.00     0.275 C 
BRANCH   5   6
HETATM    6  C           1     -13.966   5.419 -22.508  0.00  0.00     0.052 C 
BRANCH   6   7
HETATM    7  C           1     -15.115   4.917 -21.645  0.00  0.00     0.105 C 
BRANCH   7   8
HETATM    8  C           1     -14.942   5.421 -20.233  0.00  0.00     0.215 C 
HETATM    9  N           1     -15.847   5.074 -19.266  0.00  0.00    -0.370 N 
HETATM   10  H           1     -15.731   5.413 -18.319  0.00  0.00     0.159 HD
HETATM   11  H           1     -16.633   4.480 -19.498  0.00  0.00     0.159 HD
HETATM   12  O           1     -14.004   6.130 -19.956  0.00  0.00    -0.274 OA
ENDBRANCH   7   8
ENDBRANCH   6   7
ENDBRANCH   5   6
BRANCH   5  13
HETATM   13  N           1     -13.760   2.960 -22.554  0.00  0.00    -0.066 N 
HETATM   14  H           1     -14.697   3.164 -22.140  0.00  0.00     0.275 HD
HETATM   15  H           1     -13.880   2.387 -23.420  0.00  0.00     0.275 HD
HETATM   16  H           1     -13.181   2.431 -21.864  0.00  0.00     0.275 HD
ENDBRANCH   5  13
ENDBRANCH   3   5
BRANCH   4  17
HETATM   17  C           1     -10.262   5.497 -20.614  0.00  0.00     0.210 C 
BRANCH  17  18
HETATM   18  C           1     -10.519   5.326 -19.137  0.00  0.00     0.198 C 
HETATM   19  O           1     -11.583   4.800 -18.745  0.00  0.00    -0.646 OA
HETATM   20  O           1      -9.669   5.711 -18.306  0.00  0.00    -0.646 OA
ENDBRANCH  17  18
BRANCH  17  21
HETATM   21  C           1      -9.625   6.857 -20.866  0.00  0.00     0.217 C 
BRANCH  21  22
HETATM   22  O           1     -10.628   7.832 -20.963  0.00  0.00    -0.287 OA
BRANCH  22  23
HETATM   23  P           1     -10.457   9.120 -20.003  0.00  0.00     0.406 P 
HETATM   24  O           1     -11.680   9.950 -20.068  0.00  0.00    -0.624 OA
HETATM   25  O           1      -9.295   9.919 -20.451  0.00  0.00    -0.624 OA
BRANCH  23  26
HETATM   26  O           1     -10.220   8.629 -18.482  0.00  0.00    -0.300 OA
HETATM   27  H           1     -10.787   7.885 -18.375  0.00  0.00     0.223 HD
ENDBRANCH  23  26
ENDBRANCH  22  23
ENDBRANCH  21  22
ENDBRANCH  17  21
ENDBRANCH   4  17
TORSDOF 11
ENDMDL
MODEL 7
REMARK VINA RESULT:      -5.8     13.563     16.351
REMARK  11 active torsions:
REMARK  status: ('A' for Active; 'I' for Inactive)
REMARK    1  A    between atoms: C_1  and  C_16 
REMARK    2  A    between atoms: C_1  and  C_2 
REMARK    3  A    between atoms: C_1  and  N_21 
REMARK    4  A    between atoms: C_2  and  C_25 
REMARK    5  A    between atoms: C_6  and  C_9 
REMARK    6  A    between atoms: C_6  and  C_7 
REMARK    7  A    between atoms: C_6  and  N_17 
REMARK    8  A    between atoms: C_7  and  O_24 
REMARK    9  A    between atoms: C_11  and  C_25 
REMARK       I    between atoms: C_11  and  N_12 
REMARK   10  A    between atoms: P_14  and  O_24 
REMARK   11  A    between atoms: P_14  and  O_19 
REMARK       I    between atoms: C_16  and  N_17 
ROOT
HETATM    1  H           1     -22.847  -6.240  -7.583  0.00  0.00     0.163 HD
HETATM    2  O           1     -21.955  -3.238  -7.770  0.00  0.00    -0.271 OA
HETATM    3  C           1     -22.528  -4.256  -8.078  0.00  0.00     0.249 C 
HETATM    4  N           1     -22.367  -5.387  -7.326  0.00  0.00    -0.343 N 
ENDROOT
BRANCH   3   5
HETATM    5  C           1     -23.422  -4.280  -9.294  0.00  0.00     0.275 C 
BRANCH   5   6
HETATM    6  C           1     -22.602  -3.952 -10.535  0.00  0.00     0.052 C 
BRANCH   6   7
HETATM    7  C           1     -23.300  -2.858 -11.332  0.00  0.00     0.105 C 
BRANCH   7   8
HETATM    8  C           1     -23.390  -3.270 -12.781  0.00  0.00     0.215 C 
HETATM    9  N           1     -22.262  -3.303 -13.555  0.00  0.00    -0.370 N 
HETATM   10  H           1     -22.323  -3.579 -14.527  0.00  0.00     0.159 HD
HETATM   11  H           1     -21.366  -3.051 -13.156  0.00  0.00     0.159 HD
HETATM   12  O           1     -24.459  -3.572 -13.256  0.00  0.00    -0.274 OA
ENDBRANCH   7   8
ENDBRANCH   6   7
ENDBRANCH   5   6
BRANCH   5  13
HETATM   13  N           1     -24.512  -3.261  -9.133  0.00  0.00    -0.066 N 
HETATM   14  H           1     -24.875  -3.291  -8.154  0.00  0.00     0.275 HD
HETATM   15  H           1     -24.130  -2.309  -9.333  0.00  0.00     0.275 HD
HETATM   16  H           1     -25.287  -3.472  -9.800  0.00  0.00     0.275 HD
ENDBRANCH   5  13
ENDBRANCH   3   5
BRANCH   4  17
HETATM   17  C           1     -21.508  -5.365  -6.157  0.00  0.00     0.210 C 
BRANCH  17  18
HETATM   18  C           1     -20.079  -5.606  -6.579  0.00  0.00     0.198 C 
HETATM   19  O           1     -19.218  -4.718  -6.402  0.00  0.00    -0.646 OA
HETATM   20  O           1     -19.758  -6.692  -7.107  0.00  0.00    -0.646 OA
ENDBRANCH  17  18
BRANCH  17  21
HETATM   21  C           1     -21.943  -6.456  -5.188  0.00  0.00     0.217 C 
BRANCH  21  22
HETATM   22  O           1     -21.037  -6.520  -4.119  0.00  0.00    -0.287 OA
BRANCH  22  23
HETATM   23  P           1     -20.686  -8.001  -3.577  0.00  0.00     0.406 P 
HETATM   24  O           1     -19.479  -8.506  -4.268  0.00  0.00    -0.624 OA
HETATM   25  O           1     -21.824  -8.908  -3.846  0.00  0.00    -0.624 OA
BRANCH  23  26
HETATM   26  O           1     -20.409  -7.939  -1.986  0.00  0.00    -0.300 OA
HETATM   27  H           1     -20.880  -7.180  -1.687  0.00  0.00     0.223 HD
ENDBRANCH  23  26
ENDBRANCH  22  23
ENDBRANCH  21  22
ENDBRANCH  17  21
ENDBRANCH   4  17
TORSDOF 11
ENDMDL
MODEL 8
REMARK VINA RESULT:      -5.8     13.309     15.110
REMARK  11 active torsions:
REMARK  status: ('A' for Active; 'I' for Inactive)
REMARK    1  A    between atoms: C_1  and  C_16 
REMARK    2  A    between atoms: C_1  and  C_2 
REMARK    3  A    between atoms: C_1  and  N_21 
REMARK    4  A    between atoms: C_2  and  C_25 
REMARK    5  A    between atoms: C_6  and  C_9 
REMARK    6  A    between atoms: C_6  and  C_7 
REMARK    7  A    between atoms: C_6  and  N_17 
REMARK    8  A    between atoms: C_7  and  O_24 
REMARK    9  A    between atoms: C_11  and  C_25 
REMARK       I    between atoms: C_11  and  N_12 
REMARK   10  A    between atoms: P_14  and  O_24 
REMARK   11  A    between atoms: P_14  and  O_19 
REMARK       I    between atoms: C_16  and  N_17 
ROOT
HETATM    1  H           1     -22.262  -4.106  -6.545  0.00  0.00     0.163 HD
HETATM    2  O           1     -20.833  -6.837  -7.128  0.00  0.00    -0.271 OA
HETATM    3  C           1     -21.330  -5.952  -6.473  0.00  0.00     0.249 C 
HETATM    4  N           1     -21.846  -4.847  -7.093  0.00  0.00    -0.343 N 
ENDROOT
BRANCH   3   5
HETATM    5  C           1     -21.381  -6.065  -4.968  0.00  0.00     0.275 C 
BRANCH   5   6
HETATM    6  C           1     -20.601  -7.296  -4.524  0.00  0.00     0.052 C 
BRANCH   6   7
HETATM    7  C           1     -21.473  -8.151  -3.616  0.00  0.00     0.105 C 
BRANCH   7   8
HETATM    8  C           1     -20.985  -8.035  -2.193  0.00  0.00     0.215 C 
HETATM    9  N           1     -21.740  -7.373  -1.262  0.00  0.00    -0.370 N 
HETATM   10  H           1     -21.412  -7.295  -0.307  0.00  0.00     0.159 HD
HETATM   11  H           1     -22.625  -6.961  -1.528  0.00  0.00     0.159 HD
HETATM   12  O           1     -19.929  -8.527  -1.875  0.00  0.00    -0.274 OA
ENDBRANCH   7   8
ENDBRANCH   6   7
ENDBRANCH   5   6
BRANCH   5  13
HETATM   13  N           1     -22.809  -6.194  -4.526  0.00  0.00    -0.066 N 
HETATM   14  H           1     -23.443  -6.026  -5.339  0.00  0.00     0.275 HD
HETATM   15  H           1     -22.971  -7.155  -4.150  0.00  0.00     0.275 HD
HETATM   16  H           1     -23.006  -5.491  -3.778  0.00  0.00     0.275 HD
ENDBRANCH   5  13
ENDBRANCH   3   5
BRANCH   4  17
HETATM   17  C           1     -21.796  -4.738  -8.539  0.00  0.00     0.210 C 
BRANCH  17  18
HETATM   18  C           1     -20.399  -4.361  -8.967  0.00  0.00     0.198 C 
HETATM   19  O           1     -19.891  -4.890  -9.979  0.00  0.00    -0.646 OA
HETATM   20  O           1     -19.750  -3.519  -8.309  0.00  0.00    -0.646 OA
ENDBRANCH  17  18
BRANCH  17  21
HETATM   21  C           1     -22.776  -3.668  -9.000  0.00  0.00     0.217 C 
BRANCH  21  22
HETATM   22  O           1     -22.497  -3.318 -10.329  0.00  0.00    -0.287 OA
BRANCH  22  23
HETATM   23  P           1     -23.707  -3.512 -11.381  0.00  0.00     0.406 P 
HETATM   24  O           1     -23.690  -4.896 -11.903  0.00  0.00    -0.624 OA
HETATM   25  O           1     -23.543  -2.561 -12.503  0.00  0.00    -0.624 OA
BRANCH  23  26
HETATM   26  O           1     -25.114  -3.233 -10.638  0.00  0.00    -0.300 OA
HETATM   27  H           1     -24.927  -3.324  -9.720  0.00  0.00     0.223 HD
ENDBRANCH  23  26
ENDBRANCH  22  23
ENDBRANCH  21  22
ENDBRANCH  17  21
ENDBRANCH   4  17
TORSDOF 11
ENDMDL
MODEL 9
REMARK VINA RESULT:      -5.6     14.211     17.332
REMARK  11 active torsions:
REMARK  status: ('A' for Active; 'I' for Inactive)
REMARK    1  A    between atoms: C_1  and  C_16 
REMARK    2  A    between atoms: C_1  and  C_2 
REMARK    3  A    between atoms: C_1  and  N_21 
REMARK    4  A    between atoms: C_2  and  C_25 
REMARK    5  A    between atoms: C_6  and  C_9 
REMARK    6  A    between atoms: C_6  and  C_7 
REMARK    7  A    between atoms: C_6  and  N_17 
REMARK    8  A    between atoms: C_7  and  O_24 
REMARK    9  A    between atoms: C_11  and  C_25 
REMARK       I    between atoms: C_11  and  N_12 
REMARK   10  A    between atoms: P_14  and  O_24 
REMARK   11  A    between atoms: P_14  and  O_19 
REMARK       I    between atoms: C_16  and  N_17 
ROOT
HETATM    1  H           1     -20.149  -6.826  -4.893  0.00  0.00     0.163 HD
HETATM    2  O           1     -23.140  -6.004  -5.364  0.00  0.00    -0.271 OA
HETATM    3  C           1     -21.944  -6.017  -5.532  0.00  0.00     0.249 C 
HETATM    4  N           1     -21.151  -6.814  -4.752  0.00  0.00    -0.343 N 
ENDROOT
BRANCH   3   5
HETATM    5  C           1     -21.323  -5.154  -6.604  0.00  0.00     0.275 C 
BRANCH   5   6
HETATM    6  C           1     -22.412  -4.347  -7.300  0.00  0.00     0.052 C 
BRANCH   6   7
HETATM    7  C           1     -22.244  -4.462  -8.809  0.00  0.00     0.105 C 
BRANCH   7   8
HETATM    8  C           1     -23.589  -4.316  -9.478  0.00  0.00     0.215 C 
HETATM    9  N           1     -24.464  -3.352  -9.054  0.00  0.00    -0.370 N 
HETATM   10  H           1     -25.366  -3.255  -9.503  0.00  0.00     0.159 HD
HETATM   11  H           1     -24.210  -2.737  -8.292  0.00  0.00     0.159 HD
HETATM   12  O           1     -23.893  -5.050 -10.388  0.00  0.00    -0.274 OA
ENDBRANCH   7   8
ENDBRANCH   6   7
ENDBRANCH   5   6
BRANCH   5  13
HETATM   13  N           1     -20.630  -6.027  -7.609  0.00  0.00    -0.066 N 
HETATM   14  H           1     -19.783  -5.536  -7.972  0.00  0.00     0.275 HD
HETATM   15  H           1     -20.344  -6.923  -7.152  0.00  0.00     0.275 HD
HETATM   16  H           1     -21.281  -6.233  -8.399  0.00  0.00     0.275 HD
ENDBRANCH   5  13
ENDBRANCH   3   5
BRANCH   4  17
HETATM   17  C           1     -21.747  -7.643  -3.721  0.00  0.00     0.210 C 
BRANCH  17  18
HETATM   18  C           1     -21.579  -6.974  -2.379  0.00  0.00     0.198 C 
HETATM   19  O           1     -22.158  -5.892  -2.144  0.00  0.00    -0.646 OA
HETATM   20  O           1     -20.862  -7.503  -1.503  0.00  0.00    -0.646 OA
ENDBRANCH  17  18
BRANCH  17  21
HETATM   21  C           1     -21.059  -9.001  -3.703  0.00  0.00     0.217 C 
BRANCH  21  22
HETATM   22  O           1     -22.027 -10.016  -3.671  0.00  0.00    -0.287 OA
BRANCH  22  23
HETATM   23  P           1     -22.092 -10.890  -2.315  0.00  0.00     0.406 P 
HETATM   24  O           1     -20.729 -11.335  -1.949  0.00  0.00    -0.624 OA
HETATM   25  O           1     -22.955 -12.072  -2.530  0.00  0.00    -0.624 OA
BRANCH  23  26
HETATM   26  O           1     -22.702  -9.987  -1.122  0.00  0.00    -0.300 OA
HETATM   27  H           1     -21.957  -9.558  -0.736  0.00  0.00     0.223 HD
ENDBRANCH  23  26
ENDBRANCH  22  23
ENDBRANCH  21  22
ENDBRANCH  17  21
ENDBRANCH   4  17
TORSDOF 11
ENDMDL
