MODEL 1
REMARK VINA RESULT:      -7.3      0.000      0.000
REMARK  15 active torsions:
REMARK  status: ('A' for Active; 'I' for Inactive)
REMARK       I    between atoms: C_1  and  N_2 
REMARK    1  A    between atoms: C_1  and  C_33 
REMARK    2  A    between atoms: N_2  and  C_6 
REMARK    3  A    between atoms: C_5  and  C_6 
REMARK    4  A    between atoms: C_6  and  C_7 
REMARK    5  A    between atoms: C_7  and  C_8 
REMARK    6  A    between atoms: C_8  and  N_9 
REMARK    7  A    between atoms: N_9  and  C_13 
REMARK    8  A    between atoms: C_12  and  C_13 
REMARK    9  A    between atoms: C_13  and  C_15 
REMARK   10  A    between atoms: O_14  and  C_15 
REMARK   11  A    between atoms: N_25  and  C_33 
REMARK       I    between atoms: N_26  and  C_28 
REMARK       I    between atoms: N_27  and  C_28 
REMARK   12  A    between atoms: N_29  and  C_30 
REMARK   13  A    between atoms: C_30  and  C_31 
REMARK   14  A    between atoms: C_31  and  C_32 
REMARK   15  A    between atoms: C_32  and  C_33 
ROOT
HETATM    1  C           1     -20.958  -4.419  -7.431  0.00  0.00     0.249 C 
HETATM    2  N           1     -21.224  -4.866  -8.697  0.00  0.00    -0.345 N 
HETATM    3  H           1     -20.938  -5.795  -8.978  0.00  0.00     0.163 HD
HETATM    4  O           1     -21.300  -3.310  -7.098  0.00  0.00    -0.271 OA
ENDROOT
BRANCH   1   5
HETATM    5  C           1     -20.237  -5.314  -6.452  0.00  0.00     0.274 C 
BRANCH   5   6
HETATM    6  N           1     -20.070  -4.594  -5.148  0.00  0.00    -0.067 N 
HETATM    7  H           1     -19.110  -4.769  -4.773  0.00  0.00     0.275 HD
HETATM    8  H           1     -20.201  -3.568  -5.297  0.00  0.00     0.275 HD
HETATM    9  H           1     -20.779  -4.941  -4.464  0.00  0.00     0.275 HD
ENDBRANCH   5   6
BRANCH   5  10
HETATM   10  C           1     -21.050  -6.583  -6.230  0.00  0.00     0.044 C 
BRANCH  10  11
HETATM   11  C           1     -20.234  -7.572  -5.409  0.00  0.00     0.023 C 
BRANCH  11  12
HETATM   12  C           1     -21.111  -8.174  -4.319  0.00  0.00     0.138 C 
BRANCH  12  13
HETATM   13  N           1     -21.879  -7.107  -3.661  0.00  0.00    -0.227 N 
HETATM   14  H           1     -22.605  -6.574  -4.200  0.00  0.00     0.177 HD
HETATM   15  C           1     -21.663  -6.830  -2.445  0.00  0.00     0.665 C 
HETATM   16  N           1     -20.764  -7.490  -1.778  0.00  0.00    -0.235 N 
HETATM   17  N           1     -22.324  -5.910  -1.878  0.00  0.00    -0.235 N 
HETATM   18  H           1     -20.586  -7.262  -0.774  0.00  0.00     0.174 HD
HETATM   19  H           1     -20.218  -8.249  -2.245  0.00  0.00     0.174 HD
HETATM   20  H           1     -23.050  -5.377  -2.417  0.00  0.00     0.174 HD
HETATM   21  H           1     -22.145  -5.681  -0.869  0.00  0.00     0.174 HD
ENDBRANCH  12  13
ENDBRANCH  11  12
ENDBRANCH  10  11
ENDBRANCH   5  10
ENDBRANCH   1   5
BRANCH   2  22
HETATM   22  C           1     -21.916  -4.007  -9.639  0.00  0.00     0.187 C 
BRANCH  22  23
HETATM   23  C           1     -23.381  -4.369  -9.665  0.00  0.00     0.196 C 
HETATM   24  O           1     -24.208  -3.672  -9.039  0.00  0.00    -0.646 OA
HETATM   25  O           1     -23.767  -5.366 -10.313  0.00  0.00    -0.646 OA
ENDBRANCH  22  23
BRANCH  22  26
HETATM   26  C           1     -21.320  -4.193 -11.028  0.00  0.00     0.066 C 
BRANCH  26  27
HETATM   27  C           1     -21.577  -2.946 -11.863  0.00  0.00     0.273 C 
BRANCH  27  28
HETATM   28  N           1     -22.051  -3.330 -13.166  0.00  0.00     0.101 N 
HETATM   29  H           1     -22.271  -4.326 -13.168  0.00  0.00     0.317 HD
BRANCH  28  30
HETATM   30  C           1     -23.247  -2.576 -13.435  0.00  0.00     0.348 C 
BRANCH  30  31
HETATM   31  C           1     -24.450  -3.358 -12.969  0.00  0.00     0.210 C 
HETATM   32  O           1     -24.694  -4.482 -13.459  0.00  0.00    -0.646 OA
HETATM   33  O           1     -25.203  -2.882 -12.092  0.00  0.00    -0.646 OA
ENDBRANCH  30  31
BRANCH  30  34
HETATM   34  C           1     -23.357  -2.319 -14.932  0.00  0.00     0.158 C 
HETATM   35  C           1     -23.654  -0.844 -15.172  0.00  0.00     0.042 C 
BRANCH  34  36
HETATM   36  O           1     -22.147  -2.659 -15.554  0.00  0.00    -0.393 OA
HETATM   37  H           1     -21.734  -3.310 -15.013  0.00  0.00     0.210 HD
ENDBRANCH  34  36
ENDBRANCH  30  34
ENDBRANCH  28  30
ENDBRANCH  27  28
ENDBRANCH  26  27
ENDBRANCH  22  26
ENDBRANCH   2  22
TORSDOF 15
ENDMDL
MODEL 2
REMARK VINA RESULT:      -7.2      3.796     10.307
REMARK  15 active torsions:
REMARK  status: ('A' for Active; 'I' for Inactive)
REMARK       I    between atoms: C_1  and  N_2 
REMARK    1  A    between atoms: C_1  and  C_33 
REMARK    2  A    between atoms: N_2  and  C_6 
REMARK    3  A    between atoms: C_5  and  C_6 
REMARK    4  A    between atoms: C_6  and  C_7 
REMARK    5  A    between atoms: C_7  and  C_8 
REMARK    6  A    between atoms: C_8  and  N_9 
REMARK    7  A    between atoms: N_9  and  C_13 
REMARK    8  A    between atoms: C_12  and  C_13 
REMARK    9  A    between atoms: C_13  and  C_15 
REMARK   10  A    between atoms: O_14  and  C_15 
REMARK   11  A    between atoms: N_25  and  C_33 
REMARK       I    between atoms: N_26  and  C_28 
REMARK       I    between atoms: N_27  and  C_28 
REMARK   12  A    between atoms: N_29  and  C_30 
REMARK   13  A    between atoms: C_30  and  C_31 
REMARK   14  A    between atoms: C_31  and  C_32 
REMARK   15  A    between atoms: C_32  and  C_33 
ROOT
HETATM    1  C           1     -21.001  -5.090  -6.948  0.00  0.00     0.249 C 
HETATM    2  N           1     -21.353  -6.304  -6.425  0.00  0.00    -0.345 N 
HETATM    3  H           1     -21.973  -6.917  -6.939  0.00  0.00     0.163 HD
HETATM    4  O           1     -20.262  -4.359  -6.333  0.00  0.00    -0.271 OA
ENDROOT
BRANCH   1   5
HETATM    5  C           1     -21.535  -4.665  -8.294  0.00  0.00     0.274 C 
BRANCH   5   6
HETATM    6  N           1     -22.566  -3.593  -8.106  0.00  0.00    -0.067 N 
HETATM    7  H           1     -23.337  -3.724  -8.800  0.00  0.00     0.275 HD
HETATM    8  H           1     -22.957  -3.651  -7.138  0.00  0.00     0.275 HD
HETATM    9  H           1     -22.126  -2.656  -8.248  0.00  0.00     0.275 HD
ENDBRANCH   5   6
BRANCH   5  10
HETATM   10  C           1     -20.394  -4.126  -9.146  0.00  0.00     0.044 C 
BRANCH  10  11
HETATM   11  C           1     -20.666  -4.433 -10.613  0.00  0.00     0.023 C 
BRANCH  11  12
HETATM   12  C           1     -21.392  -3.256 -11.252  0.00  0.00     0.138 C 
BRANCH  12  13
HETATM   13  N           1     -21.726  -3.585 -12.646  0.00  0.00    -0.227 N 
HETATM   14  H           1     -21.141  -4.277 -13.177  0.00  0.00     0.177 HD
HETATM   15  C           1     -22.718  -3.034 -13.206  0.00  0.00     0.665 C 
HETATM   16  N           1     -23.442  -2.176 -12.549  0.00  0.00    -0.235 N 
HETATM   17  N           1     -23.006  -3.316 -14.406  0.00  0.00    -0.235 N 
HETATM   18  H           1     -24.261  -1.721 -13.011  0.00  0.00     0.174 HD
HETATM   19  H           1     -23.204  -1.943 -11.558  0.00  0.00     0.174 HD
HETATM   20  H           1     -22.421  -4.008 -14.937  0.00  0.00     0.174 HD
HETATM   21  H           1     -23.829  -2.858 -14.870  0.00  0.00     0.174 HD
ENDBRANCH  12  13
ENDBRANCH  11  12
ENDBRANCH  10  11
ENDBRANCH   5  10
ENDBRANCH   1   5
BRANCH   2  22
HETATM   22  C           1     -20.841  -6.713  -5.131  0.00  0.00     0.187 C 
BRANCH  22  23
HETATM   23  C           1     -20.364  -8.143  -5.210  0.00  0.00     0.196 C 
HETATM   24  O           1     -21.099  -9.020  -5.714  0.00  0.00    -0.646 OA
HETATM   25  O           1     -19.235  -8.451  -4.771  0.00  0.00    -0.646 OA
ENDBRANCH  22  23
BRANCH  22  26
HETATM   26  C           1     -21.946  -6.603  -4.089  0.00  0.00     0.066 C 
BRANCH  26  27
HETATM   27  C           1     -21.328  -6.403  -2.712  0.00  0.00     0.273 C 
BRANCH  27  28
HETATM   28  N           1     -22.033  -7.206  -1.749  0.00  0.00     0.101 N 
HETATM   29  H           1     -22.685  -7.824  -2.233  0.00  0.00     0.317 HD
BRANCH  28  30
HETATM   30  C           1     -21.060  -7.997  -1.044  0.00  0.00     0.348 C 
BRANCH  30  31
HETATM   31  C           1     -20.855  -9.305  -1.767  0.00  0.00     0.210 C 
HETATM   32  O           1     -19.719  -9.823  -1.813  0.00  0.00    -0.646 OA
HETATM   33  O           1     -21.823  -9.872  -2.321  0.00  0.00    -0.646 OA
ENDBRANCH  30  31
BRANCH  30  34
HETATM   34  C           1     -21.558  -8.271   0.369  0.00  0.00     0.158 C 
HETATM   35  C           1     -23.056  -8.006   0.440  0.00  0.00     0.042 C 
BRANCH  34  36
HETATM   36  O           1     -21.303  -9.609   0.703  0.00  0.00    -0.393 OA
HETATM   37  H           1     -20.502  -9.851   0.270  0.00  0.00     0.210 HD
ENDBRANCH  34  36
ENDBRANCH  30  34
ENDBRANCH  28  30
ENDBRANCH  27  28
ENDBRANCH  26  27
ENDBRANCH  22  26
ENDBRANCH   2  22
TORSDOF 15
ENDMDL
MODEL 3
REMARK VINA RESULT:      -7.0      2.217      3.826
REMARK  15 active torsions:
REMARK  status: ('A' for Active; 'I' for Inactive)
REMARK       I    between atoms: C_1  and  N_2 
REMARK    1  A    between atoms: C_1  and  C_33 
REMARK    2  A    between atoms: N_2  and  C_6 
REMARK    3  A    between atoms: C_5  and  C_6 
REMARK    4  A    between atoms: C_6  and  C_7 
REMARK    5  A    between atoms: C_7  and  C_8 
REMARK    6  A    between atoms: C_8  and  N_9 
REMARK    7  A    between atoms: N_9  and  C_13 
REMARK    8  A    between atoms: C_12  and  C_13 
REMARK    9  A    between atoms: C_13  and  C_15 
REMARK   10  A    between atoms: O_14  and  C_15 
REMARK   11  A    between atoms: N_25  and  C_33 
REMARK       I    between atoms: N_26  and  C_28 
REMARK       I    between atoms: N_27  and  C_28 
REMARK   12  A    between atoms: N_29  and  C_30 
REMARK   13  A    between atoms: C_30  and  C_31 
REMARK   14  A    between atoms: C_31  and  C_32 
REMARK   15  A    between atoms: C_32  and  C_33 
ROOT
HETATM    1  C           1     -21.351  -6.601  -4.840  0.00  0.00     0.249 C 
HETATM    2  N           1     -21.085  -5.377  -5.391  0.00  0.00    -0.345 N 
HETATM    3  H           1     -20.858  -4.591  -4.795  0.00  0.00     0.163 HD
HETATM    4  O           1     -21.622  -7.538  -5.552  0.00  0.00    -0.271 OA
ENDROOT
BRANCH   1   5
HETATM    5  C           1     -21.304  -6.780  -3.342  0.00  0.00     0.274 C 
BRANCH   5   6
HETATM    6  N           1     -22.433  -6.021  -2.713  0.00  0.00    -0.067 N 
HETATM    7  H           1     -23.011  -5.572  -3.459  0.00  0.00     0.275 HD
HETATM    8  H           1     -23.029  -6.678  -2.160  0.00  0.00     0.275 HD
HETATM    9  H           1     -22.048  -5.283  -2.080  0.00  0.00     0.275 HD
ENDBRANCH   5   6
BRANCH   5  10
HETATM   10  C           1     -21.436  -8.259  -3.003  0.00  0.00     0.044 C 
BRANCH  10  11
HETATM   11  C           1     -20.279  -8.680  -2.106  0.00  0.00     0.023 C 
BRANCH  11  12
HETATM   12  C           1     -20.820  -9.433  -0.898  0.00  0.00     0.138 C 
BRANCH  12  13
HETATM   13  N           1     -22.203  -9.008  -0.633  0.00  0.00    -0.227 N 
HETATM   14  H           1     -22.963  -9.239  -1.320  0.00  0.00     0.177 HD
HETATM   15  C           1     -22.476  -8.363   0.421  0.00  0.00     0.665 C 
HETATM   16  N           1     -21.534  -8.078   1.270  0.00  0.00    -0.235 N 
HETATM   17  N           1     -23.666  -7.996   0.649  0.00  0.00    -0.235 N 
HETATM   18  H           1     -21.759  -7.546   2.141  0.00  0.00     0.174 HD
HETATM   19  H           1     -20.551  -8.380   1.083  0.00  0.00     0.174 HD
HETATM   20  H           1     -24.427  -8.227  -0.037  0.00  0.00     0.174 HD
HETATM   21  H           1     -23.892  -7.462   1.524  0.00  0.00     0.174 HD
ENDBRANCH  12  13
ENDBRANCH  11  12
ENDBRANCH  10  11
ENDBRANCH   5  10
ENDBRANCH   1   5
BRANCH   2  22
HETATM   22  C           1     -21.131  -5.204  -6.830  0.00  0.00     0.187 C 
BRANCH  22  23
HETATM   23  C           1     -19.740  -5.353  -7.398  0.00  0.00     0.196 C 
HETATM   24  O           1     -19.249  -6.492  -7.555  0.00  0.00    -0.646 OA
HETATM   25  O           1     -19.080  -4.339  -7.709  0.00  0.00    -0.646 OA
ENDBRANCH  22  23
BRANCH  22  26
HETATM   26  C           1     -21.668  -3.817  -7.158  0.00  0.00     0.066 C 
BRANCH  26  27
HETATM   27  C           1     -22.793  -3.935  -8.178  0.00  0.00     0.273 C 
BRANCH  27  28
HETATM   28  N           1     -22.259  -4.404  -9.429  0.00  0.00     0.101 N 
HETATM   29  H           1     -22.663  -5.313  -9.652  0.00  0.00     0.317 HD
BRANCH  28  30
HETATM   30  C           1     -22.628  -3.454 -10.444  0.00  0.00     0.348 C 
BRANCH  30  31
HETATM   31  C           1     -23.828  -3.968 -11.201  0.00  0.00     0.210 C 
HETATM   32  O           1     -23.870  -5.162 -11.569  0.00  0.00    -0.646 OA
HETATM   33  O           1     -24.780  -3.200 -11.460  0.00  0.00    -0.646 OA
ENDBRANCH  30  31
BRANCH  30  34
HETATM   34  C           1     -21.464  -3.263 -11.407  0.00  0.00     0.158 C 
HETATM   35  C           1     -20.330  -4.205 -11.025  0.00  0.00     0.042 C 
BRANCH  34  36
HETATM   36  O           1     -21.887  -3.545 -12.714  0.00  0.00    -0.393 OA
HETATM   37  H           1     -21.412  -2.968 -13.286  0.00  0.00     0.210 HD
ENDBRANCH  34  36
ENDBRANCH  30  34
ENDBRANCH  28  30
ENDBRANCH  27  28
ENDBRANCH  26  27
ENDBRANCH  22  26
ENDBRANCH   2  22
TORSDOF 15
ENDMDL
MODEL 4
REMARK VINA RESULT:      -6.9      2.329      4.241
REMARK  15 active torsions:
REMARK  status: ('A' for Active; 'I' for Inactive)
REMARK       I    between atoms: C_1  and  N_2 
REMARK    1  A    between atoms: C_1  and  C_33 
REMARK    2  A    between atoms: N_2  and  C_6 
REMARK    3  A    between atoms: C_5  and  C_6 
REMARK    4  A    between atoms: C_6  and  C_7 
REMARK    5  A    between atoms: C_7  and  C_8 
REMARK    6  A    between atoms: C_8  and  N_9 
REMARK    7  A    between atoms: N_9  and  C_13 
REMARK    8  A    between atoms: C_12  and  C_13 
REMARK    9  A    between atoms: C_13  and  C_15 
REMARK   10  A    between atoms: O_14  and  C_15 
REMARK   11  A    between atoms: N_25  and  C_33 
REMARK       I    between atoms: N_26  and  C_28 
REMARK       I    between atoms: N_27  and  C_28 
REMARK   12  A    between atoms: N_29  and  C_30 
REMARK   13  A    between atoms: C_30  and  C_31 
REMARK   14  A    between atoms: C_31  and  C_32 
REMARK   15  A    between atoms: C_32  and  C_33 
ROOT
HETATM    1  C           1     -21.588  -6.632  -4.082  0.00  0.00     0.249 C 
HETATM    2  N           1     -21.071  -5.656  -4.891  0.00  0.00    -0.345 N 
HETATM    3  H           1     -20.532  -4.899  -4.491  0.00  0.00     0.163 HD
HETATM    4  O           1     -22.231  -7.535  -4.560  0.00  0.00    -0.271 OA
ENDROOT
BRANCH   1   5
HETATM    5  C           1     -21.352  -6.579  -2.592  0.00  0.00     0.274 C 
BRANCH   5   6
HETATM    6  N           1     -22.437  -5.773  -1.943  0.00  0.00    -0.067 N 
HETATM    7  H           1     -22.651  -6.170  -1.000  0.00  0.00     0.275 HD
HETATM    8  H           1     -22.119  -4.782  -1.839  0.00  0.00     0.275 HD
HETATM    9  H           1     -23.296  -5.803  -2.537  0.00  0.00     0.275 HD
ENDBRANCH   5   6
BRANCH   5  10
HETATM   10  C           1     -21.363  -7.993  -2.026  0.00  0.00     0.044 C 
BRANCH  10  11
HETATM   11  C           1     -19.948  -8.554  -2.031  0.00  0.00     0.023 C 
BRANCH  11  12
HETATM   12  C           1     -19.947  -9.929  -2.686  0.00  0.00     0.138 C 
BRANCH  12  13
HETATM   13  N           1     -19.953  -9.776  -4.149  0.00  0.00    -0.227 N 
HETATM   14  H           1     -19.149  -9.303  -4.630  0.00  0.00     0.177 HD
HETATM   15  C           1     -20.929 -10.212  -4.827  0.00  0.00     0.665 C 
HETATM   16  N           1     -21.925 -10.797  -4.230  0.00  0.00    -0.235 N 
HETATM   17  N           1     -20.934 -10.080  -6.086  0.00  0.00    -0.235 N 
HETATM   18  H           1     -22.730 -11.158  -4.790  0.00  0.00     0.174 HD
HETATM   19  H           1     -21.921 -10.906  -3.191  0.00  0.00     0.174 HD
HETATM   20  H           1     -20.130  -9.607  -6.568  0.00  0.00     0.174 HD
HETATM   21  H           1     -21.744 -10.443  -6.648  0.00  0.00     0.174 HD
ENDBRANCH  12  13
ENDBRANCH  11  12
ENDBRANCH  10  11
ENDBRANCH   5  10
ENDBRANCH   1   5
BRANCH   2  22
HETATM   22  C           1     -21.298  -5.706  -6.322  0.00  0.00     0.187 C 
BRANCH  22  23
HETATM   23  C           1     -20.118  -6.365  -6.994  0.00  0.00     0.196 C 
HETATM   24  O           1     -19.692  -5.923  -8.083  0.00  0.00    -0.646 OA
HETATM   25  O           1     -19.568  -7.354  -6.463  0.00  0.00    -0.646 OA
ENDBRANCH  22  23
BRANCH  22  26
HETATM   26  C           1     -21.464  -4.290  -6.860  0.00  0.00     0.066 C 
BRANCH  26  27
HETATM   27  C           1     -22.609  -4.258  -7.863  0.00  0.00     0.273 C 
BRANCH  27  28
HETATM   28  N           1     -22.092  -4.471  -9.188  0.00  0.00     0.101 N 
HETATM   29  H           1     -22.355  -5.402  -9.511  0.00  0.00     0.317 HD
BRANCH  28  30
HETATM   30  C           1     -22.680  -3.482 -10.051  0.00  0.00     0.348 C 
BRANCH  30  31
HETATM   31  C           1     -23.960  -4.024 -10.639  0.00  0.00     0.210 C 
HETATM   32  O           1     -24.927  -3.260 -10.844  0.00  0.00    -0.646 OA
HETATM   33  O           1     -24.052  -5.239 -10.920  0.00  0.00    -0.646 OA
ENDBRANCH  30  31
BRANCH  30  34
HETATM   34  C           1     -21.708  -3.146 -11.174  0.00  0.00     0.158 C 
HETATM   35  C           1     -20.484  -4.046 -11.071  0.00  0.00     0.042 C 
BRANCH  34  36
HETATM   36  O           1     -22.336  -3.349 -12.411  0.00  0.00    -0.393 OA
HETATM   37  H           1     -22.489  -2.498 -12.784  0.00  0.00     0.210 HD
ENDBRANCH  34  36
ENDBRANCH  30  34
ENDBRANCH  28  30
ENDBRANCH  27  28
ENDBRANCH  26  27
ENDBRANCH  22  26
ENDBRANCH   2  22
TORSDOF 15
ENDMDL
MODEL 5
REMARK VINA RESULT:      -6.7      4.626      9.681
REMARK  15 active torsions:
REMARK  status: ('A' for Active; 'I' for Inactive)
REMARK       I    between atoms: C_1  and  N_2 
REMARK    1  A    between atoms: C_1  and  C_33 
REMARK    2  A    between atoms: N_2  and  C_6 
REMARK    3  A    between atoms: C_5  and  C_6 
REMARK    4  A    between atoms: C_6  and  C_7 
REMARK    5  A    between atoms: C_7  and  C_8 
REMARK    6  A    between atoms: C_8  and  N_9 
REMARK    7  A    between atoms: N_9  and  C_13 
REMARK    8  A    between atoms: C_12  and  C_13 
REMARK    9  A    between atoms: C_13  and  C_15 
REMARK   10  A    between atoms: O_14  and  C_15 
REMARK   11  A    between atoms: N_25  and  C_33 
REMARK       I    between atoms: N_26  and  C_28 
REMARK       I    between atoms: N_27  and  C_28 
REMARK   12  A    between atoms: N_29  and  C_30 
REMARK   13  A    between atoms: C_30  and  C_31 
REMARK   14  A    between atoms: C_31  and  C_32 
REMARK   15  A    between atoms: C_32  and  C_33 
ROOT
HETATM    1  C           1     -21.101  -6.864  -5.066  0.00  0.00     0.249 C 
HETATM    2  N           1     -20.953  -6.626  -3.726  0.00  0.00    -0.345 N 
HETATM    3  H           1     -20.563  -5.748  -3.408  0.00  0.00     0.163 HD
HETATM    4  O           1     -21.566  -7.912  -5.445  0.00  0.00    -0.271 OA
ENDROOT
BRANCH   1   5
HETATM    5  C           1     -20.684  -5.817  -6.069  0.00  0.00     0.274 C 
BRANCH   5   6
HETATM    6  N           1     -19.935  -6.471  -7.192  0.00  0.00    -0.067 N 
HETATM    7  H           1     -18.911  -6.297  -7.077  0.00  0.00     0.275 HD
HETATM    8  H           1     -20.116  -7.500  -7.177  0.00  0.00     0.275 HD
HETATM    9  H           1     -20.256  -6.073  -8.103  0.00  0.00     0.275 HD
ENDBRANCH   5   6
BRANCH   5  10
HETATM   10  C           1     -21.921  -5.121  -6.622  0.00  0.00     0.044 C 
BRANCH  10  11
HETATM   11  C           1     -21.503  -3.876  -7.391  0.00  0.00     0.023 C 
BRANCH  11  12
HETATM   12  C           1     -22.071  -3.935  -8.803  0.00  0.00     0.138 C 
BRANCH  12  13
HETATM   13  N           1     -23.482  -3.522  -8.781  0.00  0.00    -0.227 N 
HETATM   14  H           1     -23.829  -2.877  -8.029  0.00  0.00     0.177 HD
HETATM   15  C           1     -24.279  -3.945  -9.669  0.00  0.00     0.665 C 
HETATM   16  N           1     -23.849  -4.744 -10.600  0.00  0.00    -0.235 N 
HETATM   17  N           1     -25.494  -3.591  -9.651  0.00  0.00    -0.235 N 
HETATM   18  H           1     -24.506  -5.094 -11.334  0.00  0.00     0.174 HD
HETATM   19  H           1     -22.846  -5.037 -10.616  0.00  0.00     0.174 HD
HETATM   20  H           1     -25.841  -2.946  -8.898  0.00  0.00     0.174 HD
HETATM   21  H           1     -26.155  -3.942 -10.388  0.00  0.00     0.174 HD
ENDBRANCH  12  13
ENDBRANCH  11  12
ENDBRANCH  10  11
ENDBRANCH   5  10
ENDBRANCH   1   5
BRANCH   2  22
HETATM   22  C           1     -21.353  -7.632  -2.762  0.00  0.00     0.187 C 
BRANCH  22  23
HETATM   23  C           1     -22.040  -6.964  -1.596  0.00  0.00     0.196 C 
HETATM   24  O           1     -22.505  -5.810  -1.723  0.00  0.00    -0.646 OA
HETATM   25  O           1     -22.143  -7.562  -0.504  0.00  0.00    -0.646 OA
ENDBRANCH  22  23
BRANCH  22  26
HETATM   26  C           1     -20.121  -8.379  -2.266  0.00  0.00     0.066 C 
BRANCH  26  27
HETATM   27  C           1     -20.235  -9.851  -2.640  0.00  0.00     0.273 C 
BRANCH  27  28
HETATM   28  N           1     -18.921 -10.391  -2.864  0.00  0.00     0.101 N 
HETATM   29  H           1     -19.000 -11.300  -3.321  0.00  0.00     0.317 HD
BRANCH  28  30
HETATM   30  C           1     -18.215  -9.482  -3.728  0.00  0.00     0.348 C 
BRANCH  30  31
HETATM   31  C           1     -18.395  -9.910  -5.163  0.00  0.00     0.210 C 
HETATM   32  O           1     -18.482  -9.050  -6.066  0.00  0.00    -0.646 OA
HETATM   33  O           1     -18.457 -11.125  -5.450  0.00  0.00    -0.646 OA
ENDBRANCH  30  31
BRANCH  30  34
HETATM   34  C           1     -16.734  -9.495  -3.376  0.00  0.00     0.158 C 
HETATM   35  C           1     -16.462 -10.602  -2.366  0.00  0.00     0.042 C 
BRANCH  34  36
HETATM   36  O           1     -15.981  -9.725  -4.536  0.00  0.00    -0.393 OA
HETATM   37  H           1     -16.586  -9.994  -5.206  0.00  0.00     0.210 HD
ENDBRANCH  34  36
ENDBRANCH  30  34
ENDBRANCH  28  30
ENDBRANCH  27  28
ENDBRANCH  26  27
ENDBRANCH  22  26
ENDBRANCH   2  22
TORSDOF 15
ENDMDL
MODEL 6
REMARK VINA RESULT:      -6.6      4.535      9.170
REMARK  15 active torsions:
REMARK  status: ('A' for Active; 'I' for Inactive)
REMARK       I    between atoms: C_1  and  N_2 
REMARK    1  A    between atoms: C_1  and  C_33 
REMARK    2  A    between atoms: N_2  and  C_6 
REMARK    3  A    between atoms: C_5  and  C_6 
REMARK    4  A    between atoms: C_6  and  C_7 
REMARK    5  A    between atoms: C_7  and  C_8 
REMARK    6  A    between atoms: C_8  and  N_9 
REMARK    7  A    between atoms: N_9  and  C_13 
REMARK    8  A    between atoms: C_12  and  C_13 
REMARK    9  A    between atoms: C_13  and  C_15 
REMARK   10  A    between atoms: O_14  and  C_15 
REMARK   11  A    between atoms: N_25  and  C_33 
REMARK       I    between atoms: N_26  and  C_28 
REMARK       I    between atoms: N_27  and  C_28 
REMARK   12  A    between atoms: N_29  and  C_30 
REMARK   13  A    between atoms: C_30  and  C_31 
REMARK   14  A    between atoms: C_31  and  C_32 
REMARK   15  A    between atoms: C_32  and  C_33 
ROOT
HETATM    1  C           1     -21.152  -6.794  -5.121  0.00  0.00     0.249 C 
HETATM    2  N           1     -20.835  -6.724  -3.791  0.00  0.00    -0.345 N 
HETATM    3  H           1     -20.349  -5.915  -3.428  0.00  0.00     0.163 HD
HETATM    4  O           1     -21.732  -7.761  -5.554  0.00  0.00    -0.271 OA
ENDROOT
BRANCH   1   5
HETATM    5  C           1     -20.775  -5.662  -6.046  0.00  0.00     0.274 C 
BRANCH   5   6
HETATM    6  N           1     -19.891  -6.183  -7.139  0.00  0.00    -0.067 N 
HETATM    7  H           1     -19.636  -7.177  -6.938  0.00  0.00     0.275 HD
HETATM    8  H           1     -20.398  -6.133  -8.051  0.00  0.00     0.275 HD
HETATM    9  H           1     -19.022  -5.604  -7.190  0.00  0.00     0.275 HD
ENDBRANCH   5   6
BRANCH   5  10
HETATM   10  C           1     -22.037  -5.065  -6.656  0.00  0.00     0.044 C 
BRANCH  10  11
HETATM   11  C           1     -21.687  -3.772  -7.382  0.00  0.00     0.023 C 
BRANCH  11  12
HETATM   12  C           1     -22.315  -3.781  -8.769  0.00  0.00     0.138 C 
BRANCH  12  13
HETATM   13  N           1     -23.774  -3.641  -8.649  0.00  0.00    -0.227 N 
HETATM   14  H           1     -24.213  -3.524  -7.702  0.00  0.00     0.177 HD
HETATM   15  C           1     -24.500  -3.663  -9.686  0.00  0.00     0.665 C 
HETATM   16  N           1     -23.955  -3.808 -10.857  0.00  0.00    -0.235 N 
HETATM   17  N           1     -25.756  -3.543  -9.582  0.00  0.00    -0.235 N 
HETATM   18  H           1     -24.553  -3.826 -11.713  0.00  0.00     0.174 HD
HETATM   19  H           1     -22.918  -3.908 -10.943  0.00  0.00     0.174 HD
HETATM   20  H           1     -26.195  -3.426  -8.636  0.00  0.00     0.174 HD
HETATM   21  H           1     -26.357  -3.560 -10.443  0.00  0.00     0.174 HD
ENDBRANCH  12  13
ENDBRANCH  11  12
ENDBRANCH  10  11
ENDBRANCH   5  10
ENDBRANCH   1   5
BRANCH   2  22
HETATM   22  C           1     -21.195  -7.812  -2.902  0.00  0.00     0.187 C 
BRANCH  22  23
HETATM   23  C           1     -21.819  -7.249  -1.648  0.00  0.00     0.196 C 
HETATM   24  O           1     -21.579  -7.777  -0.541  0.00  0.00    -0.646 OA
HETATM   25  O           1     -22.575  -6.256  -1.717  0.00  0.00    -0.646 OA
ENDBRANCH  22  23
BRANCH  22  26
HETATM   26  C           1     -19.947  -8.604  -2.538  0.00  0.00     0.066 C 
BRANCH  26  27
HETATM   27  C           1     -20.140 -10.064  -2.926  0.00  0.00     0.273 C 
BRANCH  27  28
HETATM   28  N           1     -20.399 -10.155  -4.338  0.00  0.00     0.101 N 
HETATM   29  H           1     -20.447  -9.217  -4.736  0.00  0.00     0.317 HD
BRANCH  28  30
HETATM   30  C           1     -19.307 -10.873  -4.938  0.00  0.00     0.348 C 
BRANCH  30  31
HETATM   31  C           1     -18.300  -9.891  -5.485  0.00  0.00     0.210 C 
HETATM   32  O           1     -18.687  -8.878  -6.104  0.00  0.00    -0.646 OA
HETATM   33  O           1     -17.077 -10.092  -5.318  0.00  0.00    -0.646 OA
ENDBRANCH  30  31
BRANCH  30  34
HETATM   34  C           1     -19.833 -11.744  -6.070  0.00  0.00     0.158 C 
HETATM   35  C           1     -21.315 -11.462  -6.280  0.00  0.00     0.042 C 
BRANCH  34  36
HETATM   36  O           1     -19.130 -11.455  -7.248  0.00  0.00    -0.393 OA
HETATM   37  H           1     -18.628 -10.675  -7.082  0.00  0.00     0.210 HD
ENDBRANCH  34  36
ENDBRANCH  30  34
ENDBRANCH  28  30
ENDBRANCH  27  28
ENDBRANCH  26  27
ENDBRANCH  22  26
ENDBRANCH   2  22
TORSDOF 15
ENDMDL
MODEL 7
REMARK VINA RESULT:      -6.6      4.268     10.371
REMARK  15 active torsions:
REMARK  status: ('A' for Active; 'I' for Inactive)
REMARK       I    between atoms: C_1  and  N_2 
REMARK    1  A    between atoms: C_1  and  C_33 
REMARK    2  A    between atoms: N_2  and  C_6 
REMARK    3  A    between atoms: C_5  and  C_6 
REMARK    4  A    between atoms: C_6  and  C_7 
REMARK    5  A    between atoms: C_7  and  C_8 
REMARK    6  A    between atoms: C_8  and  N_9 
REMARK    7  A    between atoms: N_9  and  C_13 
REMARK    8  A    between atoms: C_12  and  C_13 
REMARK    9  A    between atoms: C_13  and  C_15 
REMARK   10  A    between atoms: O_14  and  C_15 
REMARK   11  A    between atoms: N_25  and  C_33 
REMARK       I    between atoms: N_26  and  C_28 
REMARK       I    between atoms: N_27  and  C_28 
REMARK   12  A    between atoms: N_29  and  C_30 
REMARK   13  A    between atoms: C_30  and  C_31 
REMARK   14  A    between atoms: C_31  and  C_32 
REMARK   15  A    between atoms: C_32  and  C_33 
ROOT
HETATM    1  C           1     -20.979  -6.331  -5.982  0.00  0.00     0.249 C 
HETATM    2  N           1     -20.759  -7.681  -5.938  0.00  0.00    -0.345 N 
HETATM    3  H           1     -20.887  -8.243  -6.770  0.00  0.00     0.163 HD
HETATM    4  O           1     -20.826  -5.661  -4.989  0.00  0.00    -0.271 OA
ENDROOT
BRANCH   1   5
HETATM    5  C           1     -21.414  -5.679  -7.272  0.00  0.00     0.274 C 
BRANCH   5   6
HETATM    6  N           1     -22.266  -4.484  -6.965  0.00  0.00    -0.067 N 
HETATM    7  H           1     -22.419  -4.419  -5.933  0.00  0.00     0.275 HD
HETATM    8  H           1     -21.784  -3.619  -7.300  0.00  0.00     0.275 HD
HETATM    9  H           1     -23.187  -4.579  -7.448  0.00  0.00     0.275 HD
ENDBRANCH   5   6
BRANCH   5  10
HETATM   10  C           1     -20.186  -5.239  -8.058  0.00  0.00     0.044 C 
BRANCH  10  11
HETATM   11  C           1     -20.529  -4.012  -8.891  0.00  0.00     0.023 C 
BRANCH  11  12
HETATM   12  C           1     -21.169  -4.449 -10.202  0.00  0.00     0.138 C 
BRANCH  12  13
HETATM   13  N           1     -22.185  -3.465 -10.604  0.00  0.00    -0.227 N 
HETATM   14  H           1     -22.805  -3.025  -9.880  0.00  0.00     0.177 HD
HETATM   15  C           1     -22.314  -3.150 -11.824  0.00  0.00     0.665 C 
HETATM   16  N           1     -21.547  -3.696 -12.720  0.00  0.00    -0.235 N 
HETATM   17  N           1     -23.189  -2.303 -12.170  0.00  0.00    -0.235 N 
HETATM   18  H           1     -21.652  -3.435 -13.726  0.00  0.00     0.174 HD
HETATM   19  H           1     -20.824  -4.395 -12.434  0.00  0.00     0.174 HD
HETATM   20  H           1     -23.809  -1.863 -11.446  0.00  0.00     0.174 HD
HETATM   21  H           1     -23.295  -2.042 -13.182  0.00  0.00     0.174 HD
ENDBRANCH  12  13
ENDBRANCH  11  12
ENDBRANCH  10  11
ENDBRANCH   5  10
ENDBRANCH   1   5
BRANCH   2  22
HETATM   22  C           1     -20.341  -8.308  -4.699  0.00  0.00     0.187 C 
BRANCH  22  23
HETATM   23  C           1     -19.219  -9.277  -4.980  0.00  0.00     0.196 C 
HETATM   24  O           1     -19.349 -10.140  -5.875  0.00  0.00    -0.646 OA
HETATM   25  O           1     -18.161  -9.218  -4.319  0.00  0.00    -0.646 OA
ENDBRANCH  22  23
BRANCH  22  26
HETATM   26  C           1     -21.519  -9.056  -4.087  0.00  0.00     0.066 C 
BRANCH  26  27
HETATM   27  C           1     -21.115  -9.616  -2.730  0.00  0.00     0.273 C 
BRANCH  27  28
HETATM   28  N           1     -22.087  -9.229  -1.742  0.00  0.00     0.101 N 
HETATM   29  H           1     -22.497 -10.063  -1.323  0.00  0.00     0.317 HD
BRANCH  28  30
HETATM   30  C           1     -21.402  -8.472  -0.729  0.00  0.00     0.348 C 
BRANCH  30  31
HETATM   31  C           1     -21.298  -9.296   0.530  0.00  0.00     0.210 C 
HETATM   32  O           1     -21.516 -10.526   0.493  0.00  0.00    -0.646 OA
HETATM   33  O           1     -20.994  -8.748   1.613  0.00  0.00    -0.646 OA
ENDBRANCH  30  31
BRANCH  30  34
HETATM   34  C           1     -22.179  -7.195  -0.438  0.00  0.00     0.158 C 
HETATM   35  C           1     -22.303  -6.375  -1.715  0.00  0.00     0.042 C 
BRANCH  34  36
HETATM   36  O           1     -23.458  -7.525   0.033  0.00  0.00    -0.393 OA
HETATM   37  H           1     -23.928  -6.715   0.139  0.00  0.00     0.210 HD
ENDBRANCH  34  36
ENDBRANCH  30  34
ENDBRANCH  28  30
ENDBRANCH  27  28
ENDBRANCH  26  27
ENDBRANCH  22  26
ENDBRANCH   2  22
TORSDOF 15
ENDMDL
MODEL 8
REMARK VINA RESULT:      -6.5      4.163      9.409
REMARK  15 active torsions:
REMARK  status: ('A' for Active; 'I' for Inactive)
REMARK       I    between atoms: C_1  and  N_2 
REMARK    1  A    between atoms: C_1  and  C_33 
REMARK    2  A    between atoms: N_2  and  C_6 
REMARK    3  A    between atoms: C_5  and  C_6 
REMARK    4  A    between atoms: C_6  and  C_7 
REMARK    5  A    between atoms: C_7  and  C_8 
REMARK    6  A    between atoms: C_8  and  N_9 
REMARK    7  A    between atoms: N_9  and  C_13 
REMARK    8  A    between atoms: C_12  and  C_13 
REMARK    9  A    between atoms: C_13  and  C_15 
REMARK   10  A    between atoms: O_14  and  C_15 
REMARK   11  A    between atoms: N_25  and  C_33 
REMARK       I    between atoms: N_26  and  C_28 
REMARK       I    between atoms: N_27  and  C_28 
REMARK   12  A    between atoms: N_29  and  C_30 
REMARK   13  A    between atoms: C_30  and  C_31 
REMARK   14  A    between atoms: C_31  and  C_32 
REMARK   15  A    between atoms: C_32  and  C_33 
ROOT
HETATM    1  C           1     -21.466  -5.426  -5.710  0.00  0.00     0.249 C 
HETATM    2  N           1     -20.786  -6.256  -4.861  0.00  0.00    -0.345 N 
HETATM    3  H           1     -19.782  -6.168  -4.762  0.00  0.00     0.163 HD
HETATM    4  O           1     -22.663  -5.532  -5.829  0.00  0.00    -0.271 OA
ENDROOT
BRANCH   1   5
HETATM    5  C           1     -20.719  -4.377  -6.499  0.00  0.00     0.274 C 
BRANCH   5   6
HETATM    6  N           1     -19.637  -5.034  -7.302  0.00  0.00    -0.067 N 
HETATM    7  H           1     -19.271  -4.359  -8.012  0.00  0.00     0.275 HD
HETATM    8  H           1     -18.859  -5.324  -6.667  0.00  0.00     0.275 HD
HETATM    9  H           1     -20.023  -5.874  -7.787  0.00  0.00     0.275 HD
ENDBRANCH   5   6
BRANCH   5  10
HETATM   10  C           1     -21.685  -3.664  -7.437  0.00  0.00     0.044 C 
BRANCH  10  11
HETATM   11  C           1     -21.436  -4.123  -8.867  0.00  0.00     0.023 C 
BRANCH  11  12
HETATM   12  C           1     -22.605  -3.701  -9.747  0.00  0.00     0.138 C 
BRANCH  12  13
HETATM   13  N           1     -22.098  -3.234 -11.046  0.00  0.00    -0.227 N 
HETATM   14  H           1     -21.422  -2.432 -11.087  0.00  0.00     0.177 HD
HETATM   15  C           1     -22.478  -3.797 -12.114  0.00  0.00     0.665 C 
HETATM   16  N           1     -23.316  -4.789 -12.062  0.00  0.00    -0.235 N 
HETATM   17  N           1     -22.042  -3.394 -13.232  0.00  0.00    -0.235 N 
HETATM   18  H           1     -23.629  -5.255 -12.944  0.00  0.00     0.174 HD
HETATM   19  H           1     -23.676  -5.122 -11.139  0.00  0.00     0.174 HD
HETATM   20  H           1     -21.366  -2.592 -13.274  0.00  0.00     0.174 HD
HETATM   21  H           1     -22.357  -3.862 -14.118  0.00  0.00     0.174 HD
ENDBRANCH  12  13
ENDBRANCH  11  12
ENDBRANCH  10  11
ENDBRANCH   5  10
ENDBRANCH   1   5
BRANCH   2  22
HETATM   22  C           1     -21.502  -7.263  -4.104  0.00  0.00     0.187 C 
BRANCH  22  23
HETATM   23  C           1     -21.607  -6.828  -2.662  0.00  0.00     0.196 C 
HETATM   24  O           1     -20.883  -7.362  -1.794  0.00  0.00    -0.646 OA
HETATM   25  O           1     -22.417  -5.934  -2.337  0.00  0.00    -0.646 OA
ENDBRANCH  22  23
BRANCH  22  26
HETATM   26  C           1     -20.751  -8.586  -4.182  0.00  0.00     0.066 C 
BRANCH  26  27
HETATM   27  C           1     -19.519  -8.421  -5.061  0.00  0.00     0.273 C 
BRANCH  27  28
HETATM   28  N           1     -18.506  -9.355  -4.649  0.00  0.00     0.101 N 
HETATM   29  H           1     -18.941 -10.126  -4.142  0.00  0.00     0.317 HD
BRANCH  28  30
HETATM   30  C           1     -17.870  -9.862  -5.835  0.00  0.00     0.348 C 
BRANCH  30  31
HETATM   31  C           1     -18.494 -11.181  -6.216  0.00  0.00     0.210 C 
HETATM   32  O           1     -18.786 -12.014  -5.331  0.00  0.00    -0.646 OA
HETATM   33  O           1     -18.719 -11.442  -7.418  0.00  0.00    -0.646 OA
ENDBRANCH  30  31
BRANCH  30  34
HETATM   34  C           1     -16.384 -10.061  -5.568  0.00  0.00     0.158 C 
HETATM   35  C           1     -16.106  -9.873  -4.082  0.00  0.00     0.042 C 
BRANCH  34  36
HETATM   36  O           1     -16.010 -11.356  -5.954  0.00  0.00    -0.393 OA
HETATM   37  H           1     -16.152 -11.416  -6.883  0.00  0.00     0.210 HD
ENDBRANCH  34  36
ENDBRANCH  30  34
ENDBRANCH  28  30
ENDBRANCH  27  28
ENDBRANCH  26  27
ENDBRANCH  22  26
ENDBRANCH   2  22
TORSDOF 15
ENDMDL
MODEL 9
REMARK VINA RESULT:      -6.3      4.475     10.728
REMARK  15 active torsions:
REMARK  status: ('A' for Active; 'I' for Inactive)
REMARK       I    between atoms: C_1  and  N_2 
REMARK    1  A    between atoms: C_1  and  C_33 
REMARK    2  A    between atoms: N_2  and  C_6 
REMARK    3  A    between atoms: C_5  and  C_6 
REMARK    4  A    between atoms: C_6  and  C_7 
REMARK    5  A    between atoms: C_7  and  C_8 
REMARK    6  A    between atoms: C_8  and  N_9 
REMARK    7  A    between atoms: N_9  and  C_13 
REMARK    8  A    between atoms: C_12  and  C_13 
REMARK    9  A    between atoms: C_13  and  C_15 
REMARK   10  A    between atoms: O_14  and  C_15 
REMARK   11  A    between atoms: N_25  and  C_33 
REMARK       I    between atoms: N_26  and  C_28 
REMARK       I    between atoms: N_27  and  C_28 
REMARK   12  A    between atoms: N_29  and  C_30 
REMARK   13  A    between atoms: C_30  and  C_31 
REMARK   14  A    between atoms: C_31  and  C_32 
REMARK   15  A    between atoms: C_32  and  C_33 
ROOT
HETATM    1  C           1     -21.849  -5.911  -5.697  0.00  0.00     0.249 C 
HETATM    2  N           1     -21.077  -6.740  -4.928  0.00  0.00    -0.345 N 
HETATM    3  H           1     -20.079  -6.794  -5.087  0.00  0.00     0.163 HD
HETATM    4  O           1     -23.040  -5.846  -5.507  0.00  0.00    -0.271 OA
ENDROOT
BRANCH   1   5
HETATM    5  C           1     -21.211  -5.077  -6.781  0.00  0.00     0.274 C 
BRANCH   5   6
HETATM    6  N           1     -20.259  -5.926  -7.569  0.00  0.00    -0.067 N 
HETATM    7  H           1     -19.319  -5.471  -7.589  0.00  0.00     0.275 HD
HETATM    8  H           1     -20.180  -6.867  -7.121  0.00  0.00     0.275 HD
HETATM    9  H           1     -20.614  -6.034  -8.546  0.00  0.00     0.275 HD
ENDBRANCH   5   6
BRANCH   5  10
HETATM   10  C           1     -22.292  -4.535  -7.707  0.00  0.00     0.044 C 
BRANCH  10  11
HETATM   11  C           1     -21.642  -3.872  -8.914  0.00  0.00     0.023 C 
BRANCH  11  12
HETATM   12  C           1     -22.235  -4.449 -10.192  0.00  0.00     0.138 C 
BRANCH  12  13
HETATM   13  N           1     -23.020  -3.413 -10.880  0.00  0.00    -0.227 N 
HETATM   14  H           1     -23.787  -2.910 -10.370  0.00  0.00     0.177 HD
HETATM   15  C           1     -22.771  -3.127 -12.089  0.00  0.00     0.665 C 
HETATM   16  N           1     -21.821  -3.751 -12.720  0.00  0.00    -0.235 N 
HETATM   17  N           1     -23.447  -2.236 -12.681  0.00  0.00    -0.235 N 
HETATM   18  H           1     -21.614  -3.515 -13.717  0.00  0.00     0.174 HD
HETATM   19  H           1     -21.263  -4.487 -12.231  0.00  0.00     0.174 HD
HETATM   20  H           1     -24.214  -1.734 -12.171  0.00  0.00     0.174 HD
HETATM   21  H           1     -23.239  -2.000 -13.683  0.00  0.00     0.174 HD
ENDBRANCH  12  13
ENDBRANCH  11  12
ENDBRANCH  10  11
ENDBRANCH   5  10
ENDBRANCH   1   5
BRANCH   2  22
HETATM   22  C           1     -21.689  -7.541  -3.887  0.00  0.00     0.187 C 
BRANCH  22  23
HETATM   23  C           1     -21.560  -6.827  -2.563  0.00  0.00     0.196 C 
HETATM   24  O           1     -20.605  -7.093  -1.801  0.00  0.00    -0.646 OA
HETATM   25  O           1     -22.408  -5.972  -2.228  0.00  0.00    -0.646 OA
ENDBRANCH  22  23
BRANCH  22  26
HETATM   26  C           1     -20.989  -8.891  -3.807  0.00  0.00     0.066 C 
BRANCH  26  27
HETATM   27  C           1     -21.912  -9.905  -3.145  0.00  0.00     0.273 C 
BRANCH  27  28
HETATM   28  N           1     -21.462 -10.159  -1.802  0.00  0.00     0.101 N 
HETATM   29  H           1     -20.827  -9.416  -1.511  0.00  0.00     0.317 HD
BRANCH  28  30
HETATM   30  C           1     -22.619 -10.161  -0.947  0.00  0.00     0.348 C 
BRANCH  30  31
HETATM   31  C           1     -22.431  -9.150   0.157  0.00  0.00     0.210 C 
HETATM   32  O           1     -21.352  -9.105   0.786  0.00  0.00    -0.646 OA
HETATM   33  O           1     -23.354  -8.357   0.442  0.00  0.00    -0.646 OA
ENDBRANCH  30  31
BRANCH  30  34
HETATM   34  C           1     -22.799 -11.546  -0.342  0.00  0.00     0.158 C 
HETATM   35  C           1     -24.114 -12.144  -0.825  0.00  0.00     0.042 C 
BRANCH  34  36
HETATM   36  O           1     -21.736 -12.371  -0.739  0.00  0.00    -0.393 OA
HETATM   37  H           1     -22.047 -13.259  -0.691  0.00  0.00     0.210 HD
ENDBRANCH  34  36
ENDBRANCH  30  34
ENDBRANCH  28  30
ENDBRANCH  27  28
ENDBRANCH  26  27
ENDBRANCH  22  26
ENDBRANCH   2  22
TORSDOF 15
ENDMDL
