MODEL 1
REMARK VINA RESULT:      -7.9      0.000      0.000
REMARK  11 active torsions:
REMARK  status: ('A' for Active; 'I' for Inactive)
REMARK    1  A    between atoms: C_2  and  C_4 
REMARK    2  A    between atoms: C_4  and  C_5 
REMARK    3  A    between atoms: C_5  and  C_6 
REMARK    4  A    between atoms: C_5  and  N_9 
REMARK       I    between atoms: N_9  and  C_10 
REMARK    5  A    between atoms: C_10  and  C_11 
REMARK    6  A    between atoms: C_11  and  C_12 
REMARK    7  A    between atoms: C_11  and  N_24 
REMARK    8  A    between atoms: C_12  and  C_13 
REMARK    9  A    between atoms: C_16  and  O_17 
REMARK   10  A    between atoms: O_17  and  P_18 
REMARK   11  A    between atoms: P_18  and  O_19 
ROOT
HETATM    1  C           1     -21.094  -4.993  -6.225  0.00  0.00     0.278 C 
ENDROOT
BRANCH   1   2
HETATM    2  C           1     -21.697  -6.007  -5.285  0.00  0.00     0.249 C 
HETATM    3  N           1     -20.885  -6.796  -4.517  0.00  0.00    -0.344 N 
HETATM    4  H           1     -19.879  -6.699  -4.579  0.00  0.00     0.163 HD
HETATM    5  O           1     -22.897  -6.123  -5.211  0.00  0.00    -0.271 OA
BRANCH   3   6
HETATM    6  C           1     -21.464  -7.771  -3.613  0.00  0.00     0.195 C 
BRANCH   6   7
HETATM    7  C           1     -20.697  -9.082  -3.720  0.00  0.00     0.149 C 
BRANCH   7   8
HETATM    8  C           1     -20.294  -9.314  -5.156  0.00  0.00     0.175 C 
HETATM    9  O           1     -19.108  -9.135  -5.509  0.00  0.00    -0.648 OA
HETATM   10  O           1     -21.146  -9.685  -5.992  0.00  0.00    -0.648 OA
ENDBRANCH   7   8
ENDBRANCH   6   7
BRANCH   6  11
HETATM   11  C           1     -21.382  -7.255  -2.197  0.00  0.00     0.197 C 
HETATM   12  O           1     -20.547  -7.742  -1.403  0.00  0.00    -0.646 OA
HETATM   13  O           1     -22.146  -6.341  -1.819  0.00  0.00    -0.646 OA
ENDBRANCH   6  11
ENDBRANCH   3   6
ENDBRANCH   1   2
BRANCH   1  14
HETATM   14  C           1     -20.744  -5.668  -7.545  0.00  0.00     0.081 C 
BRANCH  14  15
HETATM   15  C           1     -21.275  -4.849  -8.681  0.00  0.00    -0.056 A 
HETATM   16  C           1     -20.447  -4.525  -9.755  0.00  0.00     0.010 A 
HETATM   17  C           1     -20.942  -3.762 -10.812  0.00  0.00     0.038 A 
HETATM   18  C           1     -22.265  -3.323 -10.796  0.00  0.00     0.081 A 
HETATM   19  C           1     -23.095  -3.647  -9.721  0.00  0.00     0.038 A 
HETATM   20  C           1     -22.599  -4.410  -8.664  0.00  0.00     0.010 A 
BRANCH  18  21
HETATM   21  O           1     -22.746  -2.582 -11.823  0.00  0.00    -0.247 OA
BRANCH  21  22
HETATM   22  P           1     -23.860  -3.248 -12.784  0.00  0.00     0.411 P 
HETATM   23  O           1     -25.210  -2.920 -12.274  0.00  0.00    -0.624 OA
HETATM   24  O           1     -23.708  -2.720 -14.158  0.00  0.00    -0.624 OA
BRANCH  22  25
HETATM   25  O           1     -23.667  -4.852 -12.800  0.00  0.00    -0.300 OA
HETATM   26  H           1     -23.545  -5.093 -11.898  0.00  0.00     0.223 HD
ENDBRANCH  22  25
ENDBRANCH  21  22
ENDBRANCH  18  21
ENDBRANCH  14  15
ENDBRANCH   1  14
BRANCH   1  27
HETATM   27  N           1     -19.851  -4.420  -5.612  0.00  0.00    -0.066 N 
HETATM   28  H           1     -20.041  -4.155  -4.620  0.00  0.00     0.275 HD
HETATM   29  H           1     -19.087  -5.133  -5.642  0.00  0.00     0.275 HD
HETATM   30  H           1     -19.557  -3.573  -6.149  0.00  0.00     0.275 HD
ENDBRANCH   1  27
TORSDOF 11
ENDMDL
MODEL 2
REMARK VINA RESULT:      -7.6      1.313      2.837
REMARK  11 active torsions:
REMARK  status: ('A' for Active; 'I' for Inactive)
REMARK    1  A    between atoms: C_2  and  C_4 
REMARK    2  A    between atoms: C_4  and  C_5 
REMARK    3  A    between atoms: C_5  and  C_6 
REMARK    4  A    between atoms: C_5  and  N_9 
REMARK       I    between atoms: N_9  and  C_10 
REMARK    5  A    between atoms: C_10  and  C_11 
REMARK    6  A    between atoms: C_11  and  C_12 
REMARK    7  A    between atoms: C_11  and  N_24 
REMARK    8  A    between atoms: C_12  and  C_13 
REMARK    9  A    between atoms: C_16  and  O_17 
REMARK   10  A    between atoms: O_17  and  P_18 
REMARK   11  A    between atoms: P_18  and  O_19 
ROOT
HETATM    1  C           1     -21.831  -4.771  -6.928  0.00  0.00     0.278 C 
ENDROOT
BRANCH   1   2
HETATM    2  C           1     -21.072  -5.396  -5.784  0.00  0.00     0.249 C 
HETATM    3  N           1     -21.335  -6.687  -5.413  0.00  0.00    -0.344 N 
HETATM    4  H           1     -22.039  -7.222  -5.905  0.00  0.00     0.163 HD
HETATM    5  O           1     -20.232  -4.758  -5.195  0.00  0.00    -0.271 OA
BRANCH   3   6
HETATM    6  C           1     -20.606  -7.289  -4.313  0.00  0.00     0.195 C 
BRANCH   6   7
HETATM    7  C           1     -21.589  -7.935  -3.345  0.00  0.00     0.149 C 
BRANCH   7   8
HETATM    8  C           1     -21.893  -6.976  -2.221  0.00  0.00     0.175 C 
HETATM    9  O           1     -22.323  -5.830  -2.476  0.00  0.00    -0.648 OA
HETATM   10  O           1     -21.716  -7.326  -1.034  0.00  0.00    -0.648 OA
ENDBRANCH   7   8
ENDBRANCH   6   7
BRANCH   6  11
HETATM   11  C           1     -19.665  -8.339  -4.849  0.00  0.00     0.197 C 
HETATM   12  O           1     -19.319  -8.313  -6.050  0.00  0.00    -0.646 OA
HETATM   13  O           1     -19.230  -9.234  -4.092  0.00  0.00    -0.646 OA
ENDBRANCH   6  11
ENDBRANCH   3   6
ENDBRANCH   1   2
BRANCH   1  14
HETATM   14  C           1     -21.344  -5.360  -8.245  0.00  0.00     0.081 C 
BRANCH  14  15
HETATM   15  C           1     -21.775  -4.480  -9.376  0.00  0.00    -0.056 A 
HETATM   16  C           1     -23.122  -4.154  -9.533  0.00  0.00     0.010 A 
HETATM   17  C           1     -23.523  -3.335 -10.587  0.00  0.00     0.038 A 
HETATM   18  C           1     -22.578  -2.840 -11.485  0.00  0.00     0.081 A 
HETATM   19  C           1     -21.230  -3.165 -11.329  0.00  0.00     0.038 A 
HETATM   20  C           1     -20.829  -3.986 -10.274  0.00  0.00     0.010 A 
BRANCH  18  21
HETATM   21  O           1     -22.968  -2.044 -12.510  0.00  0.00    -0.247 OA
BRANCH  21  22
HETATM   22  P           1     -23.432  -2.752 -13.885  0.00  0.00     0.411 P 
HETATM   23  O           1     -24.269  -3.931 -13.574  0.00  0.00    -0.624 OA
HETATM   24  O           1     -24.213  -1.791 -14.697  0.00  0.00    -0.624 OA
BRANCH  22  25
HETATM   25  O           1     -22.128  -3.221 -14.716  0.00  0.00    -0.300 OA
HETATM   26  H           1     -22.402  -3.228 -15.617  0.00  0.00     0.223 HD
ENDBRANCH  22  25
ENDBRANCH  21  22
ENDBRANCH  18  21
ENDBRANCH  14  15
ENDBRANCH   1  14
BRANCH   1  27
HETATM   27  N           1     -21.601  -3.288  -6.929  0.00  0.00    -0.066 N 
HETATM   28  H           1     -20.658  -3.082  -7.330  0.00  0.00     0.275 HD
HETATM   29  H           1     -22.335  -2.822  -7.508  0.00  0.00     0.275 HD
HETATM   30  H           1     -21.649  -2.928  -5.950  0.00  0.00     0.275 HD
ENDBRANCH   1  27
TORSDOF 11
ENDMDL
MODEL 3
REMARK VINA RESULT:      -7.2      3.573      8.937
REMARK  11 active torsions:
REMARK  status: ('A' for Active; 'I' for Inactive)
REMARK    1  A    between atoms: C_2  and  C_4 
REMARK    2  A    between atoms: C_4  and  C_5 
REMARK    3  A    between atoms: C_5  and  C_6 
REMARK    4  A    between atoms: C_5  and  N_9 
REMARK       I    between atoms: N_9  and  C_10 
REMARK    5  A    between atoms: C_10  and  C_11 
REMARK    6  A    between atoms: C_11  and  C_12 
REMARK    7  A    between atoms: C_11  and  N_24 
REMARK    8  A    between atoms: C_12  and  C_13 
REMARK    9  A    between atoms: C_16  and  O_17 
REMARK   10  A    between atoms: O_17  and  P_18 
REMARK   11  A    between atoms: P_18  and  O_19 
ROOT
HETATM    1  C           1     -22.488  -4.993  -6.383  0.00  0.00     0.278 C 
ENDROOT
BRANCH   1   2
HETATM    2  C           1     -22.351  -4.251  -7.690  0.00  0.00     0.249 C 
HETATM    3  N           1     -23.353  -4.313  -8.620  0.00  0.00    -0.344 N 
HETATM    4  H           1     -24.187  -4.855  -8.431  0.00  0.00     0.163 HD
HETATM    5  O           1     -21.356  -3.605  -7.916  0.00  0.00    -0.271 OA
BRANCH   3   6
HETATM    6  C           1     -23.221  -3.600  -9.876  0.00  0.00     0.195 C 
BRANCH   6   7
HETATM    7  C           1     -22.459  -4.465 -10.873  0.00  0.00     0.149 C 
BRANCH   7   8
HETATM    8  C           1     -21.227  -3.729 -11.338  0.00  0.00     0.175 C 
HETATM    9  O           1     -21.310  -2.533 -11.694  0.00  0.00    -0.648 OA
HETATM   10  O           1     -20.124  -4.314 -11.368  0.00  0.00    -0.648 OA
ENDBRANCH   7   8
ENDBRANCH   6   7
BRANCH   6  11
HETATM   11  C           1     -24.592  -3.291 -10.425  0.00  0.00     0.197 C 
HETATM   12  O           1     -24.757  -3.161 -11.658  0.00  0.00    -0.646 OA
HETATM   13  O           1     -25.563  -3.166  -9.648  0.00  0.00    -0.646 OA
ENDBRANCH   6  11
ENDBRANCH   3   6
ENDBRANCH   1   2
BRANCH   1  14
HETATM   14  C           1     -21.688  -6.288  -6.446  0.00  0.00     0.081 C 
BRANCH  14  15
HETATM   15  C           1     -21.488  -6.819  -5.061  0.00  0.00    -0.056 A 
HETATM   16  C           1     -21.557  -8.191  -4.823  0.00  0.00     0.010 A 
HETATM   17  C           1     -21.371  -8.686  -3.533  0.00  0.00     0.038 A 
HETATM   18  C           1     -21.114  -7.808  -2.480  0.00  0.00     0.081 A 
HETATM   19  C           1     -21.045  -6.435  -2.717  0.00  0.00     0.038 A 
HETATM   20  C           1     -21.232  -5.941  -4.009  0.00  0.00     0.010 A 
BRANCH  18  21
HETATM   21  O           1     -20.933  -8.289  -1.226  0.00  0.00    -0.247 OA
BRANCH  21  22
HETATM   22  P           1     -22.189  -8.250  -0.211  0.00  0.00     0.411 P 
HETATM   23  O           1     -21.695  -8.228   1.183  0.00  0.00    -0.624 OA
HETATM   24  O           1     -22.996  -7.036  -0.469  0.00  0.00    -0.624 OA
BRANCH  22  25
HETATM   25  O           1     -23.105  -9.562  -0.437  0.00  0.00    -0.300 OA
HETATM   26  H           1     -23.851  -9.258  -0.924  0.00  0.00     0.223 HD
ENDBRANCH  22  25
ENDBRANCH  21  22
ENDBRANCH  18  21
ENDBRANCH  14  15
ENDBRANCH   1  14
BRANCH   1  27
HETATM   27  N           1     -23.933  -5.310  -6.137  0.00  0.00    -0.066 N 
HETATM   28  H           1     -24.499  -5.023  -6.967  0.00  0.00     0.275 HD
HETATM   29  H           1     -24.043  -6.337  -5.979  0.00  0.00     0.275 HD
HETATM   30  H           1     -24.264  -4.790  -5.293  0.00  0.00     0.275 HD
ENDBRANCH   1  27
TORSDOF 11
ENDMDL
MODEL 4
REMARK VINA RESULT:      -7.2      1.310      2.488
REMARK  11 active torsions:
REMARK  status: ('A' for Active; 'I' for Inactive)
REMARK    1  A    between atoms: C_2  and  C_4 
REMARK    2  A    between atoms: C_4  and  C_5 
REMARK    3  A    between atoms: C_5  and  C_6 
REMARK    4  A    between atoms: C_5  and  N_9 
REMARK       I    between atoms: N_9  and  C_10 
REMARK    5  A    between atoms: C_10  and  C_11 
REMARK    6  A    between atoms: C_11  and  C_12 
REMARK    7  A    between atoms: C_11  and  N_24 
REMARK    8  A    between atoms: C_12  and  C_13 
REMARK    9  A    between atoms: C_16  and  O_17 
REMARK   10  A    between atoms: O_17  and  P_18 
REMARK   11  A    between atoms: P_18  and  O_19 
ROOT
HETATM    1  C           1     -21.366  -6.383  -6.490  0.00  0.00     0.278 C 
ENDROOT
BRANCH   1   2
HETATM    2  C           1     -20.726  -7.356  -5.531  0.00  0.00     0.249 C 
HETATM    3  N           1     -21.332  -7.639  -4.337  0.00  0.00    -0.344 N 
HETATM    4  H           1     -22.210  -7.196  -4.097  0.00  0.00     0.163 HD
HETATM    5  O           1     -19.678  -7.884  -5.817  0.00  0.00    -0.271 OA
BRANCH   3   6
HETATM    6  C           1     -20.717  -8.574  -3.415  0.00  0.00     0.195 C 
BRANCH   6   7
HETATM    7  C           1     -20.691  -7.967  -2.018  0.00  0.00     0.149 C 
BRANCH   7   8
HETATM    8  C           1     -21.579  -6.748  -1.982  0.00  0.00     0.175 C 
HETATM    9  O           1     -21.228  -5.701  -2.567  0.00  0.00    -0.648 OA
HETATM   10  O           1     -22.667  -6.786  -1.368  0.00  0.00    -0.648 OA
ENDBRANCH   7   8
ENDBRANCH   6   7
BRANCH   6  11
HETATM   11  C           1     -21.514  -9.855  -3.391  0.00  0.00     0.197 C 
HETATM   12  O           1     -22.242 -10.119  -2.409  0.00  0.00    -0.646 OA
HETATM   13  O           1     -21.449 -10.650  -4.353  0.00  0.00    -0.646 OA
ENDBRANCH   6  11
ENDBRANCH   3   6
ENDBRANCH   1   2
BRANCH   1  14
HETATM   14  C           1     -20.289  -5.519  -7.133  0.00  0.00     0.081 C 
BRANCH  14  15
HETATM   15  C           1     -20.857  -4.819  -8.328  0.00  0.00    -0.056 A 
HETATM   16  C           1     -20.120  -4.744  -9.509  0.00  0.00     0.010 A 
HETATM   17  C           1     -20.650  -4.091 -10.621  0.00  0.00     0.038 A 
HETATM   18  C           1     -21.918  -3.514 -10.554  0.00  0.00     0.081 A 
HETATM   19  C           1     -22.656  -3.589  -9.372  0.00  0.00     0.038 A 
HETATM   20  C           1     -22.125  -4.242  -8.259  0.00  0.00     0.010 A 
BRANCH  18  21
HETATM   21  O           1     -22.432  -2.880 -11.635  0.00  0.00    -0.247 OA
BRANCH  21  22
HETATM   22  P           1     -23.727  -3.529 -12.350  0.00  0.00     0.411 P 
HETATM   23  O           1     -24.948  -3.122 -11.620  0.00  0.00    -0.624 OA
HETATM   24  O           1     -23.807  -3.055 -13.751  0.00  0.00    -0.624 OA
BRANCH  22  25
HETATM   25  O           1     -23.601  -5.139 -12.334  0.00  0.00    -0.300 OA
HETATM   26  H           1     -23.129  -5.355 -13.119  0.00  0.00     0.223 HD
ENDBRANCH  22  25
ENDBRANCH  21  22
ENDBRANCH  18  21
ENDBRANCH  14  15
ENDBRANCH   1  14
BRANCH   1  27
HETATM   27  N           1     -22.330  -5.508  -5.745  0.00  0.00    -0.066 N 
HETATM   28  H           1     -23.276  -5.951  -5.746  0.00  0.00     0.275 HD
HETATM   29  H           1     -22.003  -5.389  -4.760  0.00  0.00     0.275 HD
HETATM   30  H           1     -22.383  -4.574  -6.211  0.00  0.00     0.275 HD
ENDBRANCH   1  27
TORSDOF 11
ENDMDL
MODEL 5
REMARK VINA RESULT:      -7.0      1.859      2.549
REMARK  11 active torsions:
REMARK  status: ('A' for Active; 'I' for Inactive)
REMARK    1  A    between atoms: C_2  and  C_4 
REMARK    2  A    between atoms: C_4  and  C_5 
REMARK    3  A    between atoms: C_5  and  C_6 
REMARK    4  A    between atoms: C_5  and  N_9 
REMARK       I    between atoms: N_9  and  C_10 
REMARK    5  A    between atoms: C_10  and  C_11 
REMARK    6  A    between atoms: C_11  and  C_12 
REMARK    7  A    between atoms: C_11  and  N_24 
REMARK    8  A    between atoms: C_12  and  C_13 
REMARK    9  A    between atoms: C_16  and  O_17 
REMARK   10  A    between atoms: O_17  and  P_18 
REMARK   11  A    between atoms: P_18  and  O_19 
ROOT
HETATM    1  C           1     -21.524  -6.406  -5.235  0.00  0.00     0.278 C 
ENDROOT
BRANCH   1   2
HETATM    2  C           1     -20.966  -7.806  -5.160  0.00  0.00     0.249 C 
HETATM    3  N           1     -20.164  -8.167  -4.111  0.00  0.00    -0.344 N 
HETATM    4  H           1     -19.944  -7.495  -3.387  0.00  0.00     0.163 HD
HETATM    5  O           1     -21.227  -8.608  -6.024  0.00  0.00    -0.271 OA
BRANCH   3   6
HETATM    6  C           1     -19.627  -9.512  -4.038  0.00  0.00     0.195 C 
BRANCH   6   7
HETATM    7  C           1     -18.105  -9.452  -4.009  0.00  0.00     0.149 C 
BRANCH   7   8
HETATM    8  C           1     -17.562  -9.775  -5.379  0.00  0.00     0.175 C 
HETATM    9  O           1     -18.124  -9.316  -6.398  0.00  0.00    -0.648 OA
HETATM   10  O           1     -16.552 -10.500  -5.496  0.00  0.00    -0.648 OA
ENDBRANCH   7   8
ENDBRANCH   6   7
BRANCH   6  11
HETATM   11  C           1     -20.127 -10.185  -2.784  0.00  0.00     0.197 C 
HETATM   12  O           1     -21.339 -10.473  -2.670  0.00  0.00    -0.646 OA
HETATM   13  O           1     -19.331 -10.455  -1.859  0.00  0.00    -0.646 OA
ENDBRANCH   6  11
ENDBRANCH   3   6
ENDBRANCH   1   2
BRANCH   1  14
HETATM   14  C           1     -20.480  -5.475  -5.838  0.00  0.00     0.081 C 
BRANCH  14  15
HETATM   15  C           1     -21.001  -4.903  -7.120  0.00  0.00    -0.056 A 
HETATM   16  C           1     -20.169  -4.817  -8.235  0.00  0.00     0.010 A 
HETATM   17  C           1     -20.655  -4.284  -9.428  0.00  0.00     0.038 A 
HETATM   18  C           1     -21.974  -3.837  -9.507  0.00  0.00     0.081 A 
HETATM   19  C           1     -22.807  -3.923  -8.391  0.00  0.00     0.038 A 
HETATM   20  C           1     -22.320  -4.456  -7.197  0.00  0.00     0.010 A 
BRANCH  18  21
HETATM   21  O           1     -22.446  -3.319 -10.667  0.00  0.00    -0.247 OA
BRANCH  21  22
HETATM   22  P           1     -23.711  -4.044 -11.362  0.00  0.00     0.411 P 
HETATM   23  O           1     -23.816  -5.434 -10.866  0.00  0.00    -0.624 OA
HETATM   24  O           1     -24.949  -3.304 -11.027  0.00  0.00    -0.624 OA
BRANCH  22  25
HETATM   25  O           1     -23.510  -4.058 -12.965  0.00  0.00    -0.300 OA
HETATM   26  H           1     -23.995  -3.314 -13.278  0.00  0.00     0.223 HD
ENDBRANCH  22  25
ENDBRANCH  21  22
ENDBRANCH  18  21
ENDBRANCH  14  15
ENDBRANCH   1  14
BRANCH   1  27
HETATM   27  N           1     -21.878  -5.933  -3.857  0.00  0.00    -0.066 N 
HETATM   28  H           1     -21.407  -6.539  -3.148  0.00  0.00     0.275 HD
HETATM   29  H           1     -21.561  -4.945  -3.735  0.00  0.00     0.275 HD
HETATM   30  H           1     -22.913  -5.986  -3.726  0.00  0.00     0.275 HD
ENDBRANCH   1  27
TORSDOF 11
ENDMDL
MODEL 6
REMARK VINA RESULT:      -6.7      1.504      2.043
REMARK  11 active torsions:
REMARK  status: ('A' for Active; 'I' for Inactive)
REMARK    1  A    between atoms: C_2  and  C_4 
REMARK    2  A    between atoms: C_4  and  C_5 
REMARK    3  A    between atoms: C_5  and  C_6 
REMARK    4  A    between atoms: C_5  and  N_9 
REMARK       I    between atoms: N_9  and  C_10 
REMARK    5  A    between atoms: C_10  and  C_11 
REMARK    6  A    between atoms: C_11  and  C_12 
REMARK    7  A    between atoms: C_11  and  N_24 
REMARK    8  A    between atoms: C_12  and  C_13 
REMARK    9  A    between atoms: C_16  and  O_17 
REMARK   10  A    between atoms: O_17  and  P_18 
REMARK   11  A    between atoms: P_18  and  O_19 
ROOT
HETATM    1  C           1     -20.429  -6.309  -5.452  0.00  0.00     0.278 C 
ENDROOT
BRANCH   1   2
HETATM    2  C           1     -21.423  -6.773  -4.416  0.00  0.00     0.249 C 
HETATM    3  N           1     -21.086  -7.771  -3.543  0.00  0.00    -0.344 N 
HETATM    4  H           1     -20.169  -8.199  -3.591  0.00  0.00     0.163 HD
HETATM    5  O           1     -22.517  -6.264  -4.359  0.00  0.00    -0.271 OA
BRANCH   3   6
HETATM    6  C           1     -22.041  -8.217  -2.547  0.00  0.00     0.195 C 
BRANCH   6   7
HETATM    7  C           1     -21.883  -9.716  -2.326  0.00  0.00     0.149 C 
BRANCH   7   8
HETATM    8  C           1     -20.811 -10.250  -3.245  0.00  0.00     0.175 C 
HETATM    9  O           1     -21.108 -10.622  -4.402  0.00  0.00    -0.648 OA
HETATM   10  O           1     -19.628 -10.319  -2.851  0.00  0.00    -0.648 OA
ENDBRANCH   7   8
ENDBRANCH   6   7
BRANCH   6  11
HETATM   11  C           1     -21.791  -7.489  -1.249  0.00  0.00     0.197 C 
HETATM   12  O           1     -22.423  -6.442  -0.989  0.00  0.00    -0.646 OA
HETATM   13  O           1     -20.955  -7.934  -0.434  0.00  0.00    -0.646 OA
ENDBRANCH   6  11
ENDBRANCH   3   6
ENDBRANCH   1   2
BRANCH   1  14
HETATM   14  C           1     -20.517  -4.796  -5.600  0.00  0.00     0.081 C 
BRANCH  14  15
HETATM   15  C           1     -20.943  -4.454  -6.994  0.00  0.00    -0.056 A 
HETATM   16  C           1     -20.001  -4.407  -8.020  0.00  0.00     0.010 A 
HETATM   17  C           1     -20.398  -4.087  -9.318  0.00  0.00     0.038 A 
HETATM   18  C           1     -21.739  -3.817  -9.590  0.00  0.00     0.081 A 
HETATM   19  C           1     -22.683  -3.864  -8.563  0.00  0.00     0.038 A 
HETATM   20  C           1     -22.284  -4.183  -7.265  0.00  0.00     0.010 A 
BRANCH  18  21
HETATM   21  O           1     -22.126  -3.506 -10.852  0.00  0.00    -0.247 OA
BRANCH  21  22
HETATM   22  P           1     -23.563  -4.041 -11.357  0.00  0.00     0.411 P 
HETATM   23  O           1     -23.830  -5.370 -10.765  0.00  0.00    -0.624 OA
HETATM   24  O           1     -24.619  -3.092 -10.938  0.00  0.00    -0.624 OA
BRANCH  22  25
HETATM   25  O           1     -23.557  -4.161 -12.968  0.00  0.00    -0.300 OA
HETATM   26  H           1     -23.265  -5.038 -13.147  0.00  0.00     0.223 HD
ENDBRANCH  22  25
ENDBRANCH  21  22
ENDBRANCH  18  21
ENDBRANCH  14  15
ENDBRANCH   1  14
BRANCH   1  27
HETATM   27  N           1     -20.739  -6.958  -6.769  0.00  0.00    -0.066 N 
HETATM   28  H           1     -21.101  -6.240  -7.435  0.00  0.00     0.275 HD
HETATM   29  H           1     -19.870  -7.388  -7.158  0.00  0.00     0.275 HD
HETATM   30  H           1     -21.462  -7.699  -6.629  0.00  0.00     0.275 HD
ENDBRANCH   1  27
TORSDOF 11
ENDMDL
MODEL 7
REMARK VINA RESULT:      -6.4      2.695      4.337
REMARK  11 active torsions:
REMARK  status: ('A' for Active; 'I' for Inactive)
REMARK    1  A    between atoms: C_2  and  C_4 
REMARK    2  A    between atoms: C_4  and  C_5 
REMARK    3  A    between atoms: C_5  and  C_6 
REMARK    4  A    between atoms: C_5  and  N_9 
REMARK       I    between atoms: N_9  and  C_10 
REMARK    5  A    between atoms: C_10  and  C_11 
REMARK    6  A    between atoms: C_11  and  C_12 
REMARK    7  A    between atoms: C_11  and  N_24 
REMARK    8  A    between atoms: C_12  and  C_13 
REMARK    9  A    between atoms: C_16  and  O_17 
REMARK   10  A    between atoms: O_17  and  P_18 
REMARK   11  A    between atoms: P_18  and  O_19 
ROOT
HETATM    1  C           1     -20.555  -7.862  -4.523  0.00  0.00     0.278 C 
ENDROOT
BRANCH   1   2
HETATM    2  C           1     -20.522  -8.572  -3.192  0.00  0.00     0.249 C 
HETATM    3  N           1     -21.659  -9.154  -2.700  0.00  0.00    -0.344 N 
HETATM    4  H           1     -22.521  -9.109  -3.228  0.00  0.00     0.163 HD
HETATM    5  O           1     -19.494  -8.625  -2.561  0.00  0.00    -0.271 OA
BRANCH   3   6
HETATM    6  C           1     -21.628  -9.837  -1.420  0.00  0.00     0.195 C 
BRANCH   6   7
HETATM    7  C           1     -22.763  -9.324  -0.543  0.00  0.00     0.149 C 
BRANCH   7   8
HETATM    8  C           1     -22.440  -7.930  -0.066  0.00  0.00     0.175 C 
HETATM    9  O           1     -21.892  -7.761   1.045  0.00  0.00    -0.648 OA
HETATM   10  O           1     -22.719  -6.944  -0.781  0.00  0.00    -0.648 OA
ENDBRANCH   7   8
ENDBRANCH   6   7
BRANCH   6  11
HETATM   11  C           1     -21.794 -11.321  -1.638  0.00  0.00     0.197 C 
HETATM   12  O           1     -22.044 -12.070  -0.669  0.00  0.00    -0.646 OA
HETATM   13  O           1     -21.682 -11.801  -2.787  0.00  0.00    -0.646 OA
ENDBRANCH   6  11
ENDBRANCH   3   6
ENDBRANCH   1   2
BRANCH   1  14
HETATM   14  C           1     -21.454  -6.637  -4.424  0.00  0.00     0.081 C 
BRANCH  14  15
HETATM   15  C           1     -21.256  -5.773  -5.631  0.00  0.00    -0.056 A 
HETATM   16  C           1     -19.968  -5.421  -6.034  0.00  0.00     0.010 A 
HETATM   17  C           1     -19.785  -4.616  -7.157  0.00  0.00     0.038 A 
HETATM   18  C           1     -20.889  -4.164  -7.880  0.00  0.00     0.081 A 
HETATM   19  C           1     -22.178  -4.516  -7.477  0.00  0.00     0.038 A 
HETATM   20  C           1     -22.361  -5.321  -6.352  0.00  0.00     0.010 A 
BRANCH  18  21
HETATM   21  O           1     -20.710  -3.382  -8.972  0.00  0.00    -0.247 OA
BRANCH  21  22
HETATM   22  P           1     -20.759  -4.085 -10.425  0.00  0.00     0.411 P 
HETATM   23  O           1     -19.770  -5.184 -10.473  0.00  0.00    -0.624 OA
HETATM   24  O           1     -22.115  -4.629 -10.665  0.00  0.00    -0.624 OA
BRANCH  22  25
HETATM   25  O           1     -20.409  -2.995 -11.564  0.00  0.00    -0.300 OA
HETATM   26  H           1     -19.692  -2.496 -11.212  0.00  0.00     0.223 HD
ENDBRANCH  22  25
ENDBRANCH  21  22
ENDBRANCH  18  21
ENDBRANCH  14  15
ENDBRANCH   1  14
BRANCH   1  27
HETATM   27  N           1     -21.090  -8.790  -5.572  0.00  0.00    -0.066 N 
HETATM   28  H           1     -21.604  -9.576  -5.114  0.00  0.00     0.275 HD
HETATM   29  H           1     -21.741  -8.268  -6.201  0.00  0.00     0.275 HD
HETATM   30  H           1     -20.297  -9.174  -6.134  0.00  0.00     0.275 HD
ENDBRANCH   1  27
TORSDOF 11
ENDMDL
MODEL 8
REMARK VINA RESULT:      -6.3      3.495      8.845
REMARK  11 active torsions:
REMARK  status: ('A' for Active; 'I' for Inactive)
REMARK    1  A    between atoms: C_2  and  C_4 
REMARK    2  A    between atoms: C_4  and  C_5 
REMARK    3  A    between atoms: C_5  and  C_6 
REMARK    4  A    between atoms: C_5  and  N_9 
REMARK       I    between atoms: N_9  and  C_10 
REMARK    5  A    between atoms: C_10  and  C_11 
REMARK    6  A    between atoms: C_11  and  C_12 
REMARK    7  A    between atoms: C_11  and  N_24 
REMARK    8  A    between atoms: C_12  and  C_13 
REMARK    9  A    between atoms: C_16  and  O_17 
REMARK   10  A    between atoms: O_17  and  P_18 
REMARK   11  A    between atoms: P_18  and  O_19 
ROOT
HETATM    1  C           1     -21.683  -4.560  -6.550  0.00  0.00     0.278 C 
ENDROOT
BRANCH   1   2
HETATM    2  C           1     -21.613  -4.877  -8.023  0.00  0.00     0.249 C 
HETATM    3  N           1     -22.056  -3.964  -8.941  0.00  0.00    -0.344 N 
HETATM    4  H           1     -22.429  -3.075  -8.633  0.00  0.00     0.163 HD
HETATM    5  O           1     -21.169  -5.938  -8.392  0.00  0.00    -0.271 OA
BRANCH   3   6
HETATM    6  C           1     -21.989  -4.268 -10.358  0.00  0.00     0.195 C 
BRANCH   6   7
HETATM    7  C           1     -23.141  -3.581 -11.080  0.00  0.00     0.149 C 
BRANCH   7   8
HETATM    8  C           1     -24.437  -3.899 -10.377  0.00  0.00     0.175 C 
HETATM    9  O           1     -24.638  -5.048  -9.925  0.00  0.00    -0.648 OA
HETATM   10  O           1     -25.310  -3.015 -10.245  0.00  0.00    -0.648 OA
ENDBRANCH   7   8
ENDBRANCH   6   7
BRANCH   6  11
HETATM   11  C           1     -20.678  -3.772 -10.917  0.00  0.00     0.197 C 
HETATM   12  O           1     -20.568  -2.583 -11.288  0.00  0.00    -0.646 OA
HETATM   13  O           1     -19.703  -4.548 -11.008  0.00  0.00    -0.646 OA
ENDBRANCH   6  11
ENDBRANCH   3   6
ENDBRANCH   1   2
BRANCH   1  14
HETATM   14  C           1     -20.441  -5.101  -5.853  0.00  0.00     0.081 C 
BRANCH  14  15
HETATM   15  C           1     -20.826  -6.232  -4.952  0.00  0.00    -0.056 A 
HETATM   16  C           1     -20.840  -7.539  -5.438  0.00  0.00     0.010 A 
HETATM   17  C           1     -21.200  -8.592  -4.598  0.00  0.00     0.038 A 
HETATM   18  C           1     -21.544  -8.339  -3.270  0.00  0.00     0.081 A 
HETATM   19  C           1     -21.530  -7.032  -2.783  0.00  0.00     0.038 A 
HETATM   20  C           1     -21.171  -5.978  -3.624  0.00  0.00     0.010 A 
BRANCH  18  21
HETATM   21  O           1     -21.894  -9.363  -2.454  0.00  0.00    -0.247 OA
BRANCH  21  22
HETATM   22  P           1     -20.803  -9.885  -1.383  0.00  0.00     0.411 P 
HETATM   23  O           1     -21.012 -11.328  -1.132  0.00  0.00    -0.624 OA
HETATM   24  O           1     -19.441  -9.668  -1.920  0.00  0.00    -0.624 OA
BRANCH  22  25
HETATM   25  O           1     -20.972  -9.067  -0.000  0.00  0.00    -0.300 OA
HETATM   26  H           1     -20.226  -8.494   0.037  0.00  0.00     0.223 HD
ENDBRANCH  22  25
ENDBRANCH  21  22
ENDBRANCH  18  21
ENDBRANCH  14  15
ENDBRANCH   1  14
BRANCH   1  27
HETATM   27  N           1     -22.905  -5.199  -5.958  0.00  0.00    -0.066 N 
HETATM   28  H           1     -22.702  -5.500  -4.978  0.00  0.00     0.275 HD
HETATM   29  H           1     -23.691  -4.511  -5.955  0.00  0.00     0.275 HD
HETATM   30  H           1     -23.173  -6.032  -6.530  0.00  0.00     0.275 HD
ENDBRANCH   1  27
TORSDOF 11
ENDMDL
MODEL 9
REMARK VINA RESULT:      -5.7     11.047     13.348
REMARK  11 active torsions:
REMARK  status: ('A' for Active; 'I' for Inactive)
REMARK    1  A    between atoms: C_2  and  C_4 
REMARK    2  A    between atoms: C_4  and  C_5 
REMARK    3  A    between atoms: C_5  and  C_6 
REMARK    4  A    between atoms: C_5  and  N_9 
REMARK       I    between atoms: N_9  and  C_10 
REMARK    5  A    between atoms: C_10  and  C_11 
REMARK    6  A    between atoms: C_11  and  C_12 
REMARK    7  A    between atoms: C_11  and  N_24 
REMARK    8  A    between atoms: C_12  and  C_13 
REMARK    9  A    between atoms: C_16  and  O_17 
REMARK   10  A    between atoms: O_17  and  P_18 
REMARK   11  A    between atoms: P_18  and  O_19 
ROOT
HETATM    1  C           1     -33.300  -5.127 -15.603  0.00  0.00     0.278 C 
ENDROOT
BRANCH   1   2
HETATM    2  C           1     -33.932  -4.152 -14.640  0.00  0.00     0.249 C 
HETATM    3  N           1     -33.892  -4.396 -13.294  0.00  0.00    -0.344 N 
HETATM    4  H           1     -33.440  -5.231 -12.944  0.00  0.00     0.163 HD
HETATM    5  O           1     -34.473  -3.156 -15.057  0.00  0.00    -0.271 OA
BRANCH   3   6
HETATM    6  C           1     -34.499  -3.459 -12.368  0.00  0.00     0.195 C 
BRANCH   6   7
HETATM    7  C           1     -35.383  -4.216 -11.385  0.00  0.00     0.149 C 
BRANCH   7   8
HETATM    8  C           1     -34.955  -5.662 -11.334  0.00  0.00     0.175 C 
HETATM    9  O           1     -35.397  -6.475 -12.176  0.00  0.00    -0.648 OA
HETATM   10  O           1     -34.159  -6.048 -10.452  0.00  0.00    -0.648 OA
ENDBRANCH   7   8
ENDBRANCH   6   7
BRANCH   6  11
HETATM   11  C           1     -33.418  -2.728 -11.612  0.00  0.00     0.197 C 
HETATM   12  O           1     -33.632  -1.577 -11.172  0.00  0.00    -0.646 OA
HETATM   13  O           1     -32.308  -3.273 -11.424  0.00  0.00    -0.646 OA
ENDBRANCH   6  11
ENDBRANCH   3   6
ENDBRANCH   1   2
BRANCH   1  14
HETATM   14  C           1     -32.167  -4.440 -16.354  0.00  0.00     0.081 C 
BRANCH  14  15
HETATM   15  C           1     -30.910  -5.239 -16.201  0.00  0.00    -0.056 A 
HETATM   16  C           1     -30.484  -6.073 -17.233  0.00  0.00     0.010 A 
HETATM   17  C           1     -29.314  -6.818 -17.090  0.00  0.00     0.038 A 
HETATM   18  C           1     -28.568  -6.727 -15.915  0.00  0.00     0.081 A 
HETATM   19  C           1     -28.994  -5.891 -14.882  0.00  0.00     0.038 A 
HETATM   20  C           1     -30.166  -5.147 -15.025  0.00  0.00     0.010 A 
BRANCH  18  21
HETATM   21  O           1     -27.431  -7.450 -15.777  0.00  0.00    -0.247 OA
BRANCH  21  22
HETATM   22  P           1     -26.025  -6.720 -16.090  0.00  0.00     0.411 P 
HETATM   23  O           1     -26.208  -5.752 -17.194  0.00  0.00    -0.624 OA
HETATM   24  O           1     -25.557  -6.008 -14.880  0.00  0.00    -0.624 OA
BRANCH  22  25
HETATM   25  O           1     -24.928  -7.826 -16.520  0.00  0.00    -0.300 OA
HETATM   26  H           1     -24.917  -7.805 -17.462  0.00  0.00     0.223 HD
ENDBRANCH  22  25
ENDBRANCH  21  22
ENDBRANCH  18  21
ENDBRANCH  14  15
ENDBRANCH   1  14
BRANCH   1  27
HETATM   27  N           1     -34.333  -5.602 -16.582  0.00  0.00    -0.066 N 
HETATM   28  H           1     -33.865  -6.131 -17.353  0.00  0.00     0.275 HD
HETATM   29  H           1     -35.014  -6.227 -16.095  0.00  0.00     0.275 HD
HETATM   30  H           1     -34.838  -4.779 -16.981  0.00  0.00     0.275 HD
ENDBRANCH   1  27
TORSDOF 11
ENDMDL
