MODEL 1
REMARK VINA RESULT:      -7.8      0.000      0.000
REMARK  15 active torsions:
REMARK  status: ('A' for Active; 'I' for Inactive)
REMARK    1  A    between atoms: C_8  and  N_9 
REMARK    2  A    between atoms: C_8  and  C_36 
REMARK    3  A    between atoms: N_9  and  C_28 
REMARK    4  A    between atoms: N_14  and  C_15 
REMARK       I    between atoms: N_14  and  C_40 
REMARK    5  A    between atoms: C_15  and  C_16 
REMARK    6  A    between atoms: C_16  and  C_18 
REMARK    7  A    between atoms: C_18  and  C_19 
REMARK    8  A    between atoms: C_19  and  C_20 
REMARK    9  A    between atoms: C_19  and  N_26 
REMARK       I    between atoms: C_20  and  N_21 
REMARK   10  A    between atoms: N_21  and  C_35 
REMARK   11  A    between atoms: C_24  and  C_35 
REMARK       I    between atoms: N_25  and  C_40 
REMARK   12  A    between atoms: C_28  and  C_34 
REMARK   13  A    between atoms: C_28  and  C_29 
REMARK   14  A    between atoms: C_29  and  C_30 
REMARK   15  A    between atoms: C_35  and  C_36 
ROOT
HETATM    1  C           1     -21.509  -7.736  -1.220  0.00  0.00     0.187 C 
ENDROOT
BRANCH   1   2
HETATM    2  N           1     -21.854  -8.950  -1.935  0.00  0.00    -0.345 N 
HETATM    3  H           1     -22.764  -9.042  -2.364  0.00  0.00     0.163 HD
HETATM    4  C           1     -20.947  -9.971  -2.026  0.00  0.00     0.249 C 
HETATM    5  O           1     -19.859  -9.861  -1.512  0.00  0.00    -0.271 OA
BRANCH   4   6
HETATM    6  C           1     -21.305 -11.234  -2.768  0.00  0.00     0.274 C 
BRANCH   6   7
HETATM    7  C           1     -22.290 -10.907  -3.883  0.00  0.00     0.044 C 
BRANCH   7   8
HETATM    8  C           1     -21.838 -11.577  -5.174  0.00  0.00     0.023 C 
BRANCH   8   9
HETATM    9  C           1     -20.338 -11.836  -5.115  0.00  0.00     0.138 C 
BRANCH   9  10
HETATM   10  N           1     -19.641 -10.887  -5.994  0.00  0.00    -0.227 N 
HETATM   11  H           1     -19.969 -10.748  -6.981  0.00  0.00     0.177 HD
HETATM   12  C           1     -18.644 -10.237  -5.561  0.00  0.00     0.665 C 
HETATM   13  N           1     -18.044  -9.420  -6.318  0.00  0.00    -0.235 N 
HETATM   14  N           1     -18.237 -10.410  -4.338  0.00  0.00    -0.235 N 
HETATM   15  H           1     -18.372  -9.280  -7.306  0.00  0.00     0.174 HD
HETATM   16  H           1     -17.217  -8.881  -5.959  0.00  0.00     0.174 HD
HETATM   17  H           1     -18.732 -11.085  -3.713  0.00  0.00     0.174 HD
HETATM   18  H           1     -17.414  -9.874  -3.981  0.00  0.00     0.174 HD
ENDBRANCH   9  10
ENDBRANCH   8   9
ENDBRANCH   7   8
ENDBRANCH   6   7
BRANCH   6  19
HETATM   19  N           1     -21.933 -12.211  -1.818  0.00  0.00    -0.067 N 
HETATM   20  H           1     -22.328 -11.696  -0.999  0.00  0.00     0.275 HD
HETATM   21  H           1     -22.699 -12.727  -2.307  0.00  0.00     0.275 HD
HETATM   22  H           1     -21.210 -12.889  -1.488  0.00  0.00     0.275 HD
ENDBRANCH   6  19
ENDBRANCH   4   6
ENDBRANCH   1   2
BRANCH   1  23
HETATM   23  C           1     -22.165  -7.750   0.139  0.00  0.00     0.196 C 
HETATM   24  O           1     -23.367  -7.425   0.257  0.00  0.00    -0.646 OA
HETATM   25  O           1     -21.507  -8.085   1.147  0.00  0.00    -0.646 OA
ENDBRANCH   1  23
BRANCH   1  26
HETATM   26  C           1     -21.997  -6.527  -2.008  0.00  0.00     0.066 C 
BRANCH  26  27
HETATM   27  C           1     -21.934  -6.832  -3.499  0.00  0.00     0.273 C 
BRANCH  27  28
HETATM   28  N           1     -21.250  -5.764  -4.177  0.00  0.00     0.098 N 
HETATM   29  H           1     -20.248  -5.834  -4.000  0.00  0.00     0.317 HD
BRANCH  28  30
HETATM   30  C           1     -21.499  -5.911  -5.586  0.00  0.00     0.324 C 
BRANCH  30  31
HETATM   31  C           1     -20.722  -7.092  -6.112  0.00  0.00     0.207 C 
HETATM   32  O           1     -19.565  -6.931  -6.558  0.00  0.00    -0.646 OA
HETATM   33  O           1     -21.234  -8.233  -6.102  0.00  0.00    -0.646 OA
ENDBRANCH  30  31
BRANCH  30  34
HETATM   34  C           1     -21.059  -4.648  -6.314  0.00  0.00     0.087 C 
BRANCH  34  35
HETATM   35  C           1     -21.993  -4.374  -7.450  0.00  0.00    -0.028 A 
HETATM   36  C           1     -21.625  -4.189  -8.812  0.00  0.00    -0.002 A 
HETATM   37  C           1     -20.400  -4.196  -9.506  0.00  0.00     0.014 A 
HETATM   38  C           1     -22.801  -3.960  -9.527  0.00  0.00     0.042 A 
HETATM   39  C           1     -20.394  -3.974 -10.888  0.00  0.00     0.001 A 
HETATM   40  C           1     -21.584  -3.747 -11.577  0.00  0.00     0.002 A 
HETATM   41  C           1     -22.813  -3.735 -10.910  0.00  0.00     0.030 A 
HETATM   42  N           1     -23.839  -4.005  -8.624  0.00  0.00    -0.365 N 
HETATM   43  H           1     -24.852  -3.867  -8.866  0.00  0.00     0.165 HD
HETATM   44  C           1     -23.361  -4.255  -7.365  0.00  0.00     0.096 A 
ENDBRANCH  34  35
ENDBRANCH  30  34
ENDBRANCH  28  30
ENDBRANCH  27  28
ENDBRANCH  26  27
ENDBRANCH   1  26
TORSDOF 15
ENDMDL
MODEL 2
REMARK VINA RESULT:      -7.7      2.273      8.497
REMARK  15 active torsions:
REMARK  status: ('A' for Active; 'I' for Inactive)
REMARK    1  A    between atoms: C_8  and  N_9 
REMARK    2  A    between atoms: C_8  and  C_36 
REMARK    3  A    between atoms: N_9  and  C_28 
REMARK    4  A    between atoms: N_14  and  C_15 
REMARK       I    between atoms: N_14  and  C_40 
REMARK    5  A    between atoms: C_15  and  C_16 
REMARK    6  A    between atoms: C_16  and  C_18 
REMARK    7  A    between atoms: C_18  and  C_19 
REMARK    8  A    between atoms: C_19  and  C_20 
REMARK    9  A    between atoms: C_19  and  N_26 
REMARK       I    between atoms: C_20  and  N_21 
REMARK   10  A    between atoms: N_21  and  C_35 
REMARK   11  A    between atoms: C_24  and  C_35 
REMARK       I    between atoms: N_25  and  C_40 
REMARK   12  A    between atoms: C_28  and  C_34 
REMARK   13  A    between atoms: C_28  and  C_29 
REMARK   14  A    between atoms: C_29  and  C_30 
REMARK   15  A    between atoms: C_35  and  C_36 
ROOT
HETATM    1  C           1     -21.007  -6.469  -5.268  0.00  0.00     0.187 C 
ENDROOT
BRANCH   1   2
HETATM    2  N           1     -21.657  -5.959  -6.460  0.00  0.00    -0.345 N 
HETATM    3  H           1     -22.584  -6.278  -6.707  0.00  0.00     0.163 HD
HETATM    4  C           1     -21.013  -5.046  -7.252  0.00  0.00     0.249 C 
HETATM    5  O           1     -19.906  -4.666  -6.958  0.00  0.00    -0.271 OA
BRANCH   4   6
HETATM    6  C           1     -21.688  -4.516  -8.493  0.00  0.00     0.274 C 
BRANCH   6   7
HETATM    7  C           1     -20.635  -3.987  -9.458  0.00  0.00     0.044 C 
BRANCH   7   8
HETATM    8  C           1     -21.008  -4.379 -10.882  0.00  0.00     0.023 C 
BRANCH   8   9
HETATM    9  C           1     -21.867  -3.285 -11.502  0.00  0.00     0.138 C 
BRANCH   9  10
HETATM   10  N           1     -21.804  -3.382 -12.967  0.00  0.00    -0.227 N 
HETATM   11  H           1     -20.998  -3.875 -13.426  0.00  0.00     0.177 HD
HETATM   12  C           1     -22.720  -2.872 -13.677  0.00  0.00     0.665 C 
HETATM   13  N           1     -22.666  -2.957 -14.938  0.00  0.00    -0.235 N 
HETATM   14  N           1     -23.718  -2.262 -13.109  0.00  0.00    -0.235 N 
HETATM   15  H           1     -21.860  -3.449 -15.398  0.00  0.00     0.174 HD
HETATM   16  H           1     -23.426  -2.533 -15.526  0.00  0.00     0.174 HD
HETATM   17  H           1     -23.763  -2.192 -12.067  0.00  0.00     0.174 HD
HETATM   18  H           1     -24.474  -1.841 -13.693  0.00  0.00     0.174 HD
ENDBRANCH   9  10
ENDBRANCH   8   9
ENDBRANCH   7   8
ENDBRANCH   6   7
BRANCH   6  19
HETATM   19  N           1     -22.623  -3.404  -8.116  0.00  0.00    -0.067 N 
HETATM   20  H           1     -22.119  -2.490  -8.173  0.00  0.00     0.275 HD
HETATM   21  H           1     -23.435  -3.396  -8.774  0.00  0.00     0.275 HD
HETATM   22  H           1     -22.965  -3.553  -7.141  0.00  0.00     0.275 HD
ENDBRANCH   6  19
ENDBRANCH   4   6
ENDBRANCH   1   2
BRANCH   1  23
HETATM   23  C           1     -20.497  -7.864  -5.532  0.00  0.00     0.196 C 
HETATM   24  O           1     -19.275  -8.058  -5.718  0.00  0.00    -0.646 OA
HETATM   25  O           1     -21.294  -8.826  -5.566  0.00  0.00    -0.646 OA
ENDBRANCH   1  23
BRANCH   1  26
HETATM   26  C           1     -22.008  -6.503  -4.120  0.00  0.00     0.066 C 
BRANCH  26  27
HETATM   27  C           1     -21.271  -6.346  -2.797  0.00  0.00     0.273 C 
BRANCH  27  28
HETATM   28  N           1     -22.165  -6.647  -1.712  0.00  0.00     0.098 N 
HETATM   29  H           1     -23.126  -6.652  -2.053  0.00  0.00     0.317 HD
BRANCH  28  30
HETATM   30  C           1     -21.826  -7.955  -1.217  0.00  0.00     0.324 C 
BRANCH  30  31
HETATM   31  C           1     -22.198  -8.052   0.242  0.00  0.00     0.207 C 
HETATM   32  O           1     -21.308  -8.205   1.105  0.00  0.00    -0.646 OA
HETATM   33  O           1     -23.397  -7.978   0.588  0.00  0.00    -0.646 OA
ENDBRANCH  30  31
BRANCH  30  34
HETATM   34  C           1     -20.329  -8.184  -1.376  0.00  0.00     0.087 C 
BRANCH  34  35
HETATM   35  C           1     -20.095  -9.374  -2.253  0.00  0.00    -0.028 A 
HETATM   36  C           1     -18.851  -9.770  -2.817  0.00  0.00    -0.002 A 
HETATM   37  C           1     -17.543  -9.252  -2.764  0.00  0.00     0.014 A 
HETATM   38  C           1     -19.086 -10.926  -3.561  0.00  0.00     0.042 A 
HETATM   39  C           1     -16.517  -9.908  -3.456  0.00  0.00     0.001 A 
HETATM   40  C           1     -16.782 -11.061  -4.192  0.00  0.00     0.002 A 
HETATM   41  C           1     -18.072 -11.594  -4.260  0.00  0.00     0.030 A 
HETATM   42  N           1     -20.427 -11.214  -3.448  0.00  0.00    -0.365 N 
HETATM   43  H           1     -20.907 -12.031  -3.902  0.00  0.00     0.165 HD
HETATM   44  C           1     -21.047 -10.282  -2.659  0.00  0.00     0.096 A 
ENDBRANCH  34  35
ENDBRANCH  30  34
ENDBRANCH  28  30
ENDBRANCH  27  28
ENDBRANCH  26  27
ENDBRANCH   1  26
TORSDOF 15
ENDMDL
MODEL 3
REMARK VINA RESULT:      -7.6      1.395      2.815
REMARK  15 active torsions:
REMARK  status: ('A' for Active; 'I' for Inactive)
REMARK    1  A    between atoms: C_8  and  N_9 
REMARK    2  A    between atoms: C_8  and  C_36 
REMARK    3  A    between atoms: N_9  and  C_28 
REMARK    4  A    between atoms: N_14  and  C_15 
REMARK       I    between atoms: N_14  and  C_40 
REMARK    5  A    between atoms: C_15  and  C_16 
REMARK    6  A    between atoms: C_16  and  C_18 
REMARK    7  A    between atoms: C_18  and  C_19 
REMARK    8  A    between atoms: C_19  and  C_20 
REMARK    9  A    between atoms: C_19  and  N_26 
REMARK       I    between atoms: C_20  and  N_21 
REMARK   10  A    between atoms: N_21  and  C_35 
REMARK   11  A    between atoms: C_24  and  C_35 
REMARK       I    between atoms: N_25  and  C_40 
REMARK   12  A    between atoms: C_28  and  C_34 
REMARK   13  A    between atoms: C_28  and  C_29 
REMARK   14  A    between atoms: C_29  and  C_30 
REMARK   15  A    between atoms: C_35  and  C_36 
ROOT
HETATM    1  C           1     -21.513  -7.803  -1.298  0.00  0.00     0.187 C 
ENDROOT
BRANCH   1   2
HETATM    2  N           1     -22.131  -8.726  -2.230  0.00  0.00    -0.345 N 
HETATM    3  H           1     -23.023  -8.498  -2.650  0.00  0.00     0.163 HD
HETATM    4  C           1     -21.509  -9.904  -2.541  0.00  0.00     0.249 C 
HETATM    5  O           1     -20.445 -10.176  -2.038  0.00  0.00    -0.271 OA
BRANCH   4   6
HETATM    6  C           1     -22.152 -10.865  -3.510  0.00  0.00     0.274 C 
BRANCH   6   7
HETATM    7  C           1     -22.537 -12.144  -2.779  0.00  0.00     0.044 C 
BRANCH   7   8
HETATM    8  C           1     -23.537 -11.820  -1.678  0.00  0.00     0.023 C 
BRANCH   8   9
HETATM    9  C           1     -23.057 -12.419  -0.362  0.00  0.00     0.138 C 
BRANCH   9  10
HETATM   10  N           1     -22.318 -11.403   0.400  0.00  0.00    -0.227 N 
HETATM   11  H           1     -22.817 -10.554   0.765  0.00  0.00     0.177 HD
HETATM   12  C           1     -21.079 -11.549   0.617  0.00  0.00     0.665 C 
HETATM   13  N           1     -20.443 -10.675   1.273  0.00  0.00    -0.235 N 
HETATM   14  N           1     -20.460 -12.600   0.165  0.00  0.00    -0.235 N 
HETATM   15  H           1     -20.941  -9.826   1.638  0.00  0.00     0.174 HD
HETATM   16  H           1     -19.415 -10.797   1.452  0.00  0.00     0.174 HD
HETATM   17  H           1     -20.986 -13.323  -0.378  0.00  0.00     0.174 HD
HETATM   18  H           1     -19.438 -12.722   0.343  0.00  0.00     0.174 HD
ENDBRANCH   9  10
ENDBRANCH   8   9
ENDBRANCH   7   8
ENDBRANCH   6   7
BRANCH   6  19
HETATM   19  N           1     -21.182 -11.190  -4.608  0.00  0.00    -0.067 N 
HETATM   20  H           1     -21.480 -12.069  -5.088  0.00  0.00     0.275 HD
HETATM   21  H           1     -21.165 -10.405  -5.300  0.00  0.00     0.275 HD
HETATM   22  H           1     -20.229 -11.319  -4.203  0.00  0.00     0.275 HD
ENDBRANCH   6  19
ENDBRANCH   4   6
ENDBRANCH   1   2
BRANCH   1  23
HETATM   23  C           1     -22.131  -7.980   0.068  0.00  0.00     0.196 C 
HETATM   24  O           1     -23.331  -8.315   0.173  0.00  0.00    -0.646 OA
HETATM   25  O           1     -21.443  -7.793   1.094  0.00  0.00    -0.646 OA
ENDBRANCH   1  23
BRANCH   1  26
HETATM   26  C           1     -21.735  -6.374  -1.775  0.00  0.00     0.066 C 
BRANCH  26  27
HETATM   27  C           1     -22.132  -6.384  -3.245  0.00  0.00     0.273 C 
BRANCH  27  28
HETATM   28  N           1     -21.076  -5.802  -4.030  0.00  0.00     0.098 N 
HETATM   29  H           1     -20.193  -6.260  -3.806  0.00  0.00     0.317 HD
BRANCH  28  30
HETATM   30  C           1     -21.392  -6.022  -5.416  0.00  0.00     0.324 C 
BRANCH  30  31
HETATM   31  C           1     -20.742  -7.301  -5.882  0.00  0.00     0.207 C 
HETATM   32  O           1     -21.388  -8.371  -5.868  0.00  0.00    -0.646 OA
HETATM   33  O           1     -19.557  -7.292  -6.281  0.00  0.00    -0.646 OA
ENDBRANCH  30  31
BRANCH  30  34
HETATM   34  C           1     -20.870  -4.856  -6.245  0.00  0.00     0.087 C 
BRANCH  34  35
HETATM   35  C           1     -21.865  -4.514  -7.310  0.00  0.00    -0.028 A 
HETATM   36  C           1     -21.572  -4.239  -8.675  0.00  0.00    -0.002 A 
HETATM   37  C           1     -20.386  -4.194  -9.432  0.00  0.00     0.014 A 
HETATM   38  C           1     -22.785  -3.972  -9.309  0.00  0.00     0.042 A 
HETATM   39  C           1     -20.455  -3.882 -10.795  0.00  0.00     0.001 A 
HETATM   40  C           1     -21.682  -3.618 -11.403  0.00  0.00     0.002 A 
HETATM   41  C           1     -22.872  -3.658 -10.671  0.00  0.00     0.030 A 
HETATM   42  N           1     -23.773  -4.082  -8.356  0.00  0.00    -0.365 N 
HETATM   43  H           1     -24.798  -3.934  -8.533  0.00  0.00     0.165 HD
HETATM   44  C           1     -23.227  -4.409  -7.144  0.00  0.00     0.096 A 
ENDBRANCH  34  35
ENDBRANCH  30  34
ENDBRANCH  28  30
ENDBRANCH  27  28
ENDBRANCH  26  27
ENDBRANCH   1  26
TORSDOF 15
ENDMDL
MODEL 4
REMARK VINA RESULT:      -7.4      2.361      9.159
REMARK  15 active torsions:
REMARK  status: ('A' for Active; 'I' for Inactive)
REMARK    1  A    between atoms: C_8  and  N_9 
REMARK    2  A    between atoms: C_8  and  C_36 
REMARK    3  A    between atoms: N_9  and  C_28 
REMARK    4  A    between atoms: N_14  and  C_15 
REMARK       I    between atoms: N_14  and  C_40 
REMARK    5  A    between atoms: C_15  and  C_16 
REMARK    6  A    between atoms: C_16  and  C_18 
REMARK    7  A    between atoms: C_18  and  C_19 
REMARK    8  A    between atoms: C_19  and  C_20 
REMARK    9  A    between atoms: C_19  and  N_26 
REMARK       I    between atoms: C_20  and  N_21 
REMARK   10  A    between atoms: N_21  and  C_35 
REMARK   11  A    between atoms: C_24  and  C_35 
REMARK       I    between atoms: N_25  and  C_40 
REMARK   12  A    between atoms: C_28  and  C_34 
REMARK   13  A    between atoms: C_28  and  C_29 
REMARK   14  A    between atoms: C_29  and  C_30 
REMARK   15  A    between atoms: C_35  and  C_36 
ROOT
HETATM    1  C           1     -20.891  -6.447  -4.920  0.00  0.00     0.187 C 
ENDROOT
BRANCH   1   2
HETATM    2  N           1     -21.559  -5.928  -6.098  0.00  0.00    -0.345 N 
HETATM    3  H           1     -22.560  -6.031  -6.198  0.00  0.00     0.163 HD
HETATM    4  C           1     -20.835  -5.300  -7.075  0.00  0.00     0.249 C 
HETATM    5  O           1     -19.639  -5.178  -6.956  0.00  0.00    -0.271 OA
BRANCH   4   6
HETATM    6  C           1     -21.530  -4.760  -8.300  0.00  0.00     0.274 C 
BRANCH   6   7
HETATM    7  C           1     -20.511  -4.081  -9.205  0.00  0.00     0.044 C 
BRANCH   7   8
HETATM    8  C           1     -20.812  -4.425 -10.658  0.00  0.00     0.023 C 
BRANCH   8   9
HETATM    9  C           1     -21.230  -3.164 -11.404  0.00  0.00     0.138 C 
BRANCH   9  10
HETATM   10  N           1     -21.683  -3.520 -12.756  0.00  0.00    -0.227 N 
HETATM   11  H           1     -21.106  -4.168 -13.349  0.00  0.00     0.177 HD
HETATM   12  C           1     -22.767  -3.047 -13.207  0.00  0.00     0.665 C 
HETATM   13  N           1     -23.156  -3.354 -14.371  0.00  0.00    -0.235 N 
HETATM   14  N           1     -23.480  -2.245 -12.473  0.00  0.00    -0.235 N 
HETATM   15  H           1     -22.581  -4.002 -14.964  0.00  0.00     0.174 HD
HETATM   16  H           1     -24.056  -2.961 -14.745  0.00  0.00     0.174 HD
HETATM   17  H           1     -23.158  -1.991 -11.512  0.00  0.00     0.174 HD
HETATM   18  H           1     -24.375  -1.854 -12.845  0.00  0.00     0.174 HD
ENDBRANCH   9  10
ENDBRANCH   8   9
ENDBRANCH   7   8
ENDBRANCH   6   7
BRANCH   6  19
HETATM   19  N           1     -22.571  -3.763  -7.885  0.00  0.00    -0.067 N 
HETATM   20  H           1     -22.808  -3.146  -8.695  0.00  0.00     0.275 HD
HETATM   21  H           1     -23.431  -4.268  -7.570  0.00  0.00     0.275 HD
HETATM   22  H           1     -22.202  -3.180  -7.100  0.00  0.00     0.275 HD
ENDBRANCH   6  19
ENDBRANCH   4   6
ENDBRANCH   1   2
BRANCH   1  23
HETATM   23  C           1     -20.498  -7.885  -5.159  0.00  0.00     0.196 C 
HETATM   24  O           1     -19.447  -8.338  -4.655  0.00  0.00    -0.646 OA
HETATM   25  O           1     -21.223  -8.623  -5.860  0.00  0.00    -0.646 OA
ENDBRANCH   1  23
BRANCH   1  26
HETATM   26  C           1     -21.832  -6.369  -3.726  0.00  0.00     0.066 C 
BRANCH  26  27
HETATM   27  C           1     -21.175  -7.018  -2.515  0.00  0.00     0.273 C 
BRANCH  27  28
HETATM   28  N           1     -22.023  -6.857  -1.366  0.00  0.00     0.098 N 
HETATM   29  H           1     -22.906  -6.432  -1.650  0.00  0.00     0.317 HD
BRANCH  28  30
HETATM   30  C           1     -22.274  -8.164  -0.821  0.00  0.00     0.324 C 
BRANCH  30  31
HETATM   31  C           1     -22.171  -8.110   0.683  0.00  0.00     0.207 C 
HETATM   32  O           1     -21.099  -8.416   1.247  0.00  0.00    -0.646 OA
HETATM   33  O           1     -23.158  -7.758   1.365  0.00  0.00    -0.646 OA
ENDBRANCH  30  31
BRANCH  30  34
HETATM   34  C           1     -21.245  -9.146  -1.366  0.00  0.00     0.087 C 
BRANCH  34  35
HETATM   35  C           1     -21.938 -10.379  -1.853  0.00  0.00    -0.028 A 
HETATM   36  C           1     -22.444 -11.433  -1.041  0.00  0.00    -0.002 A 
HETATM   37  C           1     -22.476 -11.672   0.345  0.00  0.00     0.014 A 
HETATM   38  C           1     -23.010 -12.377  -1.899  0.00  0.00     0.042 A 
HETATM   39  C           1     -23.069 -12.846   0.826  0.00  0.00     0.001 A 
HETATM   40  C           1     -23.626 -13.772  -0.055  0.00  0.00     0.002 A 
HETATM   41  C           1     -23.607 -13.556  -1.436  0.00  0.00     0.030 A 
HETATM   42  N           1     -22.847 -11.906  -3.182  0.00  0.00    -0.365 N 
HETATM   43  H           1     -23.172 -12.401  -4.050  0.00  0.00     0.165 HD
HETATM   44  C           1     -22.201 -10.698  -3.166  0.00  0.00     0.096 A 
ENDBRANCH  34  35
ENDBRANCH  30  34
ENDBRANCH  28  30
ENDBRANCH  27  28
ENDBRANCH  26  27
ENDBRANCH   1  26
TORSDOF 15
ENDMDL
MODEL 5
REMARK VINA RESULT:      -7.4      2.283      8.779
REMARK  15 active torsions:
REMARK  status: ('A' for Active; 'I' for Inactive)
REMARK    1  A    between atoms: C_8  and  N_9 
REMARK    2  A    between atoms: C_8  and  C_36 
REMARK    3  A    between atoms: N_9  and  C_28 
REMARK    4  A    between atoms: N_14  and  C_15 
REMARK       I    between atoms: N_14  and  C_40 
REMARK    5  A    between atoms: C_15  and  C_16 
REMARK    6  A    between atoms: C_16  and  C_18 
REMARK    7  A    between atoms: C_18  and  C_19 
REMARK    8  A    between atoms: C_19  and  C_20 
REMARK    9  A    between atoms: C_19  and  N_26 
REMARK       I    between atoms: C_20  and  N_21 
REMARK   10  A    between atoms: N_21  and  C_35 
REMARK   11  A    between atoms: C_24  and  C_35 
REMARK       I    between atoms: N_25  and  C_40 
REMARK   12  A    between atoms: C_28  and  C_34 
REMARK   13  A    between atoms: C_28  and  C_29 
REMARK   14  A    between atoms: C_29  and  C_30 
REMARK   15  A    between atoms: C_35  and  C_36 
ROOT
HETATM    1  C           1     -19.337  -8.926  -5.145  0.00  0.00     0.187 C 
ENDROOT
BRANCH   1   2
HETATM    2  N           1     -20.266  -7.825  -5.314  0.00  0.00    -0.345 N 
HETATM    3  H           1     -21.067  -7.741  -4.702  0.00  0.00     0.163 HD
HETATM    4  C           1     -20.059  -6.901  -6.302  0.00  0.00     0.249 C 
HETATM    5  O           1     -19.103  -7.002  -7.033  0.00  0.00    -0.271 OA
BRANCH   4   6
HETATM    6  C           1     -21.025  -5.757  -6.479  0.00  0.00     0.274 C 
BRANCH   6   7
HETATM    7  C           1     -20.944  -5.238  -7.908  0.00  0.00     0.044 C 
BRANCH   7   8
HETATM    8  C           1     -21.554  -3.844  -7.980  0.00  0.00     0.023 C 
BRANCH   8   9
HETATM    9  C           1     -22.350  -3.703  -9.271  0.00  0.00     0.138 C 
BRANCH   9  10
HETATM   10  N           1     -23.786  -3.677  -8.963  0.00  0.00    -0.227 N 
HETATM   11  H           1     -24.114  -3.822  -7.977  0.00  0.00     0.177 HD
HETATM   12  C           1     -24.630  -3.479  -9.887  0.00  0.00     0.665 C 
HETATM   13  N           1     -25.866  -3.457  -9.622  0.00  0.00    -0.235 N 
HETATM   14  N           1     -24.223  -3.299 -11.109  0.00  0.00    -0.235 N 
HETATM   15  H           1     -26.195  -3.602  -8.635  0.00  0.00     0.174 HD
HETATM   16  H           1     -26.565  -3.293 -10.389  0.00  0.00     0.174 HD
HETATM   17  H           1     -23.201  -3.318 -11.329  0.00  0.00     0.174 HD
HETATM   18  H           1     -24.918  -3.136 -11.872  0.00  0.00     0.174 HD
ENDBRANCH   9  10
ENDBRANCH   8   9
ENDBRANCH   7   8
ENDBRANCH   6   7
BRANCH   6  19
HETATM   19  N           1     -20.670  -4.652  -5.527  0.00  0.00    -0.067 N 
HETATM   20  H           1     -21.369  -4.622  -4.751  0.00  0.00     0.275 HD
HETATM   21  H           1     -19.718  -4.827  -5.131  0.00  0.00     0.275 HD
HETATM   22  H           1     -20.675  -3.740  -6.035  0.00  0.00     0.275 HD
ENDBRANCH   6  19
ENDBRANCH   4   6
ENDBRANCH   1   2
BRANCH   1  23
HETATM   23  C           1     -20.006 -10.215  -5.552  0.00  0.00     0.196 C 
HETATM   24  O           1     -19.415 -11.306  -5.391  0.00  0.00    -0.646 OA
HETATM   25  O           1     -21.152 -10.194  -6.051  0.00  0.00    -0.646 OA
ENDBRANCH   1  23
BRANCH   1  26
HETATM   26  C           1     -18.913  -9.013  -3.684  0.00  0.00     0.066 C 
BRANCH  26  27
HETATM   27  C           1     -20.143  -9.209  -2.808  0.00  0.00     0.273 C 
BRANCH  27  28
HETATM   28  N           1     -20.306  -8.068  -1.948  0.00  0.00     0.098 N 
HETATM   29  H           1     -19.906  -7.244  -2.396  0.00  0.00     0.317 HD
BRANCH  28  30
HETATM   30  C           1     -21.716  -7.868  -1.750  0.00  0.00     0.324 C 
BRANCH  30  31
HETATM   31  C           1     -22.103  -6.496  -2.244  0.00  0.00     0.207 C 
HETATM   32  O           1     -22.293  -5.569  -1.428  0.00  0.00    -0.646 OA
HETATM   33  O           1     -22.234  -6.286  -3.470  0.00  0.00    -0.646 OA
ENDBRANCH  30  31
BRANCH  30  34
HETATM   34  C           1     -22.042  -7.985  -0.267  0.00  0.00     0.087 C 
BRANCH  34  35
HETATM   35  C           1     -21.759  -9.379   0.199  0.00  0.00    -0.028 A 
HETATM   36  C           1     -22.533 -10.535  -0.097  0.00  0.00    -0.002 A 
HETATM   37  C           1     -23.703 -10.766  -0.845  0.00  0.00     0.014 A 
HETATM   38  C           1     -21.915 -11.615   0.534  0.00  0.00     0.042 A 
HETATM   39  C           1     -24.214 -12.066  -0.935  0.00  0.00     0.001 A 
HETATM   40  C           1     -23.576 -13.126  -0.293  0.00  0.00     0.002 A 
HETATM   41  C           1     -22.413 -12.922   0.455  0.00  0.00     0.030 A 
HETATM   42  N           1     -20.808 -11.123   1.187  0.00  0.00    -0.365 N 
HETATM   43  H           1     -20.139 -11.700   1.755  0.00  0.00     0.165 HD
HETATM   44  C           1     -20.704  -9.771   0.991  0.00  0.00     0.096 A 
ENDBRANCH  34  35
ENDBRANCH  30  34
ENDBRANCH  28  30
ENDBRANCH  27  28
ENDBRANCH  26  27
ENDBRANCH   1  26
TORSDOF 15
ENDMDL
MODEL 6
REMARK VINA RESULT:      -7.3      2.520      8.485
REMARK  15 active torsions:
REMARK  status: ('A' for Active; 'I' for Inactive)
REMARK    1  A    between atoms: C_8  and  N_9 
REMARK    2  A    between atoms: C_8  and  C_36 
REMARK    3  A    between atoms: N_9  and  C_28 
REMARK    4  A    between atoms: N_14  and  C_15 
REMARK       I    between atoms: N_14  and  C_40 
REMARK    5  A    between atoms: C_15  and  C_16 
REMARK    6  A    between atoms: C_16  and  C_18 
REMARK    7  A    between atoms: C_18  and  C_19 
REMARK    8  A    between atoms: C_19  and  C_20 
REMARK    9  A    between atoms: C_19  and  N_26 
REMARK       I    between atoms: C_20  and  N_21 
REMARK   10  A    between atoms: N_21  and  C_35 
REMARK   11  A    between atoms: C_24  and  C_35 
REMARK       I    between atoms: N_25  and  C_40 
REMARK   12  A    between atoms: C_28  and  C_34 
REMARK   13  A    between atoms: C_28  and  C_29 
REMARK   14  A    between atoms: C_29  and  C_30 
REMARK   15  A    between atoms: C_35  and  C_36 
ROOT
HETATM    1  C           1     -21.544  -7.582  -3.735  0.00  0.00     0.187 C 
ENDROOT
BRANCH   1   2
HETATM    2  N           1     -21.048  -6.735  -4.802  0.00  0.00    -0.345 N 
HETATM    3  H           1     -20.056  -6.692  -4.994  0.00  0.00     0.163 HD
HETATM    4  C           1     -21.923  -5.992  -5.548  0.00  0.00     0.249 C 
HETATM    5  O           1     -23.108  -6.043  -5.318  0.00  0.00    -0.271 OA
BRANCH   4   6
HETATM    6  C           1     -21.408  -5.110  -6.658  0.00  0.00     0.274 C 
BRANCH   6   7
HETATM    7  C           1     -22.582  -4.544  -7.445  0.00  0.00     0.044 C 
BRANCH   7   8
HETATM    8  C           1     -22.348  -4.761  -8.935  0.00  0.00     0.023 C 
BRANCH   8   9
HETATM    9  C           1     -22.240  -3.412  -9.634  0.00  0.00     0.138 C 
BRANCH   9  10
HETATM   10  N           1     -22.645  -3.553 -11.040  0.00  0.00    -0.227 N 
HETATM   11  H           1     -23.635  -3.808 -11.277  0.00  0.00     0.177 HD
HETATM   12  C           1     -21.800  -3.368 -11.965  0.00  0.00     0.665 C 
HETATM   13  N           1     -22.149  -3.489 -13.175  0.00  0.00    -0.235 N 
HETATM   14  N           1     -20.573  -3.052 -11.670  0.00  0.00    -0.235 N 
HETATM   15  H           1     -23.139  -3.745 -13.413  0.00  0.00     0.174 HD
HETATM   16  H           1     -21.447  -3.336 -13.941  0.00  0.00     0.174 HD
HETATM   17  H           1     -20.285  -2.951 -10.670  0.00  0.00     0.174 HD
HETATM   18  H           1     -19.876  -2.899 -12.432  0.00  0.00     0.174 HD
ENDBRANCH   9  10
ENDBRANCH   8   9
ENDBRANCH   7   8
ENDBRANCH   6   7
BRANCH   6  19
HETATM   19  N           1     -20.536  -5.917  -7.574  0.00  0.00    -0.067 N 
HETATM   20  H           1     -19.538  -5.635  -7.445  0.00  0.00     0.275 HD
HETATM   21  H           1     -20.642  -6.933  -7.349  0.00  0.00     0.275 HD
HETATM   22  H           1     -20.821  -5.748  -8.564  0.00  0.00     0.275 HD
ENDBRANCH   6  19
ENDBRANCH   4   6
ENDBRANCH   1   2
BRANCH   1  23
HETATM   23  C           1     -21.486  -6.830  -2.428  0.00  0.00     0.196 C 
HETATM   24  O           1     -22.328  -5.939  -2.181  0.00  0.00    -0.646 OA
HETATM   25  O           1     -20.596  -7.097  -1.592  0.00  0.00    -0.646 OA
ENDBRANCH   1  23
BRANCH   1  26
HETATM   26  C           1     -20.682  -8.834  -3.639  0.00  0.00     0.066 C 
BRANCH  26  27
HETATM   27  C           1     -21.206  -9.889  -4.606  0.00  0.00     0.273 C 
BRANCH  27  28
HETATM   28  N           1     -22.348 -10.543  -4.027  0.00  0.00     0.098 N 
HETATM   29  H           1     -23.040 -10.727  -4.753  0.00  0.00     0.317 HD
BRANCH  28  30
HETATM   30  C           1     -21.898 -11.790  -3.466  0.00  0.00     0.324 C 
BRANCH  30  31
HETATM   31  C           1     -22.270 -12.920  -4.394  0.00  0.00     0.207 C 
HETATM   32  O           1     -21.801 -14.063  -4.205  0.00  0.00    -0.646 OA
HETATM   33  O           1     -23.048 -12.714  -5.351  0.00  0.00    -0.646 OA
ENDBRANCH  30  31
BRANCH  30  34
HETATM   34  C           1     -22.561 -12.004  -2.112  0.00  0.00     0.087 C 
BRANCH  34  35
HETATM   35  C           1     -21.722 -11.381  -1.041  0.00  0.00    -0.028 A 
HETATM   36  C           1     -22.038 -10.203  -0.308  0.00  0.00    -0.002 A 
HETATM   37  C           1     -23.120  -9.303  -0.318  0.00  0.00     0.014 A 
HETATM   38  C           1     -20.988  -9.981   0.584  0.00  0.00     0.042 A 
HETATM   39  C           1     -23.115  -8.214   0.561  0.00  0.00     0.001 A 
HETATM   40  C           1     -22.053  -8.016   1.441  0.00  0.00     0.002 A 
HETATM   41  C           1     -20.967  -8.896   1.470  0.00  0.00     0.030 A 
HETATM   42  N           1     -20.073 -10.991   0.392  0.00  0.00    -0.365 N 
HETATM   43  H           1     -19.171 -11.093   0.921  0.00  0.00     0.165 HD
HETATM   44  C           1     -20.507 -11.843  -0.588  0.00  0.00     0.096 A 
ENDBRANCH  34  35
ENDBRANCH  30  34
ENDBRANCH  28  30
ENDBRANCH  27  28
ENDBRANCH  26  27
ENDBRANCH   1  26
TORSDOF 15
ENDMDL
MODEL 7
REMARK VINA RESULT:      -7.2      2.466      8.742
REMARK  15 active torsions:
REMARK  status: ('A' for Active; 'I' for Inactive)
REMARK    1  A    between atoms: C_8  and  N_9 
REMARK    2  A    between atoms: C_8  and  C_36 
REMARK    3  A    between atoms: N_9  and  C_28 
REMARK    4  A    between atoms: N_14  and  C_15 
REMARK       I    between atoms: N_14  and  C_40 
REMARK    5  A    between atoms: C_15  and  C_16 
REMARK    6  A    between atoms: C_16  and  C_18 
REMARK    7  A    between atoms: C_18  and  C_19 
REMARK    8  A    between atoms: C_19  and  C_20 
REMARK    9  A    between atoms: C_19  and  N_26 
REMARK       I    between atoms: C_20  and  N_21 
REMARK   10  A    between atoms: N_21  and  C_35 
REMARK   11  A    between atoms: C_24  and  C_35 
REMARK       I    between atoms: N_25  and  C_40 
REMARK   12  A    between atoms: C_28  and  C_34 
REMARK   13  A    between atoms: C_28  and  C_29 
REMARK   14  A    between atoms: C_29  and  C_30 
REMARK   15  A    between atoms: C_35  and  C_36 
ROOT
HETATM    1  C           1     -20.017  -9.011  -4.260  0.00  0.00     0.187 C 
ENDROOT
BRANCH   1   2
HETATM    2  N           1     -20.673  -7.724  -4.387  0.00  0.00    -0.345 N 
HETATM    3  H           1     -21.312  -7.410  -3.668  0.00  0.00     0.163 HD
HETATM    4  C           1     -20.429  -6.936  -5.479  0.00  0.00     0.249 C 
HETATM    5  O           1     -19.667  -7.312  -6.337  0.00  0.00    -0.271 OA
BRANCH   4   6
HETATM    6  C           1     -21.113  -5.598  -5.611  0.00  0.00     0.274 C 
BRANCH   6   7
HETATM    7  C           1     -21.666  -5.446  -7.022  0.00  0.00     0.044 C 
BRANCH   7   8
HETATM    8  C           1     -21.639  -3.977  -7.424  0.00  0.00     0.023 C 
BRANCH   8   9
HETATM    9  C           1     -22.115  -3.835  -8.864  0.00  0.00     0.138 C 
BRANCH   9  10
HETATM   10  N           1     -23.527  -3.428  -8.876  0.00  0.00    -0.227 N 
HETATM   11  H           1     -23.859  -2.668  -8.232  0.00  0.00     0.177 HD
HETATM   12  C           1     -24.342  -3.991  -9.664  0.00  0.00     0.665 C 
HETATM   13  N           1     -25.558  -3.640  -9.675  0.00  0.00    -0.235 N 
HETATM   14  N           1     -23.930  -4.932 -10.462  0.00  0.00    -0.235 N 
HETATM   15  H           1     -25.891  -2.881  -9.031  0.00  0.00     0.174 HD
HETATM   16  H           1     -26.234  -4.108 -10.328  0.00  0.00     0.174 HD
HETATM   17  H           1     -22.926  -5.222 -10.453  0.00  0.00     0.174 HD
HETATM   18  H           1     -24.602  -5.398 -11.112  0.00  0.00     0.174 HD
ENDBRANCH   9  10
ENDBRANCH   8   9
ENDBRANCH   7   8
ENDBRANCH   6   7
BRANCH   6  19
HETATM   19  N           1     -20.122  -4.503  -5.344  0.00  0.00    -0.067 N 
HETATM   20  H           1     -19.780  -4.112  -6.250  0.00  0.00     0.275 HD
HETATM   21  H           1     -20.583  -3.745  -4.790  0.00  0.00     0.275 HD
HETATM   22  H           1     -19.315  -4.888  -4.804  0.00  0.00     0.275 HD
ENDBRANCH   6  19
ENDBRANCH   4   6
ENDBRANCH   1   2
BRANCH   1  23
HETATM   23  C           1     -20.963 -10.103  -4.698  0.00  0.00     0.196 C 
HETATM   24  O           1     -21.080 -10.379  -5.912  0.00  0.00    -0.646 OA
HETATM   25  O           1     -21.629 -10.731  -3.847  0.00  0.00    -0.646 OA
ENDBRANCH   1  23
BRANCH   1  26
HETATM   26  C           1     -19.618  -9.237  -2.808  0.00  0.00     0.066 C 
BRANCH  26  27
HETATM   27  C           1     -18.406 -10.157  -2.750  0.00  0.00     0.273 C 
BRANCH  27  28
HETATM   28  N           1     -18.787 -11.414  -2.164  0.00  0.00     0.098 N 
HETATM   29  H           1     -18.313 -12.175  -2.651  0.00  0.00     0.317 HD
BRANCH  28  30
HETATM   30  C           1     -18.374 -11.396  -0.786  0.00  0.00     0.324 C 
BRANCH  30  31
HETATM   31  C           1     -16.994 -11.995  -0.668  0.00  0.00     0.207 C 
HETATM   32  O           1     -16.630 -12.889  -1.462  0.00  0.00    -0.646 OA
HETATM   33  O           1     -16.213 -11.597   0.224  0.00  0.00    -0.646 OA
ENDBRANCH  30  31
BRANCH  30  34
HETATM   34  C           1     -19.354 -12.210   0.048  0.00  0.00     0.087 C 
BRANCH  34  35
HETATM   35  C           1     -20.748 -11.731  -0.209  0.00  0.00    -0.028 A 
HETATM   36  C           1     -21.292 -10.480   0.195  0.00  0.00    -0.002 A 
HETATM   37  C           1     -20.783  -9.370   0.895  0.00  0.00     0.014 A 
HETATM   38  C           1     -22.615 -10.445  -0.249  0.00  0.00     0.042 A 
HETATM   39  C           1     -21.613  -8.267   1.129  0.00  0.00     0.001 A 
HETATM   40  C           1     -22.931  -8.261   0.675  0.00  0.00     0.002 A 
HETATM   41  C           1     -23.459  -9.351  -0.023  0.00  0.00     0.030 A 
HETATM   42  N           1     -22.856 -11.636  -0.896  0.00  0.00    -0.365 N 
HETATM   43  H           1     -23.769 -11.905  -1.339  0.00  0.00     0.165 HD
HETATM   44  C           1     -21.733 -12.421  -0.877  0.00  0.00     0.096 A 
ENDBRANCH  34  35
ENDBRANCH  30  34
ENDBRANCH  28  30
ENDBRANCH  27  28
ENDBRANCH  26  27
ENDBRANCH   1  26
TORSDOF 15
ENDMDL
MODEL 8
REMARK VINA RESULT:      -7.1      2.913      9.200
REMARK  15 active torsions:
REMARK  status: ('A' for Active; 'I' for Inactive)
REMARK    1  A    between atoms: C_8  and  N_9 
REMARK    2  A    between atoms: C_8  and  C_36 
REMARK    3  A    between atoms: N_9  and  C_28 
REMARK    4  A    between atoms: N_14  and  C_15 
REMARK       I    between atoms: N_14  and  C_40 
REMARK    5  A    between atoms: C_15  and  C_16 
REMARK    6  A    between atoms: C_16  and  C_18 
REMARK    7  A    between atoms: C_18  and  C_19 
REMARK    8  A    between atoms: C_19  and  C_20 
REMARK    9  A    between atoms: C_19  and  N_26 
REMARK       I    between atoms: C_20  and  N_21 
REMARK   10  A    between atoms: N_21  and  C_35 
REMARK   11  A    between atoms: C_24  and  C_35 
REMARK       I    between atoms: N_25  and  C_40 
REMARK   12  A    between atoms: C_28  and  C_34 
REMARK   13  A    between atoms: C_28  and  C_29 
REMARK   14  A    between atoms: C_29  and  C_30 
REMARK   15  A    between atoms: C_35  and  C_36 
ROOT
HETATM    1  C           1     -20.813  -6.239  -6.781  0.00  0.00     0.187 C 
ENDROOT
BRANCH   1   2
HETATM    2  N           1     -20.531  -5.446  -7.962  0.00  0.00    -0.345 N 
HETATM    3  H           1     -19.586  -5.384  -8.315  0.00  0.00     0.163 HD
HETATM    4  C           1     -21.544  -4.780  -8.596  0.00  0.00     0.249 C 
HETATM    5  O           1     -22.673  -4.852  -8.173  0.00  0.00    -0.271 OA
BRANCH   4   6
HETATM    6  C           1     -21.251  -3.954  -9.824  0.00  0.00     0.274 C 
BRANCH   6   7
HETATM    7  C           1     -22.471  -3.946 -10.735  0.00  0.00     0.044 C 
BRANCH   7   8
HETATM    8  C           1     -22.362  -2.790 -11.722  0.00  0.00     0.023 C 
BRANCH   8   9
HETATM    9  C           1     -23.125  -3.134 -12.995  0.00  0.00     0.138 C 
BRANCH   9  10
HETATM   10  N           1     -23.823  -1.939 -13.487  0.00  0.00    -0.227 N 
HETATM   11  H           1     -24.506  -1.438 -12.867  0.00  0.00     0.177 HD
HETATM   12  C           1     -23.603  -1.512 -14.659  0.00  0.00     0.665 C 
HETATM   13  N           1     -24.204  -0.483 -15.082  0.00  0.00    -0.235 N 
HETATM   14  N           1     -22.757  -2.133 -15.427  0.00  0.00    -0.235 N 
HETATM   15  H           1     -24.887   0.019 -14.462  0.00  0.00     0.174 HD
HETATM   16  H           1     -24.021  -0.130 -16.054  0.00  0.00     0.174 HD
HETATM   17  H           1     -22.260  -2.984 -15.077  0.00  0.00     0.174 HD
HETATM   18  H           1     -22.574  -1.782 -16.394  0.00  0.00     0.174 HD
ENDBRANCH   9  10
ENDBRANCH   8   9
ENDBRANCH   7   8
ENDBRANCH   6   7
BRANCH   6  19
HETATM   19  N           1     -20.085  -4.547 -10.558  0.00  0.00    -0.067 N 
HETATM   20  H           1     -20.429  -5.085 -11.385  0.00  0.00     0.275 HD
HETATM   21  H           1     -19.451  -3.781 -10.881  0.00  0.00     0.275 HD
HETATM   22  H           1     -19.561  -5.187  -9.920  0.00  0.00     0.275 HD
ENDBRANCH   6  19
ENDBRANCH   4   6
ENDBRANCH   1   2
BRANCH   1  23
HETATM   23  C           1     -20.952  -5.328  -5.585  0.00  0.00     0.196 C 
HETATM   24  O           1     -20.116  -4.420  -5.391  0.00  0.00    -0.646 OA
HETATM   25  O           1     -21.904  -5.482  -4.790  0.00  0.00    -0.646 OA
ENDBRANCH   1  23
BRANCH   1  26
HETATM   26  C           1     -19.672  -7.219  -6.543  0.00  0.00     0.066 C 
BRANCH  26  27
HETATM   27  C           1     -19.908  -7.969  -5.239  0.00  0.00     0.273 C 
BRANCH  27  28
HETATM   28  N           1     -18.959  -9.044  -5.126  0.00  0.00     0.098 N 
HETATM   29  H           1     -18.278  -8.823  -4.400  0.00  0.00     0.317 HD
BRANCH  28  30
HETATM   30  C           1     -19.685 -10.230  -4.758  0.00  0.00     0.324 C 
BRANCH  30  31
HETATM   31  C           1     -19.663 -11.208  -5.907  0.00  0.00     0.207 C 
HETATM   32  O           1     -18.976 -10.965  -6.922  0.00  0.00    -0.646 OA
HETATM   33  O           1     -20.333 -12.262  -5.845  0.00  0.00    -0.646 OA
ENDBRANCH  30  31
BRANCH  30  34
HETATM   34  C           1     -21.126  -9.862  -4.431  0.00  0.00     0.087 C 
BRANCH  34  35
HETATM   35  C           1     -21.385 -10.099  -2.977  0.00  0.00    -0.028 A 
HETATM   36  C           1     -21.685  -9.104  -2.005  0.00  0.00    -0.002 A 
HETATM   37  C           1     -21.831  -7.705  -2.049  0.00  0.00     0.014 A 
HETATM   38  C           1     -21.852  -9.759  -0.785  0.00  0.00     0.042 A 
HETATM   39  C           1     -22.139  -7.010  -0.872  0.00  0.00     0.001 A 
HETATM   40  C           1     -22.299  -7.691   0.333  0.00  0.00     0.002 A 
HETATM   41  C           1     -22.159  -9.080   0.402  0.00  0.00     0.030 A 
HETATM   42  N           1     -21.657 -11.102  -1.016  0.00  0.00    -0.365 N 
HETATM   43  H           1     -21.717 -11.853  -0.284  0.00  0.00     0.165 HD
HETATM   44  C           1     -21.374 -11.319  -2.339  0.00  0.00     0.096 A 
ENDBRANCH  34  35
ENDBRANCH  30  34
ENDBRANCH  28  30
ENDBRANCH  27  28
ENDBRANCH  26  27
ENDBRANCH   1  26
TORSDOF 15
ENDMDL
MODEL 9
REMARK VINA RESULT:      -7.0      2.838      8.633
REMARK  15 active torsions:
REMARK  status: ('A' for Active; 'I' for Inactive)
REMARK    1  A    between atoms: C_8  and  N_9 
REMARK    2  A    between atoms: C_8  and  C_36 
REMARK    3  A    between atoms: N_9  and  C_28 
REMARK    4  A    between atoms: N_14  and  C_15 
REMARK       I    between atoms: N_14  and  C_40 
REMARK    5  A    between atoms: C_15  and  C_16 
REMARK    6  A    between atoms: C_16  and  C_18 
REMARK    7  A    between atoms: C_18  and  C_19 
REMARK    8  A    between atoms: C_19  and  C_20 
REMARK    9  A    between atoms: C_19  and  N_26 
REMARK       I    between atoms: C_20  and  N_21 
REMARK   10  A    between atoms: N_21  and  C_35 
REMARK   11  A    between atoms: C_24  and  C_35 
REMARK       I    between atoms: N_25  and  C_40 
REMARK   12  A    between atoms: C_28  and  C_34 
REMARK   13  A    between atoms: C_28  and  C_29 
REMARK   14  A    between atoms: C_29  and  C_30 
REMARK   15  A    between atoms: C_35  and  C_36 
ROOT
HETATM    1  C           1     -21.366  -7.760  -2.944  0.00  0.00     0.187 C 
ENDROOT
BRANCH   1   2
HETATM    2  N           1     -20.981  -6.705  -3.862  0.00  0.00    -0.345 N 
HETATM    3  H           1     -20.650  -5.819  -3.504  0.00  0.00     0.163 HD
HETATM    4  C           1     -21.066  -6.909  -5.213  0.00  0.00     0.249 C 
HETATM    5  O           1     -21.461  -7.967  -5.640  0.00  0.00    -0.271 OA
BRANCH   4   6
HETATM    6  C           1     -20.665  -5.813  -6.168  0.00  0.00     0.274 C 
BRANCH   6   7
HETATM    7  C           1     -21.913  -5.118  -6.697  0.00  0.00     0.044 C 
BRANCH   7   8
HETATM    8  C           1     -21.833  -5.013  -8.214  0.00  0.00     0.023 C 
BRANCH   8   9
HETATM    9  C           1     -22.380  -3.663  -8.661  0.00  0.00     0.138 C 
BRANCH   9  10
HETATM   10  N           1     -23.849  -3.691  -8.623  0.00  0.00    -0.227 N 
HETATM   11  H           1     -24.347  -3.865  -7.715  0.00  0.00     0.177 HD
HETATM   12  C           1     -24.514  -3.505  -9.684  0.00  0.00     0.665 C 
HETATM   13  N           1     -25.779  -3.529  -9.651  0.00  0.00    -0.235 N 
HETATM   14  N           1     -23.897  -3.290 -10.808  0.00  0.00    -0.235 N 
HETATM   15  H           1     -26.278  -3.703  -8.744  0.00  0.00     0.174 HD
HETATM   16  H           1     -26.330  -3.375 -10.532  0.00  0.00     0.174 HD
HETATM   17  H           1     -22.852  -3.271 -10.835  0.00  0.00     0.174 HD
HETATM   18  H           1     -24.445  -3.137 -11.684  0.00  0.00     0.174 HD
ENDBRANCH   9  10
ENDBRANCH   8   9
ENDBRANCH   7   8
ENDBRANCH   6   7
BRANCH   6  19
HETATM   19  N           1     -19.901  -6.404  -7.315  0.00  0.00    -0.067 N 
HETATM   20  H           1     -18.875  -6.293  -7.146  0.00  0.00     0.275 HD
HETATM   21  H           1     -20.131  -7.421  -7.399  0.00  0.00     0.275 HD
HETATM   22  H           1     -20.163  -5.913  -8.199  0.00  0.00     0.275 HD
ENDBRANCH   6  19
ENDBRANCH   4   6
ENDBRANCH   1   2
BRANCH   1  23
HETATM   23  C           1     -22.023  -7.152  -1.729  0.00  0.00     0.196 C 
HETATM   24  O           1     -22.224  -5.919  -1.678  0.00  0.00    -0.646 OA
HETATM   25  O           1     -22.367  -7.881  -0.774  0.00  0.00    -0.646 OA
ENDBRANCH   1  23
BRANCH   1  26
HETATM   26  C           1     -20.129  -8.538  -2.517  0.00  0.00     0.066 C 
BRANCH  26  27
HETATM   27  C           1     -20.336 -10.020  -2.801  0.00  0.00     0.273 C 
BRANCH  27  28
HETATM   28  N           1     -20.211 -10.259  -4.214  0.00  0.00     0.098 N 
HETATM   29  H           1     -20.580  -9.459  -4.728  0.00  0.00     0.317 HD
BRANCH  28  30
HETATM   30  C           1     -18.812 -10.414  -4.508  0.00  0.00     0.324 C 
BRANCH  30  31
HETATM   31  C           1     -18.569 -10.109  -5.966  0.00  0.00     0.207 C 
HETATM   32  O           1     -18.377  -8.931  -6.334  0.00  0.00    -0.646 OA
HETATM   33  O           1     -18.560 -11.036  -6.805  0.00  0.00    -0.646 OA
ENDBRANCH  30  31
BRANCH  30  34
HETATM   34  C           1     -18.387 -11.846  -4.210  0.00  0.00     0.087 C 
BRANCH  34  35
HETATM   35  C           1     -17.181 -11.835  -3.324  0.00  0.00    -0.028 A 
HETATM   36  C           1     -17.180 -11.970  -1.907  0.00  0.00    -0.002 A 
HETATM   37  C           1     -18.187 -12.142  -0.939  0.00  0.00     0.014 A 
HETATM   38  C           1     -15.850 -11.905  -1.490  0.00  0.00     0.042 A 
HETATM   39  C           1     -17.830 -12.242   0.411  0.00  0.00     0.001 A 
HETATM   40  C           1     -16.493 -12.174   0.799  0.00  0.00     0.002 A 
HETATM   41  C           1     -15.475 -12.003  -0.144  0.00  0.00     0.030 A 
HETATM   42  N           1     -15.080 -11.736  -2.618  0.00  0.00    -0.365 N 
HETATM   43  H           1     -14.033 -11.652  -2.624  0.00  0.00     0.165 HD
HETATM   44  C           1     -15.874 -11.693  -3.733  0.00  0.00     0.096 A 
ENDBRANCH  34  35
ENDBRANCH  30  34
ENDBRANCH  28  30
ENDBRANCH  27  28
ENDBRANCH  26  27
ENDBRANCH   1  26
TORSDOF 15
ENDMDL
