MODEL 1
REMARK VINA RESULT:      -6.4      0.000      0.000
REMARK  12 active torsions:
REMARK  status: ('A' for Active; 'I' for Inactive)
REMARK    1  A    between atoms: N_1  and  C_11 
REMARK    2  A    between atoms: C_2  and  C_3 
REMARK    3  A    between atoms: C_2  and  C_14 
REMARK    4  A    between atoms: C_3  and  C_4 
REMARK    5  A    between atoms: C_4  and  C_11 
REMARK    6  A    between atoms: N_5  and  C_20 
REMARK    7  A    between atoms: N_6  and  C_14 
REMARK       I    between atoms: N_6  and  C_19 
REMARK    8  A    between atoms: C_13  and  C_14 
REMARK    9  A    between atoms: C_19  and  C_20 
REMARK   10  A    between atoms: C_20  and  C_21 
REMARK   11  A    between atoms: C_21  and  C_23 
REMARK   12  A    between atoms: C_23  and  C_24 
ROOT
HETATM    1  N           1     -34.972  -2.114 -13.159  0.00  0.00    -0.345 N 
HETATM    2  O           1     -34.099  -0.992 -11.437  0.00  0.00    -0.271 OA
HETATM    3  C           1     -34.808  -0.977 -12.415  0.00  0.00     0.249 C 
HETATM    4  H           1     -35.566  -2.101 -13.978  0.00  0.00     0.163 HD
ENDROOT
BRANCH   1   5
HETATM    5  C           1     -34.295  -3.337 -12.774  0.00  0.00     0.185 C 
BRANCH   5   6
HETATM    6  C           1     -35.028  -3.974 -11.600  0.00  0.00     0.036 C 
BRANCH   6   7
HETATM    7  C           1     -34.014  -4.510 -10.598  0.00  0.00     0.004 C 
BRANCH   7   8
HETATM    8  C           1     -33.894  -6.021 -10.755  0.00  0.00     0.027 C 
BRANCH   8   9
HETATM    9  C           1     -35.008  -6.703  -9.972  0.00  0.00     0.229 C 
BRANCH   9  10
HETATM   10  N           1     -34.624  -8.126  -9.693  0.00  0.00    -0.079 N 
HETATM   11  H           1     -33.888  -8.149  -8.951  0.00  0.00     0.274 HD
HETATM   12  H           1     -35.464  -8.655  -9.367  0.00  0.00     0.274 HD
HETATM   13  H           1     -34.252  -8.564 -10.566  0.00  0.00     0.274 HD
ENDBRANCH   9  10
ENDBRANCH   8   9
ENDBRANCH   7   8
ENDBRANCH   6   7
ENDBRANCH   5   6
BRANCH   5  14
HETATM   14  C           1     -34.283  -4.295 -13.939  0.00  0.00     0.196 C 
HETATM   15  O           1     -33.548  -4.071 -14.925  0.00  0.00    -0.646 OA
HETATM   16  O           1     -35.008  -5.313 -13.919  0.00  0.00    -0.646 OA
ENDBRANCH   5  14
ENDBRANCH   1   5
BRANCH   3  17
HETATM   17  C           1     -35.512   0.296 -12.816  0.00  0.00     0.275 C 
BRANCH  17  18
HETATM   18  N           1     -34.527   1.233 -13.450  0.00  0.00    -0.066 N 
HETATM   19  H           1     -34.315   0.910 -14.421  0.00  0.00     0.275 HD
HETATM   20  H           1     -34.934   2.194 -13.484  0.00  0.00     0.275 HD
HETATM   21  H           1     -33.647   1.245 -12.887  0.00  0.00     0.275 HD
ENDBRANCH  17  18
BRANCH  17  22
HETATM   22  C           1     -36.617  -0.028 -13.812  0.00  0.00     0.053 C 
BRANCH  22  23
HETATM   23  C           1     -36.261   0.553 -15.173  0.00  0.00     0.115 C 
BRANCH  23  24
HETATM   24  C           1     -36.059  -0.567 -16.163  0.00  0.00     0.172 C 
HETATM   25  O           1     -35.037  -1.282 -16.099  0.00  0.00    -0.648 OA
HETATM   26  O           1     -36.915  -0.778 -17.051  0.00  0.00    -0.648 OA
ENDBRANCH  23  24
ENDBRANCH  22  23
ENDBRANCH  17  22
ENDBRANCH   3  17
TORSDOF 12
ENDMDL
MODEL 2
REMARK VINA RESULT:      -6.2     12.658     15.215
REMARK  12 active torsions:
REMARK  status: ('A' for Active; 'I' for Inactive)
REMARK    1  A    between atoms: N_1  and  C_11 
REMARK    2  A    between atoms: C_2  and  C_3 
REMARK    3  A    between atoms: C_2  and  C_14 
REMARK    4  A    between atoms: C_3  and  C_4 
REMARK    5  A    between atoms: C_4  and  C_11 
REMARK    6  A    between atoms: N_5  and  C_20 
REMARK    7  A    between atoms: N_6  and  C_14 
REMARK       I    between atoms: N_6  and  C_19 
REMARK    8  A    between atoms: C_13  and  C_14 
REMARK    9  A    between atoms: C_19  and  C_20 
REMARK   10  A    between atoms: C_20  and  C_21 
REMARK   11  A    between atoms: C_21  and  C_23 
REMARK   12  A    between atoms: C_23  and  C_24 
ROOT
HETATM    1  N           1     -22.253  -4.929  -9.176  0.00  0.00    -0.345 N 
HETATM    2  O           1     -21.836  -3.643  -7.399  0.00  0.00    -0.271 OA
HETATM    3  C           1     -21.780  -4.738  -7.906  0.00  0.00     0.249 C 
HETATM    4  H           1     -22.207  -5.846  -9.601  0.00  0.00     0.163 HD
ENDROOT
BRANCH   1   5
HETATM    5  C           1     -22.821  -3.817  -9.913  0.00  0.00     0.185 C 
BRANCH   5   6
HETATM    6  C           1     -22.458  -3.947 -11.387  0.00  0.00     0.036 C 
BRANCH   6   7
HETATM    7  C           1     -22.663  -2.608 -12.082  0.00  0.00     0.004 C 
BRANCH   7   8
HETATM    8  C           1     -23.780  -2.733 -13.109  0.00  0.00     0.027 C 
BRANCH   8   9
HETATM    9  C           1     -23.350  -2.072 -14.412  0.00  0.00     0.229 C 
BRANCH   9  10
HETATM   10  N           1     -24.157  -0.827 -14.632  0.00  0.00    -0.079 N 
HETATM   11  H           1     -24.823  -0.698 -13.837  0.00  0.00     0.274 HD
HETATM   12  H           1     -23.518  -0.002 -14.688  0.00  0.00     0.274 HD
HETATM   13  H           1     -24.694  -0.914 -15.524  0.00  0.00     0.274 HD
ENDBRANCH   9  10
ENDBRANCH   8   9
ENDBRANCH   7   8
ENDBRANCH   6   7
ENDBRANCH   5   6
BRANCH   5  14
HETATM   14  C           1     -24.322  -3.826  -9.761  0.00  0.00     0.196 C 
HETATM   15  O           1     -24.930  -2.766  -9.501  0.00  0.00    -0.646 OA
HETATM   16  O           1     -24.957  -4.894  -9.895  0.00  0.00    -0.646 OA
ENDBRANCH   5  14
ENDBRANCH   1   5
BRANCH   3  17
HETATM   17  C           1     -21.190  -5.895  -7.139  0.00  0.00     0.275 C 
BRANCH  17  18
HETATM   18  N           1     -19.724  -5.999  -7.443  0.00  0.00    -0.066 N 
HETATM   19  H           1     -19.543  -6.873  -7.987  0.00  0.00     0.275 HD
HETATM   20  H           1     -19.426  -5.171  -8.005  0.00  0.00     0.275 HD
HETATM   21  H           1     -19.185  -6.029  -6.548  0.00  0.00     0.275 HD
ENDBRANCH  17  18
BRANCH  17  22
HETATM   22  C           1     -21.383  -5.667  -5.646  0.00  0.00     0.053 C 
BRANCH  22  23
HETATM   23  C           1     -21.163  -6.975  -4.898  0.00  0.00     0.115 C 
BRANCH  23  24
HETATM   24  C           1     -21.490  -6.783  -3.438  0.00  0.00     0.172 C 
HETATM   25  O           1     -22.415  -6.013  -3.100  0.00  0.00    -0.648 OA
HETATM   26  O           1     -20.834  -7.393  -2.565  0.00  0.00    -0.648 OA
ENDBRANCH  23  24
ENDBRANCH  22  23
ENDBRANCH  17  22
ENDBRANCH   3  17
TORSDOF 12
ENDMDL
MODEL 3
REMARK VINA RESULT:      -6.2      3.136      5.335
REMARK  12 active torsions:
REMARK  status: ('A' for Active; 'I' for Inactive)
REMARK    1  A    between atoms: N_1  and  C_11 
REMARK    2  A    between atoms: C_2  and  C_3 
REMARK    3  A    between atoms: C_2  and  C_14 
REMARK    4  A    between atoms: C_3  and  C_4 
REMARK    5  A    between atoms: C_4  and  C_11 
REMARK    6  A    between atoms: N_5  and  C_20 
REMARK    7  A    between atoms: N_6  and  C_14 
REMARK       I    between atoms: N_6  and  C_19 
REMARK    8  A    between atoms: C_13  and  C_14 
REMARK    9  A    between atoms: C_19  and  C_20 
REMARK   10  A    between atoms: C_20  and  C_21 
REMARK   11  A    between atoms: C_21  and  C_23 
REMARK   12  A    between atoms: C_23  and  C_24 
ROOT
HETATM    1  N           1     -33.258  -4.036 -14.210  0.00  0.00    -0.345 N 
HETATM    2  O           1     -34.967  -4.912 -15.351  0.00  0.00    -0.271 OA
HETATM    3  C           1     -33.829  -4.509 -15.362  0.00  0.00     0.249 C 
HETATM    4  H           1     -32.305  -3.698 -14.220  0.00  0.00     0.163 HD
ENDROOT
BRANCH   1   5
HETATM    5  C           1     -34.021  -4.021 -12.977  0.00  0.00     0.185 C 
BRANCH   5   6
HETATM    6  C           1     -33.139  -4.494 -11.829  0.00  0.00     0.036 C 
BRANCH   6   7
HETATM    7  C           1     -34.012  -5.070 -10.721  0.00  0.00     0.004 C 
BRANCH   7   8
HETATM    8  C           1     -34.602  -6.398 -11.177  0.00  0.00     0.027 C 
BRANCH   8   9
HETATM    9  C           1     -34.731  -7.333  -9.981  0.00  0.00     0.229 C 
BRANCH   9  10
HETATM   10  N           1     -33.940  -8.581 -10.235  0.00  0.00    -0.079 N 
HETATM   11  H           1     -33.985  -8.822 -11.251  0.00  0.00     0.274 HD
HETATM   12  H           1     -32.944  -8.425  -9.959  0.00  0.00     0.274 HD
HETATM   13  H           1     -34.339  -9.367  -9.673  0.00  0.00     0.274 HD
ENDBRANCH   9  10
ENDBRANCH   8   9
ENDBRANCH   7   8
ENDBRANCH   6   7
ENDBRANCH   5   6
BRANCH   5  14
HETATM   14  C           1     -34.499  -2.617 -12.699  0.00  0.00     0.196 C 
HETATM   15  O           1     -35.344  -2.084 -13.450  0.00  0.00    -0.646 OA
HETATM   16  O           1     -34.050  -1.987 -11.717  0.00  0.00    -0.646 OA
ENDBRANCH   5  14
ENDBRANCH   1   5
BRANCH   3  17
HETATM   17  C           1     -33.035  -4.525 -16.645  0.00  0.00     0.275 C 
BRANCH  17  18
HETATM   18  N           1     -33.142  -3.186 -17.315  0.00  0.00    -0.066 N 
HETATM   19  H           1     -32.259  -2.649 -17.161  0.00  0.00     0.275 HD
HETATM   20  H           1     -33.293  -3.322 -18.340  0.00  0.00     0.275 HD
HETATM   21  H           1     -33.946  -2.658 -16.909  0.00  0.00     0.275 HD
ENDBRANCH  17  18
BRANCH  17  22
HETATM   22  C           1     -31.574  -4.821 -16.335  0.00  0.00     0.053 C 
BRANCH  22  23
HETATM   23  C           1     -30.959  -5.607 -17.485  0.00  0.00     0.115 C 
BRANCH  23  24
HETATM   24  C           1     -29.938  -6.577 -16.944  0.00  0.00     0.172 C 
HETATM   25  O           1     -29.987  -7.783 -17.269  0.00  0.00    -0.648 OA
HETATM   26  O           1     -29.043  -6.174 -16.169  0.00  0.00    -0.648 OA
ENDBRANCH  23  24
ENDBRANCH  22  23
ENDBRANCH  17  22
ENDBRANCH   3  17
TORSDOF 12
ENDMDL
MODEL 4
REMARK VINA RESULT:      -6.2     12.787     15.259
REMARK  12 active torsions:
REMARK  status: ('A' for Active; 'I' for Inactive)
REMARK    1  A    between atoms: N_1  and  C_11 
REMARK    2  A    between atoms: C_2  and  C_3 
REMARK    3  A    between atoms: C_2  and  C_14 
REMARK    4  A    between atoms: C_3  and  C_4 
REMARK    5  A    between atoms: C_4  and  C_11 
REMARK    6  A    between atoms: N_5  and  C_20 
REMARK    7  A    between atoms: N_6  and  C_14 
REMARK       I    between atoms: N_6  and  C_19 
REMARK    8  A    between atoms: C_13  and  C_14 
REMARK    9  A    between atoms: C_19  and  C_20 
REMARK   10  A    between atoms: C_20  and  C_21 
REMARK   11  A    between atoms: C_21  and  C_23 
REMARK   12  A    between atoms: C_23  and  C_24 
ROOT
HETATM    1  N           1     -22.210  -4.984  -8.708  0.00  0.00    -0.345 N 
HETATM    2  O           1     -21.356  -3.685  -7.104  0.00  0.00    -0.271 OA
HETATM    3  C           1     -21.567  -4.802  -7.513  0.00  0.00     0.249 C 
HETATM    4  H           1     -22.386  -5.919  -9.050  0.00  0.00     0.163 HD
ENDROOT
BRANCH   1   5
HETATM    5  C           1     -22.638  -3.835  -9.482  0.00  0.00     0.185 C 
BRANCH   5   6
HETATM    6  C           1     -22.012  -3.897 -10.869  0.00  0.00     0.036 C 
BRANCH   6   7
HETATM    7  C           1     -22.364  -2.633 -11.643  0.00  0.00     0.004 C 
BRANCH   7   8
HETATM    8  C           1     -22.648  -2.990 -13.097  0.00  0.00     0.027 C 
BRANCH   8   9
HETATM    9  C           1     -23.936  -3.798 -13.179  0.00  0.00     0.229 C 
BRANCH   9  10
HETATM   10  N           1     -25.057  -3.017 -12.559  0.00  0.00    -0.079 N 
HETATM   11  H           1     -25.157  -2.100 -13.049  0.00  0.00     0.274 HD
HETATM   12  H           1     -25.948  -3.557 -12.647  0.00  0.00     0.274 HD
HETATM   13  H           1     -24.848  -2.851 -11.549  0.00  0.00     0.274 HD
ENDBRANCH   9  10
ENDBRANCH   8   9
ENDBRANCH   7   8
ENDBRANCH   6   7
ENDBRANCH   5   6
BRANCH   5  14
HETATM   14  C           1     -24.142  -3.845  -9.607  0.00  0.00     0.196 C 
HETATM   15  O           1     -24.736  -4.897  -9.926  0.00  0.00    -0.646 OA
HETATM   16  O           1     -24.794  -2.801  -9.391  0.00  0.00    -0.646 OA
ENDBRANCH   5  14
ENDBRANCH   1   5
BRANCH   3  17
HETATM   17  C           1     -21.121  -5.997  -6.707  0.00  0.00     0.275 C 
BRANCH  17  18
HETATM   18  N           1     -19.711  -6.351  -7.077  0.00  0.00    -0.066 N 
HETATM   19  H           1     -19.074  -6.119  -6.281  0.00  0.00     0.275 HD
HETATM   20  H           1     -19.651  -7.373  -7.284  0.00  0.00     0.275 HD
HETATM   21  H           1     -19.425  -5.805  -7.921  0.00  0.00     0.275 HD
ENDBRANCH  17  18
BRANCH  17  22
HETATM   22  C           1     -21.188  -5.662  -5.223  0.00  0.00     0.053 C 
BRANCH  22  23
HETATM   23  C           1     -21.965  -6.748  -4.491  0.00  0.00     0.115 C 
BRANCH  23  24
HETATM   24  C           1     -21.727  -6.625  -3.006  0.00  0.00     0.172 C 
HETATM   25  O           1     -20.797  -7.263  -2.467  0.00  0.00    -0.648 OA
HETATM   26  O           1     -22.461  -5.885  -2.315  0.00  0.00    -0.648 OA
ENDBRANCH  23  24
ENDBRANCH  22  23
ENDBRANCH  17  22
ENDBRANCH   3  17
TORSDOF 12
ENDMDL
MODEL 5
REMARK VINA RESULT:      -5.9     12.846     15.311
REMARK  12 active torsions:
REMARK  status: ('A' for Active; 'I' for Inactive)
REMARK    1  A    between atoms: N_1  and  C_11 
REMARK    2  A    between atoms: C_2  and  C_3 
REMARK    3  A    between atoms: C_2  and  C_14 
REMARK    4  A    between atoms: C_3  and  C_4 
REMARK    5  A    between atoms: C_4  and  C_11 
REMARK    6  A    between atoms: N_5  and  C_20 
REMARK    7  A    between atoms: N_6  and  C_14 
REMARK       I    between atoms: N_6  and  C_19 
REMARK    8  A    between atoms: C_13  and  C_14 
REMARK    9  A    between atoms: C_19  and  C_20 
REMARK   10  A    between atoms: C_20  and  C_21 
REMARK   11  A    between atoms: C_21  and  C_23 
REMARK   12  A    between atoms: C_23  and  C_24 
ROOT
HETATM    1  N           1     -22.621  -4.721  -8.033  0.00  0.00    -0.345 N 
HETATM    2  O           1     -21.086  -3.404  -7.085  0.00  0.00    -0.271 OA
HETATM    3  C           1     -21.714  -4.435  -7.048  0.00  0.00     0.249 C 
HETATM    4  H           1     -23.147  -5.584  -8.002  0.00  0.00     0.163 HD
ENDROOT
BRANCH   1   5
HETATM    5  C           1     -22.828  -3.784  -9.120  0.00  0.00     0.185 C 
BRANCH   5   6
HETATM    6  C           1     -21.916  -4.150 -10.284  0.00  0.00     0.036 C 
BRANCH   6   7
HETATM    7  C           1     -21.850  -2.986 -11.264  0.00  0.00     0.004 C 
BRANCH   7   8
HETATM    8  C           1     -22.275  -3.459 -12.647  0.00  0.00     0.027 C 
BRANCH   8   9
HETATM    9  C           1     -23.440  -2.609 -13.139  0.00  0.00     0.229 C 
BRANCH   9  10
HETATM   10  N           1     -23.251  -2.297 -14.595  0.00  0.00    -0.079 N 
HETATM   11  H           1     -23.273  -3.184 -15.147  0.00  0.00     0.274 HD
HETATM   12  H           1     -24.021  -1.668 -14.918  0.00  0.00     0.274 HD
HETATM   13  H           1     -22.331  -1.823 -14.733  0.00  0.00     0.274 HD
ENDBRANCH   9  10
ENDBRANCH   8   9
ENDBRANCH   7   8
ENDBRANCH   6   7
ENDBRANCH   5   6
BRANCH   5  14
HETATM   14  C           1     -24.267  -3.844  -9.569  0.00  0.00     0.196 C 
HETATM   15  O           1     -24.974  -2.814  -9.544  0.00  0.00    -0.646 OA
HETATM   16  O           1     -24.753  -4.925  -9.967  0.00  0.00    -0.646 OA
ENDBRANCH   5  14
ENDBRANCH   1   5
BRANCH   3  17
HETATM   17  C           1     -21.498  -5.410  -5.916  0.00  0.00     0.275 C 
BRANCH  17  18
HETATM   18  N           1     -22.828  -5.866  -5.391  0.00  0.00    -0.066 N 
HETATM   19  H           1     -22.797  -5.897  -4.347  0.00  0.00     0.275 HD
HETATM   20  H           1     -23.571  -5.198  -5.697  0.00  0.00     0.275 HD
HETATM   21  H           1     -23.039  -6.820  -5.761  0.00  0.00     0.275 HD
ENDBRANCH  17  18
BRANCH  17  22
HETATM   22  C           1     -20.714  -6.611  -6.423  0.00  0.00     0.053 C 
BRANCH  22  23
HETATM   23  C           1     -20.167  -7.398  -5.239  0.00  0.00     0.115 C 
BRANCH  23  24
HETATM   24  C           1     -20.937  -8.687  -5.090  0.00  0.00     0.172 C 
HETATM   25  O           1     -20.632  -9.681  -5.784  0.00  0.00    -0.648 OA
HETATM   26  O           1     -21.881  -8.760  -4.274  0.00  0.00    -0.648 OA
ENDBRANCH  23  24
ENDBRANCH  22  23
ENDBRANCH  17  22
ENDBRANCH   3  17
TORSDOF 12
ENDMDL
MODEL 6
REMARK VINA RESULT:      -5.9     12.646     13.984
REMARK  12 active torsions:
REMARK  status: ('A' for Active; 'I' for Inactive)
REMARK    1  A    between atoms: N_1  and  C_11 
REMARK    2  A    between atoms: C_2  and  C_3 
REMARK    3  A    between atoms: C_2  and  C_14 
REMARK    4  A    between atoms: C_3  and  C_4 
REMARK    5  A    between atoms: C_4  and  C_11 
REMARK    6  A    between atoms: N_5  and  C_20 
REMARK    7  A    between atoms: N_6  and  C_14 
REMARK       I    between atoms: N_6  and  C_19 
REMARK    8  A    between atoms: C_13  and  C_14 
REMARK    9  A    between atoms: C_19  and  C_20 
REMARK   10  A    between atoms: C_20  and  C_21 
REMARK   11  A    between atoms: C_21  and  C_23 
REMARK   12  A    between atoms: C_23  and  C_24 
ROOT
HETATM    1  N           1     -21.936  -5.035  -8.664  0.00  0.00    -0.345 N 
HETATM    2  O           1     -23.719  -4.071  -7.727  0.00  0.00    -0.271 OA
HETATM    3  C           1     -23.227  -4.580  -8.705  0.00  0.00     0.249 C 
HETATM    4  H           1     -21.524  -5.462  -9.483  0.00  0.00     0.163 HD
ENDROOT
BRANCH   1   5
HETATM    5  C           1     -21.161  -4.906  -7.446  0.00  0.00     0.185 C 
BRANCH   5   6
HETATM    6  C           1     -21.012  -6.273  -6.791  0.00  0.00     0.036 C 
BRANCH   6   7
HETATM    7  C           1     -21.621  -6.238  -5.396  0.00  0.00     0.004 C 
BRANCH   7   8
HETATM    8  C           1     -20.769  -7.071  -4.448  0.00  0.00     0.027 C 
BRANCH   8   9
HETATM    9  C           1     -21.534  -7.307  -3.152  0.00  0.00     0.229 C 
BRANCH   9  10
HETATM   10  N           1     -22.215  -6.038  -2.735  0.00  0.00    -0.079 N 
HETATM   11  H           1     -23.177  -6.008  -3.144  0.00  0.00     0.274 HD
HETATM   12  H           1     -22.280  -6.004  -1.692  0.00  0.00     0.274 HD
HETATM   13  H           1     -21.665  -5.219  -3.077  0.00  0.00     0.274 HD
ENDBRANCH   9  10
ENDBRANCH   8   9
ENDBRANCH   7   8
ENDBRANCH   6   7
ENDBRANCH   5   6
BRANCH   5  14
HETATM   14  C           1     -19.796  -4.354  -7.775  0.00  0.00     0.196 C 
HETATM   15  O           1     -18.822  -4.612  -7.035  0.00  0.00    -0.646 OA
HETATM   16  O           1     -19.638  -3.639  -8.789  0.00  0.00    -0.646 OA
ENDBRANCH   5  14
ENDBRANCH   1   5
BRANCH   3  17
HETATM   17  C           1     -24.034  -4.715  -9.973  0.00  0.00     0.275 C 
BRANCH  17  18
HETATM   18  N           1     -25.163  -3.727  -9.953  0.00  0.00    -0.066 N 
HETATM   19  H           1     -25.375  -3.421 -10.929  0.00  0.00     0.275 HD
HETATM   20  H           1     -26.010  -4.175  -9.537  0.00  0.00     0.275 HD
HETATM   21  H           1     -24.889  -2.897  -9.380  0.00  0.00     0.275 HD
ENDBRANCH  17  18
BRANCH  17  22
HETATM   22  C           1     -23.141  -4.441 -11.175  0.00  0.00     0.053 C 
BRANCH  22  23
HETATM   23  C           1     -23.214  -2.964 -11.537  0.00  0.00     0.115 C 
BRANCH  23  24
HETATM   24  C           1     -23.781  -2.812 -12.927  0.00  0.00     0.172 C 
HETATM   25  O           1     -23.016  -2.622 -13.897  0.00  0.00    -0.648 OA
HETATM   26  O           1     -25.016  -2.875 -13.108  0.00  0.00    -0.648 OA
ENDBRANCH  23  24
ENDBRANCH  22  23
ENDBRANCH  17  22
ENDBRANCH   3  17
TORSDOF 12
ENDMDL
MODEL 7
REMARK VINA RESULT:      -5.8     14.124     16.864
REMARK  12 active torsions:
REMARK  status: ('A' for Active; 'I' for Inactive)
REMARK    1  A    between atoms: N_1  and  C_11 
REMARK    2  A    between atoms: C_2  and  C_3 
REMARK    3  A    between atoms: C_2  and  C_14 
REMARK    4  A    between atoms: C_3  and  C_4 
REMARK    5  A    between atoms: C_4  and  C_11 
REMARK    6  A    between atoms: N_5  and  C_20 
REMARK    7  A    between atoms: N_6  and  C_14 
REMARK       I    between atoms: N_6  and  C_19 
REMARK    8  A    between atoms: C_13  and  C_14 
REMARK    9  A    between atoms: C_19  and  C_20 
REMARK   10  A    between atoms: C_20  and  C_21 
REMARK   11  A    between atoms: C_21  and  C_23 
REMARK   12  A    between atoms: C_23  and  C_24 
ROOT
HETATM    1  N           1     -21.596  -5.713  -5.801  0.00  0.00    -0.345 N 
HETATM    2  O           1     -21.120  -7.848  -6.253  0.00  0.00    -0.271 OA
HETATM    3  C           1     -21.502  -7.033  -5.448  0.00  0.00     0.249 C 
HETATM    4  H           1     -21.916  -5.030  -5.127  0.00  0.00     0.163 HD
ENDROOT
BRANCH   1   5
HETATM    5  C           1     -21.238  -5.295  -7.142  0.00  0.00     0.185 C 
BRANCH   5   6
HETATM    6  C           1     -22.278  -4.312  -7.662  0.00  0.00     0.036 C 
BRANCH   6   7
HETATM    7  C           1     -22.765  -4.764  -9.032  0.00  0.00     0.004 C 
BRANCH   7   8
HETATM    8  C           1     -22.850  -3.562  -9.964  0.00  0.00     0.027 C 
BRANCH   8   9
HETATM    9  C           1     -24.309  -3.278 -10.297  0.00  0.00     0.229 C 
BRANCH   9  10
HETATM   10  N           1     -25.181  -4.302  -9.633  0.00  0.00    -0.079 N 
HETATM   11  H           1     -25.945  -4.587 -10.287  0.00  0.00     0.274 HD
HETATM   12  H           1     -24.607  -5.139  -9.384  0.00  0.00     0.274 HD
HETATM   13  H           1     -25.599  -3.894  -8.766  0.00  0.00     0.274 HD
ENDBRANCH   9  10
ENDBRANCH   8   9
ENDBRANCH   7   8
ENDBRANCH   6   7
ENDBRANCH   5   6
BRANCH   5  14
HETATM   14  C           1     -19.884  -4.629  -7.117  0.00  0.00     0.196 C 
HETATM   15  O           1     -19.239  -4.564  -6.048  0.00  0.00    -0.646 OA
HETATM   16  O           1     -19.407  -4.142  -8.165  0.00  0.00    -0.646 OA
ENDBRANCH   5  14
ENDBRANCH   1   5
BRANCH   3  17
HETATM   17  C           1     -21.875  -7.468  -4.052  0.00  0.00     0.275 C 
BRANCH  17  18
HETATM   18  N           1     -21.397  -8.872  -3.822  0.00  0.00    -0.066 N 
HETATM   19  H           1     -20.814  -8.903  -2.956  0.00  0.00     0.275 HD
HETATM   20  H           1     -22.220  -9.505  -3.711  0.00  0.00     0.275 HD
HETATM   21  H           1     -20.823  -9.182  -4.639  0.00  0.00     0.275 HD
ENDBRANCH  17  18
BRANCH  17  22
HETATM   22  C           1     -21.223  -6.538  -3.038  0.00  0.00     0.053 C 
BRANCH  22  23
HETATM   23  C           1     -22.234  -6.170  -1.961  0.00  0.00     0.115 C 
BRANCH  23  24
HETATM   24  C           1     -22.191  -7.197  -0.857  0.00  0.00     0.172 C 
HETATM   25  O           1     -21.180  -7.917  -0.711  0.00  0.00    -0.648 OA
HETATM   26  O           1     -23.169  -7.330  -0.089  0.00  0.00    -0.648 OA
ENDBRANCH  23  24
ENDBRANCH  22  23
ENDBRANCH  17  22
ENDBRANCH   3  17
TORSDOF 12
ENDMDL
MODEL 8
REMARK VINA RESULT:      -5.8      9.056     11.114
REMARK  12 active torsions:
REMARK  status: ('A' for Active; 'I' for Inactive)
REMARK    1  A    between atoms: N_1  and  C_11 
REMARK    2  A    between atoms: C_2  and  C_3 
REMARK    3  A    between atoms: C_2  and  C_14 
REMARK    4  A    between atoms: C_3  and  C_4 
REMARK    5  A    between atoms: C_4  and  C_11 
REMARK    6  A    between atoms: N_5  and  C_20 
REMARK    7  A    between atoms: N_6  and  C_14 
REMARK       I    between atoms: N_6  and  C_19 
REMARK    8  A    between atoms: C_13  and  C_14 
REMARK    9  A    between atoms: C_19  and  C_20 
REMARK   10  A    between atoms: C_20  and  C_21 
REMARK   11  A    between atoms: C_21  and  C_23 
REMARK   12  A    between atoms: C_23  and  C_24 
ROOT
HETATM    1  N           1     -27.261  -6.647 -17.846  0.00  0.00    -0.345 N 
HETATM    2  O           1     -25.895  -5.863 -16.262  0.00  0.00    -0.271 OA
HETATM    3  C           1     -26.018  -6.324 -17.372  0.00  0.00     0.249 C 
HETATM    4  H           1     -27.363  -7.033 -18.775  0.00  0.00     0.163 HD
ENDROOT
BRANCH   1   5
HETATM    5  C           1     -28.430  -6.436 -17.015  0.00  0.00     0.185 C 
BRANCH   5   6
HETATM    6  C           1     -29.652  -6.231 -17.901  0.00  0.00     0.036 C 
BRANCH   6   7
HETATM    7  C           1     -30.878  -5.991 -17.030  0.00  0.00     0.004 C 
BRANCH   7   8
HETATM    8  C           1     -31.329  -4.544 -17.174  0.00  0.00     0.027 C 
BRANCH   8   9
HETATM    9  C           1     -32.741  -4.395 -16.624  0.00  0.00     0.229 C 
BRANCH   9  10
HETATM   10  N           1     -33.439  -3.272 -17.333  0.00  0.00    -0.079 N 
HETATM   11  H           1     -32.734  -2.681 -17.829  0.00  0.00     0.274 HD
HETATM   12  H           1     -34.114  -3.664 -18.027  0.00  0.00     0.274 HD
HETATM   13  H           1     -33.954  -2.688 -16.637  0.00  0.00     0.274 HD
ENDBRANCH   9  10
ENDBRANCH   8   9
ENDBRANCH   7   8
ENDBRANCH   6   7
ENDBRANCH   5   6
BRANCH   5  14
HETATM   14  C           1     -28.644  -7.641 -16.133  0.00  0.00     0.196 C 
HETATM   15  O           1     -29.267  -8.633 -16.569  0.00  0.00    -0.646 OA
HETATM   16  O           1     -28.198  -7.648 -14.965  0.00  0.00    -0.646 OA
ENDBRANCH   5  14
ENDBRANCH   1   5
BRANCH   3  17
HETATM   17  C           1     -24.801  -6.543 -18.237  0.00  0.00     0.275 C 
BRANCH  17  18
HETATM   18  N           1     -24.049  -7.745 -17.745  0.00  0.00    -0.066 N 
HETATM   19  H           1     -24.727  -8.489 -17.465  0.00  0.00     0.275 HD
HETATM   20  H           1     -23.432  -8.105 -18.508  0.00  0.00     0.275 HD
HETATM   21  H           1     -23.466  -7.477 -16.920  0.00  0.00     0.275 HD
ENDBRANCH  17  18
BRANCH  17  22
HETATM   22  C           1     -25.236  -6.772 -19.678  0.00  0.00     0.053 C 
BRANCH  22  23
HETATM   23  C           1     -24.233  -7.681 -20.374  0.00  0.00     0.115 C 
BRANCH  23  24
HETATM   24  C           1     -24.823  -8.187 -21.667  0.00  0.00     0.172 C 
HETATM   25  O           1     -26.013  -8.568 -21.705  0.00  0.00    -0.648 OA
HETATM   26  O           1     -24.121  -8.228 -22.701  0.00  0.00    -0.648 OA
ENDBRANCH  23  24
ENDBRANCH  22  23
ENDBRANCH  17  22
ENDBRANCH   3  17
TORSDOF 12
ENDMDL
MODEL 9
REMARK VINA RESULT:      -5.8     13.324     14.741
REMARK  12 active torsions:
REMARK  status: ('A' for Active; 'I' for Inactive)
REMARK    1  A    between atoms: N_1  and  C_11 
REMARK    2  A    between atoms: C_2  and  C_3 
REMARK    3  A    between atoms: C_2  and  C_14 
REMARK    4  A    between atoms: C_3  and  C_4 
REMARK    5  A    between atoms: C_4  and  C_11 
REMARK    6  A    between atoms: N_5  and  C_20 
REMARK    7  A    between atoms: N_6  and  C_14 
REMARK       I    between atoms: N_6  and  C_19 
REMARK    8  A    between atoms: C_13  and  C_14 
REMARK    9  A    between atoms: C_19  and  C_20 
REMARK   10  A    between atoms: C_20  and  C_21 
REMARK   11  A    between atoms: C_21  and  C_23 
REMARK   12  A    between atoms: C_23  and  C_24 
ROOT
HETATM    1  N           1     -22.194  -5.567  -7.006  0.00  0.00    -0.345 N 
HETATM    2  O           1     -21.547  -3.469  -7.413  0.00  0.00    -0.271 OA
HETATM    3  C           1     -22.229  -4.411  -7.738  0.00  0.00     0.249 C 
HETATM    4  H           1     -22.766  -6.356  -7.279  0.00  0.00     0.163 HD
ENDROOT
BRANCH   1   5
HETATM    5  C           1     -21.339  -5.661  -5.839  0.00  0.00     0.185 C 
BRANCH   5   6
HETATM    6  C           1     -22.051  -6.451  -4.750  0.00  0.00     0.036 C 
BRANCH   6   7
HETATM    7  C           1     -21.440  -6.116  -3.396  0.00  0.00     0.004 C 
BRANCH   7   8
HETATM    8  C           1     -21.707  -7.256  -2.421  0.00  0.00     0.027 C 
BRANCH   8   9
HETATM    9  C           1     -20.384  -7.876  -1.991  0.00  0.00     0.229 C 
BRANCH   9  10
HETATM   10  N           1     -19.877  -8.777  -3.078  0.00  0.00    -0.079 N 
HETATM   11  H           1     -18.924  -9.123  -2.828  0.00  0.00     0.274 HD
HETATM   12  H           1     -20.525  -9.590  -3.187  0.00  0.00     0.274 HD
HETATM   13  H           1     -19.831  -8.246  -3.977  0.00  0.00     0.274 HD
ENDBRANCH   9  10
ENDBRANCH   8   9
ENDBRANCH   7   8
ENDBRANCH   6   7
ENDBRANCH   5   6
BRANCH   5  14
HETATM   14  C           1     -20.055  -6.360  -6.212  0.00  0.00     0.196 C 
HETATM   15  O           1     -19.888  -7.562  -5.913  0.00  0.00    -0.646 OA
HETATM   16  O           1     -19.157  -5.737  -6.820  0.00  0.00    -0.646 OA
ENDBRANCH   5  14
ENDBRANCH   1   5
BRANCH   3  17
HETATM   17  C           1     -23.120  -4.314  -8.953  0.00  0.00     0.275 C 
BRANCH  17  18
HETATM   18  N           1     -24.357  -3.540  -8.603  0.00  0.00    -0.066 N 
HETATM   19  H           1     -25.196  -4.041  -8.974  0.00  0.00     0.275 HD
HETATM   20  H           1     -24.433  -3.456  -7.565  0.00  0.00     0.275 HD
HETATM   21  H           1     -24.303  -2.588  -9.030  0.00  0.00     0.275 HD
ENDBRANCH  17  18
BRANCH  17  22
HETATM   22  C           1     -22.375  -3.602 -10.073  0.00  0.00     0.053 C 
BRANCH  22  23
HETATM   23  C           1     -22.844  -4.139 -11.418  0.00  0.00     0.115 C 
BRANCH  23  24
HETATM   24  C           1     -23.839  -3.180 -12.025  0.00  0.00     0.172 C 
HETATM   25  O           1     -23.504  -2.459 -12.990  0.00  0.00    -0.648 OA
HETATM   26  O           1     -24.998  -3.106 -11.562  0.00  0.00    -0.648 OA
ENDBRANCH  23  24
ENDBRANCH  22  23
ENDBRANCH  17  22
ENDBRANCH   3  17
TORSDOF 12
ENDMDL
