MODEL 1
REMARK VINA RESULT:      -6.4      0.000      0.000
REMARK  8 active torsions:
REMARK  status: ('A' for Active; 'I' for Inactive)
REMARK    1  A    between atoms: N_2  and  C_12 
REMARK       I    between atoms: N_2  and  C_3 
REMARK    2  A    between atoms: C_3  and  C_4 
REMARK    3  A    between atoms: C_4  and  C_5 
REMARK    4  A    between atoms: C_4  and  N_15 
REMARK    5  A    between atoms: C_5  and  C_6 
REMARK       I    between atoms: C_6  and  N_7 
REMARK    6  A    between atoms: C_9  and  C_11 
REMARK    7  A    between atoms: C_11  and  C_12 
REMARK    8  A    between atoms: C_12  and  C_13 
ROOT
HETATM    1  N           1     -22.455  -3.921 -11.181  0.00  0.00    -0.344 N 
HETATM    2  C           1     -22.498  -2.907 -12.100  0.00  0.00     0.249 C 
HETATM    3  O           1     -22.051  -1.820 -11.821  0.00  0.00    -0.271 OA
HETATM    4  H           1     -22.829  -4.831 -11.415  0.00  0.00     0.163 HD
ENDROOT
BRANCH   2   5
HETATM    5  C           1     -23.101  -3.147 -13.463  0.00  0.00     0.283 C 
BRANCH   5   6
HETATM    6  C           1     -23.958  -1.951 -13.857  0.00  0.00     0.145 C 
BRANCH   6   7
HETATM    7  C           1     -23.408  -1.332 -15.118  0.00  0.00     0.217 C 
HETATM    8  N           1     -23.923  -0.152 -15.582  0.00  0.00    -0.370 N 
HETATM    9  H           1     -23.554   0.264 -16.428  0.00  0.00     0.159 HD
HETATM   10  H           1     -24.673   0.305 -15.080  0.00  0.00     0.159 HD
HETATM   11  O           1     -22.513  -1.877 -15.718  0.00  0.00    -0.274 OA
ENDBRANCH   6   7
ENDBRANCH   5   6
BRANCH   5  12
HETATM   12  N           1     -23.955  -4.380 -13.420  0.00  0.00    -0.066 N 
HETATM   13  H           1     -23.539  -5.113 -14.037  0.00  0.00     0.275 HD
HETATM   14  H           1     -24.002  -4.737 -12.439  0.00  0.00     0.275 HD
HETATM   15  H           1     -24.918  -4.148 -13.753  0.00  0.00     0.275 HD
ENDBRANCH   5  12
ENDBRANCH   2   5
BRANCH   1  16
HETATM   16  C           1     -21.876  -3.690  -9.872  0.00  0.00     0.195 C 
BRANCH  16  17
HETATM   17  C           1     -22.911  -3.995  -8.798  0.00  0.00     0.149 C 
BRANCH  17  18
HETATM   18  C           1     -24.295  -3.922  -9.397  0.00  0.00     0.175 C 
HETATM   19  O           1     -24.844  -4.959  -9.827  0.00  0.00    -0.648 OA
HETATM   20  O           1     -24.891  -2.826  -9.462  0.00  0.00    -0.648 OA
ENDBRANCH  17  18
ENDBRANCH  16  17
BRANCH  16  21
HETATM   21  C           1     -20.678  -4.590  -9.689  0.00  0.00     0.197 C 
HETATM   22  O           1     -20.425  -5.070  -8.563  0.00  0.00    -0.646 OA
HETATM   23  O           1     -19.940  -4.855 -10.661  0.00  0.00    -0.646 OA
ENDBRANCH  16  21
ENDBRANCH   1  16
TORSDOF 8
ENDMDL
MODEL 2
REMARK VINA RESULT:      -6.1      2.907      6.267
REMARK  8 active torsions:
REMARK  status: ('A' for Active; 'I' for Inactive)
REMARK    1  A    between atoms: N_2  and  C_12 
REMARK       I    between atoms: N_2  and  C_3 
REMARK    2  A    between atoms: C_3  and  C_4 
REMARK    3  A    between atoms: C_4  and  C_5 
REMARK    4  A    between atoms: C_4  and  N_15 
REMARK    5  A    between atoms: C_5  and  C_6 
REMARK       I    between atoms: C_6  and  N_7 
REMARK    6  A    between atoms: C_9  and  C_11 
REMARK    7  A    between atoms: C_11  and  C_12 
REMARK    8  A    between atoms: C_12  and  C_13 
ROOT
HETATM    1  N           1     -22.210  -3.963  -9.452  0.00  0.00    -0.344 N 
HETATM    2  C           1     -21.361  -4.411  -8.475  0.00  0.00     0.249 C 
HETATM    3  O           1     -20.422  -5.112  -8.767  0.00  0.00    -0.271 OA
HETATM    4  H           1     -22.997  -3.376  -9.208  0.00  0.00     0.163 HD
ENDROOT
BRANCH   2   5
HETATM    5  C           1     -21.599  -4.027  -7.035  0.00  0.00     0.283 C 
BRANCH   5   6
HETATM    6  C           1     -20.596  -4.750  -6.145  0.00  0.00     0.145 C 
BRANCH   6   7
HETATM    7  C           1     -21.219  -6.014  -5.608  0.00  0.00     0.217 C 
HETATM    8  N           1     -21.040  -7.199  -6.269  0.00  0.00    -0.370 N 
HETATM    9  H           1     -21.458  -8.048  -5.909  0.00  0.00     0.159 HD
HETATM   10  H           1     -20.490  -7.228  -7.118  0.00  0.00     0.159 HD
HETATM   11  O           1     -21.876  -5.982  -4.595  0.00  0.00    -0.274 OA
ENDBRANCH   6   7
ENDBRANCH   5   6
BRANCH   5  12
HETATM   12  N           1     -22.991  -4.418  -6.637  0.00  0.00    -0.066 N 
HETATM   13  H           1     -23.527  -3.565  -6.361  0.00  0.00     0.275 HD
HETATM   14  H           1     -23.467  -4.881  -7.445  0.00  0.00     0.275 HD
HETATM   15  H           1     -22.950  -5.081  -5.831  0.00  0.00     0.275 HD
ENDBRANCH   5  12
ENDBRANCH   2   5
BRANCH   1  16
HETATM   16  C           1     -21.982  -4.332 -10.836  0.00  0.00     0.195 C 
BRANCH  16  17
HETATM   17  C           1     -23.299  -4.762 -11.469  0.00  0.00     0.149 C 
BRANCH  17  18
HETATM   18  C           1     -24.450  -4.232 -10.651  0.00  0.00     0.175 C 
HETATM   19  O           1     -24.954  -3.122 -10.928  0.00  0.00    -0.648 OA
HETATM   20  O           1     -24.898  -4.901  -9.696  0.00  0.00    -0.648 OA
ENDBRANCH  17  18
ENDBRANCH  16  17
BRANCH  16  21
HETATM   21  C           1     -21.426  -3.146 -11.586  0.00  0.00     0.197 C 
HETATM   22  O           1     -20.285  -2.715 -11.314  0.00  0.00    -0.646 OA
HETATM   23  O           1     -22.107  -2.594 -12.476  0.00  0.00    -0.646 OA
ENDBRANCH  16  21
ENDBRANCH   1  16
TORSDOF 8
ENDMDL
MODEL 3
REMARK VINA RESULT:      -6.0      3.391      7.239
REMARK  8 active torsions:
REMARK  status: ('A' for Active; 'I' for Inactive)
REMARK    1  A    between atoms: N_2  and  C_12 
REMARK       I    between atoms: N_2  and  C_3 
REMARK    2  A    between atoms: C_3  and  C_4 
REMARK    3  A    between atoms: C_4  and  C_5 
REMARK    4  A    between atoms: C_4  and  N_15 
REMARK    5  A    between atoms: C_5  and  C_6 
REMARK       I    between atoms: C_6  and  N_7 
REMARK    6  A    between atoms: C_9  and  C_11 
REMARK    7  A    between atoms: C_11  and  C_12 
REMARK    8  A    between atoms: C_12  and  C_13 
ROOT
HETATM    1  N           1     -22.293  -4.870  -8.870  0.00  0.00    -0.344 N 
HETATM    2  C           1     -21.728  -4.639  -7.645  0.00  0.00     0.249 C 
HETATM    3  O           1     -21.642  -3.511  -7.223  0.00  0.00    -0.271 OA
HETATM    4  H           1     -22.365  -5.816  -9.224  0.00  0.00     0.163 HD
ENDROOT
BRANCH   2   5
HETATM    5  C           1     -21.213  -5.794  -6.821  0.00  0.00     0.283 C 
BRANCH   5   6
HETATM    6  C           1     -21.031  -5.347  -5.376  0.00  0.00     0.145 C 
BRANCH   6   7
HETATM    7  C           1     -21.547  -6.419  -4.449  0.00  0.00     0.217 C 
HETATM    8  N           1     -21.929  -6.095  -3.174  0.00  0.00    -0.370 N 
HETATM    9  H           1     -22.275  -6.815  -2.552  0.00  0.00     0.159 HD
HETATM   10  H           1     -21.865  -5.138  -2.855  0.00  0.00     0.159 HD
HETATM   11  O           1     -21.624  -7.562  -4.830  0.00  0.00    -0.274 OA
ENDBRANCH   6   7
ENDBRANCH   5   6
BRANCH   5  12
HETATM   12  N           1     -19.895  -6.252  -7.371  0.00  0.00    -0.066 N 
HETATM   13  H           1     -19.351  -5.425  -7.707  0.00  0.00     0.275 HD
HETATM   14  H           1     -19.356  -6.741  -6.621  0.00  0.00     0.275 HD
HETATM   15  H           1     -20.059  -6.909  -8.167  0.00  0.00     0.275 HD
ENDBRANCH   5  12
ENDBRANCH   2   5
BRANCH   1  16
HETATM   16  C           1     -22.787  -3.761  -9.662  0.00  0.00     0.195 C 
BRANCH  16  17
HETATM   17  C           1     -22.244  -3.869 -11.081  0.00  0.00     0.149 C 
BRANCH  17  18
HETATM   18  C           1     -20.743  -3.721 -11.058  0.00  0.00     0.175 C 
HETATM   19  O           1     -20.220  -2.616 -11.317  0.00  0.00    -0.648 OA
HETATM   20  O           1     -20.022  -4.704 -10.781  0.00  0.00    -0.648 OA
ENDBRANCH  17  18
ENDBRANCH  16  17
BRANCH  16  21
HETATM   21  C           1     -24.295  -3.802  -9.695  0.00  0.00     0.197 C 
HETATM   22  O           1     -24.952  -2.751  -9.529  0.00  0.00    -0.646 OA
HETATM   23  O           1     -24.888  -4.885  -9.888  0.00  0.00    -0.646 OA
ENDBRANCH  16  21
ENDBRANCH   1  16
TORSDOF 8
ENDMDL
MODEL 4
REMARK VINA RESULT:      -5.9      2.918      4.395
REMARK  8 active torsions:
REMARK  status: ('A' for Active; 'I' for Inactive)
REMARK    1  A    between atoms: N_2  and  C_12 
REMARK       I    between atoms: N_2  and  C_3 
REMARK    2  A    between atoms: C_3  and  C_4 
REMARK    3  A    between atoms: C_4  and  C_5 
REMARK    4  A    between atoms: C_4  and  N_15 
REMARK    5  A    between atoms: C_5  and  C_6 
REMARK       I    between atoms: C_6  and  N_7 
REMARK    6  A    between atoms: C_9  and  C_11 
REMARK    7  A    between atoms: C_11  and  C_12 
REMARK    8  A    between atoms: C_12  and  C_13 
ROOT
HETATM    1  N           1     -22.135  -4.882  -7.264  0.00  0.00    -0.344 N 
HETATM    2  C           1     -22.519  -4.089  -8.313  0.00  0.00     0.249 C 
HETATM    3  O           1     -21.822  -3.164  -8.656  0.00  0.00    -0.271 OA
HETATM    4  H           1     -22.719  -5.657  -6.976  0.00  0.00     0.163 HD
ENDROOT
BRANCH   2   5
HETATM    5  C           1     -23.811  -4.371  -9.040  0.00  0.00     0.283 C 
BRANCH   5   6
HETATM    6  C           1     -23.514  -4.690 -10.499  0.00  0.00     0.145 C 
BRANCH   6   7
HETATM    7  C           1     -23.758  -3.462 -11.342  0.00  0.00     0.217 C 
HETATM    8  N           1     -22.711  -2.649 -11.686  0.00  0.00    -0.370 N 
HETATM    9  H           1     -22.875  -1.826 -12.251  0.00  0.00     0.159 HD
HETATM   10  H           1     -21.775  -2.871 -11.375  0.00  0.00     0.159 HD
HETATM   11  O           1     -24.876  -3.196 -11.713  0.00  0.00    -0.274 OA
ENDBRANCH   6   7
ENDBRANCH   5   6
BRANCH   5  12
HETATM   12  N           1     -24.701  -3.166  -8.963  0.00  0.00    -0.066 N 
HETATM   13  H           1     -25.428  -3.316  -8.228  0.00  0.00     0.275 HD
HETATM   14  H           1     -24.129  -2.326  -8.720  0.00  0.00     0.275 HD
HETATM   15  H           1     -25.165  -3.017  -9.887  0.00  0.00     0.275 HD
ENDBRANCH   5  12
ENDBRANCH   2   5
BRANCH   1  16
HETATM   16  C           1     -20.894  -4.611  -6.566  0.00  0.00     0.195 C 
BRANCH  16  17
HETATM   17  C           1     -20.906  -5.319  -5.217  0.00  0.00     0.149 C 
BRANCH  17  18
HETATM   18  C           1     -21.967  -6.392  -5.221  0.00  0.00     0.175 C 
HETATM   19  O           1     -23.140  -6.113  -4.891  0.00  0.00    -0.648 OA
HETATM   20  O           1     -21.672  -7.560  -5.553  0.00  0.00    -0.648 OA
ENDBRANCH  17  18
ENDBRANCH  16  17
BRANCH  16  21
HETATM   21  C           1     -19.735  -5.115  -7.389  0.00  0.00     0.197 C 
HETATM   22  O           1     -19.767  -6.267  -7.873  0.00  0.00    -0.646 OA
HETATM   23  O           1     -18.742  -4.382  -7.587  0.00  0.00    -0.646 OA
ENDBRANCH  16  21
ENDBRANCH   1  16
TORSDOF 8
ENDMDL
MODEL 5
REMARK VINA RESULT:      -5.6      2.958      6.564
REMARK  8 active torsions:
REMARK  status: ('A' for Active; 'I' for Inactive)
REMARK    1  A    between atoms: N_2  and  C_12 
REMARK       I    between atoms: N_2  and  C_3 
REMARK    2  A    between atoms: C_3  and  C_4 
REMARK    3  A    between atoms: C_4  and  C_5 
REMARK    4  A    between atoms: C_4  and  N_15 
REMARK    5  A    between atoms: C_5  and  C_6 
REMARK       I    between atoms: C_6  and  N_7 
REMARK    6  A    between atoms: C_9  and  C_11 
REMARK    7  A    between atoms: C_11  and  C_12 
REMARK    8  A    between atoms: C_12  and  C_13 
ROOT
HETATM    1  N           1     -21.995  -4.712  -9.545  0.00  0.00    -0.344 N 
HETATM    2  C           1     -21.455  -4.225  -8.385  0.00  0.00     0.249 C 
HETATM    3  O           1     -21.677  -3.086  -8.047  0.00  0.00    -0.271 OA
HETATM    4  H           1     -21.810  -5.666  -9.828  0.00  0.00     0.163 HD
ENDROOT
BRANCH   2   5
HETATM    5  C           1     -20.585  -5.110  -7.527  0.00  0.00     0.283 C 
BRANCH   5   6
HETATM    6  C           1     -21.043  -5.023  -6.078  0.00  0.00     0.145 C 
BRANCH   6   7
HETATM    7  C           1     -21.609  -6.354  -5.648  0.00  0.00     0.217 C 
HETATM    8  N           1     -22.546  -6.409  -4.652  0.00  0.00    -0.370 N 
HETATM    9  H           1     -22.927  -7.302  -4.363  0.00  0.00     0.159 HD
HETATM   10  H           1     -22.859  -5.558  -4.204  0.00  0.00     0.159 HD
HETATM   11  O           1     -21.236  -7.371  -6.182  0.00  0.00    -0.274 OA
ENDBRANCH   6   7
ENDBRANCH   5   6
BRANCH   5  12
HETATM   12  N           1     -19.158  -4.657  -7.628  0.00  0.00    -0.066 N 
HETATM   13  H           1     -18.535  -5.488  -7.743  0.00  0.00     0.275 HD
HETATM   14  H           1     -19.052  -4.025  -8.454  0.00  0.00     0.275 HD
HETATM   15  H           1     -18.895  -4.140  -6.759  0.00  0.00     0.275 HD
ENDBRANCH   5  12
ENDBRANCH   2   5
BRANCH   1  16
HETATM   16  C           1     -22.832  -3.862 -10.369  0.00  0.00     0.195 C 
BRANCH  16  17
HETATM   17  C           1     -22.772  -4.339 -11.814  0.00  0.00     0.149 C 
BRANCH  17  18
HETATM   18  C           1     -23.499  -3.357 -12.700  0.00  0.00     0.175 C 
HETATM   19  O           1     -24.410  -3.754 -13.457  0.00  0.00    -0.648 OA
HETATM   20  O           1     -23.189  -2.146 -12.676  0.00  0.00    -0.648 OA
ENDBRANCH  17  18
ENDBRANCH  16  17
BRANCH  16  21
HETATM   21  C           1     -24.256  -3.928  -9.874  0.00  0.00     0.197 C 
HETATM   22  O           1     -24.842  -5.030  -9.804  0.00  0.00    -0.646 OA
HETATM   23  O           1     -24.849  -2.882  -9.535  0.00  0.00    -0.646 OA
ENDBRANCH  16  21
ENDBRANCH   1  16
TORSDOF 8
ENDMDL
MODEL 6
REMARK VINA RESULT:      -5.5      5.332      7.757
REMARK  8 active torsions:
REMARK  status: ('A' for Active; 'I' for Inactive)
REMARK    1  A    between atoms: N_2  and  C_12 
REMARK       I    between atoms: N_2  and  C_3 
REMARK    2  A    between atoms: C_3  and  C_4 
REMARK    3  A    between atoms: C_4  and  C_5 
REMARK    4  A    between atoms: C_4  and  N_15 
REMARK    5  A    between atoms: C_5  and  C_6 
REMARK       I    between atoms: C_6  and  N_7 
REMARK    6  A    between atoms: C_9  and  C_11 
REMARK    7  A    between atoms: C_11  and  C_12 
REMARK    8  A    between atoms: C_12  and  C_13 
ROOT
HETATM    1  N           1     -20.911  -6.739  -4.751  0.00  0.00    -0.344 N 
HETATM    2  C           1     -21.500  -5.850  -5.610  0.00  0.00     0.249 C 
HETATM    3  O           1     -22.696  -5.685  -5.582  0.00  0.00    -0.271 OA
HETATM    4  H           1     -19.909  -6.877  -4.775  0.00  0.00     0.163 HD
ENDROOT
BRANCH   2   5
HETATM    5  C           1     -20.654  -5.075  -6.591  0.00  0.00     0.283 C 
BRANCH   5   6
HETATM    6  C           1     -21.328  -3.745  -6.903  0.00  0.00     0.145 C 
BRANCH   6   7
HETATM    7  C           1     -22.215  -3.902  -8.113  0.00  0.00     0.217 C 
HETATM    8  N           1     -23.550  -4.161  -7.954  0.00  0.00    -0.370 N 
HETATM    9  H           1     -24.145  -4.266  -8.766  0.00  0.00     0.159 HD
HETATM   10  H           1     -23.941  -4.247  -7.026  0.00  0.00     0.159 HD
HETATM   11  O           1     -21.748  -3.799  -9.222  0.00  0.00    -0.274 OA
ENDBRANCH   6   7
ENDBRANCH   5   6
BRANCH   5  12
HETATM   12  N           1     -20.504  -5.867  -7.856  0.00  0.00    -0.066 N 
HETATM   13  H           1     -21.449  -6.082  -8.247  0.00  0.00     0.275 HD
HETATM   14  H           1     -19.959  -5.310  -8.552  0.00  0.00     0.275 HD
HETATM   15  H           1     -20.000  -6.758  -7.651  0.00  0.00     0.275 HD
ENDBRANCH   5  12
ENDBRANCH   2   5
BRANCH   1  16
HETATM   16  C           1     -21.724  -7.484  -3.809  0.00  0.00     0.195 C 
BRANCH  16  17
HETATM   17  C           1     -21.260  -8.934  -3.775  0.00  0.00     0.149 C 
BRANCH  17  18
HETATM   18  C           1     -20.009  -9.083  -4.606  0.00  0.00     0.175 C 
HETATM   19  O           1     -18.888  -8.882  -4.090  0.00  0.00    -0.648 OA
HETATM   20  O           1     -20.093  -9.407  -5.810  0.00  0.00    -0.648 OA
ENDBRANCH  17  18
ENDBRANCH  16  17
BRANCH  16  21
HETATM   21  C           1     -21.582  -6.876  -2.435  0.00  0.00     0.197 C 
HETATM   22  O           1     -20.821  -7.403  -1.595  0.00  0.00    -0.646 OA
HETATM   23  O           1     -22.225  -5.848  -2.137  0.00  0.00    -0.646 OA
ENDBRANCH  16  21
ENDBRANCH   1  16
TORSDOF 8
ENDMDL
MODEL 7
REMARK VINA RESULT:      -5.3      4.697      6.771
REMARK  8 active torsions:
REMARK  status: ('A' for Active; 'I' for Inactive)
REMARK    1  A    between atoms: N_2  and  C_12 
REMARK       I    between atoms: N_2  and  C_3 
REMARK    2  A    between atoms: C_3  and  C_4 
REMARK    3  A    between atoms: C_4  and  C_5 
REMARK    4  A    between atoms: C_4  and  N_15 
REMARK    5  A    between atoms: C_5  and  C_6 
REMARK       I    between atoms: C_6  and  N_7 
REMARK    6  A    between atoms: C_9  and  C_11 
REMARK    7  A    between atoms: C_11  and  C_12 
REMARK    8  A    between atoms: C_12  and  C_13 
ROOT
HETATM    1  N           1     -21.074  -6.263  -6.170  0.00  0.00    -0.344 N 
HETATM    2  C           1     -20.674  -4.955  -6.233  0.00  0.00     0.249 C 
HETATM    3  O           1     -20.039  -4.473  -5.325  0.00  0.00    -0.271 OA
HETATM    4  H           1     -21.606  -6.667  -6.930  0.00  0.00     0.163 HD
ENDROOT
BRANCH   2   5
HETATM    5  C           1     -21.026  -4.115  -7.437  0.00  0.00     0.283 C 
BRANCH   5   6
HETATM    6  C           1     -22.009  -4.876  -8.317  0.00  0.00     0.145 C 
BRANCH   6   7
HETATM    7  C           1     -22.843  -3.895  -9.103  0.00  0.00     0.217 C 
HETATM    8  N           1     -24.123  -3.614  -8.707  0.00  0.00    -0.370 N 
HETATM    9  H           1     -24.683  -2.956  -9.234  0.00  0.00     0.159 HD
HETATM   10  H           1     -24.509  -4.064  -7.887  0.00  0.00     0.159 HD
HETATM   11  O           1     -22.383  -3.358 -10.082  0.00  0.00    -0.274 OA
ENDBRANCH   6   7
ENDBRANCH   5   6
BRANCH   5  12
HETATM   12  N           1     -19.781  -3.818  -8.220  0.00  0.00    -0.066 N 
HETATM   13  H           1     -19.593  -2.791  -8.198  0.00  0.00     0.275 HD
HETATM   14  H           1     -18.974  -4.329  -7.797  0.00  0.00     0.275 HD
HETATM   15  H           1     -19.910  -4.129  -9.209  0.00  0.00     0.275 HD
ENDBRANCH   5  12
ENDBRANCH   2   5
BRANCH   1  16
HETATM   16  C           1     -20.736  -7.070  -5.013  0.00  0.00     0.195 C 
BRANCH  16  17
HETATM   17  C           1     -21.968  -7.237  -4.134  0.00  0.00     0.149 C 
BRANCH  17  18
HETATM   18  C           1     -21.653  -6.777  -2.732  0.00  0.00     0.175 C 
HETATM   19  O           1     -22.307  -5.843  -2.220  0.00  0.00    -0.648 OA
HETATM   20  O           1     -20.740  -7.330  -2.083  0.00  0.00    -0.648 OA
ENDBRANCH  17  18
ENDBRANCH  16  17
BRANCH  16  21
HETATM   21  C           1     -20.255  -8.425  -5.471  0.00  0.00     0.197 C 
HETATM   22  O           1     -21.074  -9.352  -5.647  0.00  0.00    -0.646 OA
HETATM   23  O           1     -19.037  -8.621  -5.673  0.00  0.00    -0.646 OA
ENDBRANCH  16  21
ENDBRANCH   1  16
TORSDOF 8
ENDMDL
MODEL 8
REMARK VINA RESULT:      -5.2      3.299      6.473
REMARK  8 active torsions:
REMARK  status: ('A' for Active; 'I' for Inactive)
REMARK    1  A    between atoms: N_2  and  C_12 
REMARK       I    between atoms: N_2  and  C_3 
REMARK    2  A    between atoms: C_3  and  C_4 
REMARK    3  A    between atoms: C_4  and  C_5 
REMARK    4  A    between atoms: C_4  and  N_15 
REMARK    5  A    between atoms: C_5  and  C_6 
REMARK       I    between atoms: C_6  and  N_7 
REMARK    6  A    between atoms: C_9  and  C_11 
REMARK    7  A    between atoms: C_11  and  C_12 
REMARK    8  A    between atoms: C_12  and  C_13 
ROOT
HETATM    1  N           1     -22.643  -4.630  -8.204  0.00  0.00    -0.344 N 
HETATM    2  C           1     -21.910  -4.112  -7.170  0.00  0.00     0.249 C 
HETATM    3  O           1     -21.495  -2.980  -7.233  0.00  0.00    -0.271 OA
HETATM    4  H           1     -22.991  -5.579  -8.152  0.00  0.00     0.163 HD
ENDROOT
BRANCH   2   5
HETATM    5  C           1     -21.621  -4.956  -5.953  0.00  0.00     0.283 C 
BRANCH   5   6
HETATM    6  C           1     -20.127  -4.925  -5.656  0.00  0.00     0.145 C 
BRANCH   6   7
HETATM    7  C           1     -19.363  -5.378  -6.875  0.00  0.00     0.217 C 
HETATM    8  N           1     -18.622  -4.477  -7.592  0.00  0.00    -0.370 N 
HETATM    9  H           1     -18.109  -4.781  -8.410  0.00  0.00     0.159 HD
HETATM   10  H           1     -18.588  -3.508  -7.305  0.00  0.00     0.159 HD
HETATM   11  O           1     -19.403  -6.535  -7.219  0.00  0.00    -0.274 OA
ENDBRANCH   6   7
ENDBRANCH   5   6
BRANCH   5  12
HETATM   12  N           1     -22.049  -6.370  -6.212  0.00  0.00    -0.066 N 
HETATM   13  H           1     -22.089  -6.893  -5.308  0.00  0.00     0.275 HD
HETATM   14  H           1     -22.994  -6.371  -6.657  0.00  0.00     0.275 HD
HETATM   15  H           1     -21.363  -6.830  -6.852  0.00  0.00     0.275 HD
ENDBRANCH   5  12
ENDBRANCH   2   5
BRANCH   1  16
HETATM   16  C           1     -22.921  -3.820  -9.374  0.00  0.00     0.195 C 
BRANCH  16  17
HETATM   17  C           1     -22.174  -4.388 -10.573  0.00  0.00     0.149 C 
BRANCH  17  18
HETATM   18  C           1     -21.577  -3.259 -11.377  0.00  0.00     0.175 C 
HETATM   19  O           1     -22.291  -2.615 -12.175  0.00  0.00    -0.648 OA
HETATM   20  O           1     -20.369  -2.969 -11.244  0.00  0.00    -0.648 OA
ENDBRANCH  17  18
ENDBRANCH  16  17
BRANCH  16  21
HETATM   21  C           1     -24.404  -3.832  -9.651  0.00  0.00     0.197 C 
HETATM   22  O           1     -24.975  -4.904  -9.946  0.00  0.00    -0.646 OA
HETATM   23  O           1     -25.061  -2.771  -9.587  0.00  0.00    -0.646 OA
ENDBRANCH  16  21
ENDBRANCH   1  16
TORSDOF 8
ENDMDL
MODEL 9
REMARK VINA RESULT:      -5.0      8.654     10.826
REMARK  8 active torsions:
REMARK  status: ('A' for Active; 'I' for Inactive)
REMARK    1  A    between atoms: N_2  and  C_12 
REMARK       I    between atoms: N_2  and  C_3 
REMARK    2  A    between atoms: C_3  and  C_4 
REMARK    3  A    between atoms: C_4  and  C_5 
REMARK    4  A    between atoms: C_4  and  N_15 
REMARK    5  A    between atoms: C_5  and  C_6 
REMARK       I    between atoms: C_6  and  N_7 
REMARK    6  A    between atoms: C_9  and  C_11 
REMARK    7  A    between atoms: C_11  and  C_12 
REMARK    8  A    between atoms: C_12  and  C_13 
ROOT
HETATM    1  N           1     -20.482  -8.510  -3.657  0.00  0.00    -0.344 N 
HETATM    2  C           1     -21.262  -9.434  -3.014  0.00  0.00     0.249 C 
HETATM    3  O           1     -21.698 -10.382  -3.621  0.00  0.00    -0.271 OA
HETATM    4  H           1     -20.116  -7.715  -3.148  0.00  0.00     0.163 HD
ENDROOT
BRANCH   2   5
HETATM    5  C           1     -21.574  -9.268  -1.547  0.00  0.00     0.283 C 
BRANCH   5   6
HETATM    6  C           1     -21.107  -7.895  -1.080  0.00  0.00     0.145 C 
BRANCH   6   7
HETATM    7  C           1     -22.291  -6.965  -0.990  0.00  0.00     0.217 C 
HETATM    8  N           1     -22.363  -5.869  -1.807  0.00  0.00    -0.370 N 
HETATM    9  H           1     -23.158  -5.244  -1.747  0.00  0.00     0.159 HD
HETATM   10  H           1     -21.624  -5.683  -2.471  0.00  0.00     0.159 HD
HETATM   11  O           1     -23.175  -7.186  -0.197  0.00  0.00    -0.274 OA
ENDBRANCH   6   7
ENDBRANCH   5   6
BRANCH   5  12
HETATM   12  N           1     -20.865 -10.330  -0.761  0.00  0.00    -0.066 N 
HETATM   13  H           1     -21.480 -10.658   0.017  0.00  0.00     0.275 HD
HETATM   14  H           1     -20.640 -11.135  -1.389  0.00  0.00     0.275 HD
HETATM   15  H           1     -19.980  -9.939  -0.366  0.00  0.00     0.275 HD
ENDBRANCH   5  12
ENDBRANCH   2   5
BRANCH   1  16
HETATM   16  C           1     -20.181  -8.669  -5.066  0.00  0.00     0.195 C 
BRANCH  16  17
HETATM   17  C           1     -20.365  -7.335  -5.778  0.00  0.00     0.149 C 
BRANCH  17  18
HETATM   18  C           1     -21.292  -6.458  -4.973  0.00  0.00     0.175 C 
HETATM   19  O           1     -22.516  -6.707  -4.939  0.00  0.00    -0.648 OA
HETATM   20  O           1     -20.835  -5.482  -4.339  0.00  0.00    -0.648 OA
ENDBRANCH  17  18
ENDBRANCH  16  17
BRANCH  16  21
HETATM   21  C           1     -18.754  -9.132  -5.225  0.00  0.00     0.197 C 
HETATM   22  O           1     -18.055  -9.358  -4.214  0.00  0.00    -0.646 OA
HETATM   23  O           1     -18.271  -9.290  -6.367  0.00  0.00    -0.646 OA
ENDBRANCH  16  21
ENDBRANCH   1  16
TORSDOF 8
ENDMDL
