MODEL 1
REMARK VINA RESULT:      -5.4      0.000      0.000
REMARK  8 active torsions:
REMARK  status: ('A' for Active; 'I' for Inactive)
REMARK    1  A    between atoms: Se_2  and  C_14 
REMARK    2  A    between atoms: N_3  and  C_7 
REMARK       I    between atoms: N_3  and  C_5 
REMARK    3  A    between atoms: N_4  and  C_19 
REMARK    4  A    between atoms: C_5  and  C_19 
REMARK    5  A    between atoms: C_7  and  C_14 
REMARK    6  A    between atoms: C_7  and  C_10 
REMARK    7  A    between atoms: O_16  and  C_18 
REMARK    8  A    between atoms: C_18  and  C_19 
ROOT
HETATM    1  H           1     -35.284  -2.039 -13.743  0.00  0.00     0.163 HD
HETATM    2  N           1     -34.839  -1.699 -12.900  0.00  0.00    -0.345 N 
HETATM    3  C           1     -34.088  -2.548 -12.132  0.00  0.00     0.251 C 
HETATM    4  O           1     -33.557  -2.141 -11.127  0.00  0.00    -0.271 OA
ENDROOT
BRANCH   3   5
HETATM    5  C           1     -33.925  -3.991 -12.542  0.00  0.00     0.302 C 
BRANCH   5   6
HETATM    6  N           1     -32.525  -4.439 -12.244  0.00  0.00    -0.064 N 
HETATM    7  H           1     -31.896  -4.166 -13.032  0.00  0.00     0.275 HD
HETATM    8  H           1     -32.194  -3.985 -11.363  0.00  0.00     0.275 HD
HETATM    9  H           1     -32.508  -5.477 -12.128  0.00  0.00     0.275 HD
ENDBRANCH   5   6
BRANCH   5  10
HETATM   10  C           1     -34.910  -4.854 -11.764  0.00  0.00     0.153 C 
HETATM   11  C           1     -34.151  -5.703 -10.753  0.00  0.00     0.042 C 
BRANCH  10  12
HETATM   12  O           1     -35.824  -4.031 -11.091  0.00  0.00    -0.393 OA
HETATM   13  H           1     -35.676  -3.152 -11.397  0.00  0.00     0.210 HD
ENDBRANCH  10  12
ENDBRANCH   5  10
ENDBRANCH   3   5
BRANCH   2  14
HETATM   14  C           1     -34.997  -0.312 -12.507  0.00  0.00     0.185 C 
BRANCH  14  15
HETATM   15  C           1     -35.056   0.564 -13.751  0.00  0.00     0.039 C 
BRANCH  15  16
HETATM   16 Se           1     -35.617  -0.511 -15.277  0.00  0.00     0.000 Se
HETATM   17  H           1     -35.103  -1.774 -14.724  0.00  0.00     0.000 HD
ENDBRANCH  15  16
ENDBRANCH  14  15
BRANCH  14  18
HETATM   18  C           1     -36.274  -0.156 -11.719  0.00  0.00     0.196 C 
HETATM   19  O           1     -37.336  -0.661 -12.144  0.00  0.00    -0.646 OA
HETATM   20  O           1     -36.272   0.478 -10.642  0.00  0.00    -0.646 OA
ENDBRANCH  14  18
ENDBRANCH   2  14
TORSDOF 8
ENDMDL
MODEL 2
REMARK VINA RESULT:      -5.2      2.560      4.751
REMARK  8 active torsions:
REMARK  status: ('A' for Active; 'I' for Inactive)
REMARK    1  A    between atoms: Se_2  and  C_14 
REMARK    2  A    between atoms: N_3  and  C_7 
REMARK       I    between atoms: N_3  and  C_5 
REMARK    3  A    between atoms: N_4  and  C_19 
REMARK    4  A    between atoms: C_5  and  C_19 
REMARK    5  A    between atoms: C_7  and  C_14 
REMARK    6  A    between atoms: C_7  and  C_10 
REMARK    7  A    between atoms: O_16  and  C_18 
REMARK    8  A    between atoms: C_18  and  C_19 
ROOT
HETATM    1  H           1     -33.982  -1.275 -13.724  0.00  0.00     0.163 HD
HETATM    2  N           1     -34.856  -1.452 -13.246  0.00  0.00    -0.345 N 
HETATM    3  C           1     -35.977  -0.743 -13.584  0.00  0.00     0.251 C 
HETATM    4  O           1     -37.020  -0.956 -13.013  0.00  0.00    -0.271 OA
ENDROOT
BRANCH   3   5
HETATM    5  C           1     -35.909   0.305 -14.668  0.00  0.00     0.302 C 
BRANCH   5   6
HETATM    6  N           1     -34.475   0.651 -14.938  0.00  0.00    -0.064 N 
HETATM    7  H           1     -33.856   0.076 -14.322  0.00  0.00     0.275 HD
HETATM    8  H           1     -34.251   0.450 -15.939  0.00  0.00     0.275 HD
HETATM    9  H           1     -34.318   1.665 -14.742  0.00  0.00     0.275 HD
ENDBRANCH   5   6
BRANCH   5  10
HETATM   10  C           1     -36.548  -0.238 -15.939  0.00  0.00     0.153 C 
HETATM   11  C           1     -35.593  -1.218 -16.608  0.00  0.00     0.042 C 
BRANCH  10  12
HETATM   12  O           1     -37.744  -0.896 -15.618  0.00  0.00    -0.393 OA
HETATM   13  H           1     -37.566  -1.821 -15.655  0.00  0.00     0.210 HD
ENDBRANCH  10  12
ENDBRANCH   5  10
ENDBRANCH   3   5
BRANCH   2  14
HETATM   14  C           1     -34.920  -2.459 -12.205  0.00  0.00     0.185 C 
BRANCH  14  15
HETATM   15  C           1     -34.021  -3.631 -12.576  0.00  0.00     0.039 C 
BRANCH  15  16
HETATM   16 Se           1     -34.515  -5.191 -11.516  0.00  0.00     0.000 Se
HETATM   17  H           1     -35.799  -4.626 -11.070  0.00  0.00     0.000 HD
ENDBRANCH  15  16
ENDBRANCH  14  15
BRANCH  14  18
HETATM   18  C           1     -34.455  -1.861 -10.899  0.00  0.00     0.196 C 
HETATM   19  O           1     -33.239  -1.863 -10.609  0.00  0.00    -0.646 OA
HETATM   20  O           1     -35.285  -1.364 -10.109  0.00  0.00    -0.646 OA
ENDBRANCH  14  18
ENDBRANCH   2  14
TORSDOF 8
ENDMDL
MODEL 3
REMARK VINA RESULT:      -5.1     12.515     13.856
REMARK  8 active torsions:
REMARK  status: ('A' for Active; 'I' for Inactive)
REMARK    1  A    between atoms: Se_2  and  C_14 
REMARK    2  A    between atoms: N_3  and  C_7 
REMARK       I    between atoms: N_3  and  C_5 
REMARK    3  A    between atoms: N_4  and  C_19 
REMARK    4  A    between atoms: C_5  and  C_19 
REMARK    5  A    between atoms: C_7  and  C_14 
REMARK    6  A    between atoms: C_7  and  C_10 
REMARK    7  A    between atoms: O_16  and  C_18 
REMARK    8  A    between atoms: C_18  and  C_19 
ROOT
HETATM    1  H           1     -23.220  -5.380  -7.762  0.00  0.00     0.163 HD
HETATM    2  N           1     -22.603  -4.597  -7.937  0.00  0.00    -0.345 N 
HETATM    3  C           1     -21.588  -4.315  -7.062  0.00  0.00     0.251 C 
HETATM    4  O           1     -20.853  -3.381  -7.272  0.00  0.00    -0.271 OA
ENDROOT
BRANCH   3   5
HETATM    5  C           1     -21.390  -5.173  -5.836  0.00  0.00     0.302 C 
BRANCH   5   6
HETATM    6  N           1     -22.668  -5.889  -5.517  0.00  0.00    -0.064 N 
HETATM    7  H           1     -22.451  -6.848  -5.161  0.00  0.00     0.275 HD
HETATM    8  H           1     -23.192  -5.358  -4.785  0.00  0.00     0.275 HD
HETATM    9  H           1     -23.253  -5.962  -6.380  0.00  0.00     0.275 HD
ENDBRANCH   5   6
BRANCH   5  10
HETATM   10  C           1     -20.290  -6.192  -6.101  0.00  0.00     0.153 C 
HETATM   11  C           1     -20.704  -7.544  -5.535  0.00  0.00     0.042 C 
BRANCH  10  12
HETATM   12  O           1     -20.083  -6.307  -7.483  0.00  0.00    -0.393 OA
HETATM   13  H           1     -20.060  -7.229  -7.680  0.00  0.00     0.210 HD
ENDBRANCH  10  12
ENDBRANCH   5  10
ENDBRANCH   3   5
BRANCH   2  14
HETATM   14  C           1     -22.794  -3.773  -9.116  0.00  0.00     0.185 C 
BRANCH  14  15
HETATM   15  C           1     -21.916  -4.294 -10.246  0.00  0.00     0.039 C 
BRANCH  15  16
HETATM   16 Se           1     -22.041  -3.091 -11.774  0.00  0.00     0.000 Se
HETATM   17  H           1     -21.754  -1.878 -10.990  0.00  0.00     0.000 HD
ENDBRANCH  15  16
ENDBRANCH  14  15
BRANCH  14  18
HETATM   18  C           1     -24.242  -3.828  -9.537  0.00  0.00     0.196 C 
HETATM   19  O           1     -24.736  -4.905  -9.936  0.00  0.00    -0.646 OA
HETATM   20  O           1     -24.947  -2.798  -9.485  0.00  0.00    -0.646 OA
ENDBRANCH  14  18
ENDBRANCH   2  14
TORSDOF 8
ENDMDL
MODEL 4
REMARK VINA RESULT:      -5.0      2.603      3.213
REMARK  8 active torsions:
REMARK  status: ('A' for Active; 'I' for Inactive)
REMARK    1  A    between atoms: Se_2  and  C_14 
REMARK    2  A    between atoms: N_3  and  C_7 
REMARK       I    between atoms: N_3  and  C_5 
REMARK    3  A    between atoms: N_4  and  C_19 
REMARK    4  A    between atoms: C_5  and  C_19 
REMARK    5  A    between atoms: C_7  and  C_14 
REMARK    6  A    between atoms: C_7  and  C_10 
REMARK    7  A    between atoms: O_16  and  C_18 
REMARK    8  A    between atoms: C_18  and  C_19 
ROOT
HETATM    1  H           1     -33.981  -1.376 -14.378  0.00  0.00     0.163 HD
HETATM    2  N           1     -34.914  -1.389 -13.986  0.00  0.00    -0.345 N 
HETATM    3  C           1     -35.111  -1.819 -12.701  0.00  0.00     0.251 C 
HETATM    4  O           1     -36.225  -1.834 -12.234  0.00  0.00    -0.271 OA
ENDROOT
BRANCH   3   5
HETATM    5  C           1     -33.937  -2.274 -11.869  0.00  0.00     0.302 C 
BRANCH   5   6
HETATM    6  N           1     -34.167  -1.899 -10.435  0.00  0.00    -0.064 N 
HETATM    7  H           1     -34.695  -2.662  -9.956  0.00  0.00     0.275 HD
HETATM    8  H           1     -33.246  -1.762  -9.960  0.00  0.00     0.275 HD
HETATM    9  H           1     -34.717  -1.012 -10.391  0.00  0.00     0.275 HD
ENDBRANCH   5   6
BRANCH   5  10
HETATM   10  C           1     -33.790  -3.785 -11.981  0.00  0.00     0.153 C 
HETATM   11  C           1     -33.993  -4.417 -10.610  0.00  0.00     0.042 C 
BRANCH  10  12
HETATM   12  O           1     -34.752  -4.284 -12.872  0.00  0.00    -0.393 OA
HETATM   13  H           1     -35.348  -3.577 -13.055  0.00  0.00     0.210 HD
ENDBRANCH  10  12
ENDBRANCH   5  10
ENDBRANCH   3   5
BRANCH   2  14
HETATM   14  C           1     -36.041  -0.952 -14.786  0.00  0.00     0.185 C 
BRANCH  14  15
HETATM   15  C           1     -36.308   0.524 -14.523  0.00  0.00     0.039 C 
BRANCH  15  16
HETATM   16 Se           1     -34.660   1.390 -13.947  0.00  0.00     0.000 Se
HETATM   17  H           1     -34.613   0.697 -12.649  0.00  0.00     0.000 HD
ENDBRANCH  15  16
ENDBRANCH  14  15
BRANCH  14  18
HETATM   18  C           1     -35.728  -1.155 -16.248  0.00  0.00     0.196 C 
HETATM   19  O           1     -34.657  -1.704 -16.587  0.00  0.00    -0.646 OA
HETATM   20  O           1     -36.538  -0.775 -17.120  0.00  0.00    -0.646 OA
ENDBRANCH  14  18
ENDBRANCH   2  14
TORSDOF 8
ENDMDL
MODEL 5
REMARK VINA RESULT:      -4.8     12.540     14.255
REMARK  8 active torsions:
REMARK  status: ('A' for Active; 'I' for Inactive)
REMARK    1  A    between atoms: Se_2  and  C_14 
REMARK    2  A    between atoms: N_3  and  C_7 
REMARK       I    between atoms: N_3  and  C_5 
REMARK    3  A    between atoms: N_4  and  C_19 
REMARK    4  A    between atoms: C_5  and  C_19 
REMARK    5  A    between atoms: C_7  and  C_14 
REMARK    6  A    between atoms: C_7  and  C_10 
REMARK    7  A    between atoms: O_16  and  C_18 
REMARK    8  A    between atoms: C_18  and  C_19 
ROOT
HETATM    1  H           1     -22.295  -6.181  -9.164  0.00  0.00     0.163 HD
HETATM    2  N           1     -22.225  -5.261  -8.748  0.00  0.00    -0.345 N 
HETATM    3  C           1     -23.112  -4.280  -9.104  0.00  0.00     0.251 C 
HETATM    4  O           1     -23.029  -3.183  -8.608  0.00  0.00    -0.271 OA
ENDROOT
BRANCH   3   5
HETATM    5  C           1     -24.193  -4.572 -10.116  0.00  0.00     0.302 C 
BRANCH   5   6
HETATM    6  N           1     -25.361  -3.662  -9.874  0.00  0.00    -0.064 N 
HETATM    7  H           1     -25.477  -3.019 -10.690  0.00  0.00     0.275 HD
HETATM    8  H           1     -26.228  -4.233  -9.756  0.00  0.00     0.275 HD
HETATM    9  H           1     -25.193  -3.102  -9.009  0.00  0.00     0.275 HD
ENDBRANCH   5   6
BRANCH   5  10
HETATM   10  C           1     -23.651  -4.339 -11.520  0.00  0.00     0.153 C 
HETATM   11  C           1     -24.328  -3.117 -12.128  0.00  0.00     0.042 C 
BRANCH  10  12
HETATM   12  O           1     -22.267  -4.124 -11.457  0.00  0.00    -0.393 OA
HETATM   13  H           1     -22.101  -3.289 -11.863  0.00  0.00     0.210 HD
ENDBRANCH  10  12
ENDBRANCH   5  10
ENDBRANCH   3   5
BRANCH   2  14
HETATM   14  C           1     -21.186  -4.981  -7.776  0.00  0.00     0.185 C 
BRANCH  14  15
HETATM   15  C           1     -20.954  -6.215  -6.913  0.00  0.00     0.039 C 
BRANCH  15  16
HETATM   16 Se           1     -20.976  -5.706  -5.032  0.00  0.00     0.000 Se
HETATM   17  H           1     -19.905  -6.638  -4.647  0.00  0.00     0.000 HD
ENDBRANCH  15  16
ENDBRANCH  14  15
BRANCH  14  18
HETATM   18  C           1     -19.909  -4.623  -8.496  0.00  0.00     0.196 C 
HETATM   19  O           1     -19.852  -4.698  -9.743  0.00  0.00    -0.646 OA
HETATM   20  O           1     -18.908  -4.251  -7.847  0.00  0.00    -0.646 OA
ENDBRANCH  14  18
ENDBRANCH   2  14
TORSDOF 8
ENDMDL
MODEL 6
REMARK VINA RESULT:      -4.7      2.920      5.067
REMARK  8 active torsions:
REMARK  status: ('A' for Active; 'I' for Inactive)
REMARK    1  A    between atoms: Se_2  and  C_14 
REMARK    2  A    between atoms: N_3  and  C_7 
REMARK       I    between atoms: N_3  and  C_5 
REMARK    3  A    between atoms: N_4  and  C_19 
REMARK    4  A    between atoms: C_5  and  C_19 
REMARK    5  A    between atoms: C_7  and  C_14 
REMARK    6  A    between atoms: C_7  and  C_10 
REMARK    7  A    between atoms: O_16  and  C_18 
REMARK    8  A    between atoms: C_18  and  C_19 
ROOT
HETATM    1  H           1     -37.127  -0.927 -13.245  0.00  0.00     0.163 HD
HETATM    2  N           1     -36.147  -0.690 -13.322  0.00  0.00    -0.345 N 
HETATM    3  C           1     -35.723   0.160 -14.310  0.00  0.00     0.251 C 
HETATM    4  O           1     -34.553   0.443 -14.401  0.00  0.00    -0.271 OA
ENDROOT
BRANCH   3   5
HETATM    5  C           1     -36.719   0.741 -15.283  0.00  0.00     0.302 C 
BRANCH   5   6
HETATM    6  N           1     -36.091   1.892 -16.011  0.00  0.00    -0.064 N 
HETATM    7  H           1     -36.087   2.735 -15.394  0.00  0.00     0.275 HD
HETATM    8  H           1     -35.109   1.646 -16.270  0.00  0.00     0.275 HD
HETATM    9  H           1     -36.639   2.097 -16.877  0.00  0.00     0.275 HD
ENDBRANCH   5   6
BRANCH   5  10
HETATM   10  C           1     -37.133  -0.328 -16.285  0.00  0.00     0.153 C 
HETATM   11  C           1     -35.906  -1.116 -16.723  0.00  0.00     0.042 C 
BRANCH  10  12
HETATM   12  O           1     -38.057  -1.197 -15.687  0.00  0.00    -0.393 OA
HETATM   13  H           1     -38.914  -0.915 -15.960  0.00  0.00     0.210 HD
ENDBRANCH  10  12
ENDBRANCH   5  10
ENDBRANCH   3   5
BRANCH   2  14
HETATM   14  C           1     -35.190  -1.249 -12.387  0.00  0.00     0.185 C 
BRANCH  14  15
HETATM   15  C           1     -35.733  -1.119 -10.969  0.00  0.00     0.039 C 
BRANCH  15  16
HETATM   16 Se           1     -37.487  -0.270 -11.019  0.00  0.00     0.000 Se
HETATM   17  H           1     -36.969   1.082 -10.758  0.00  0.00     0.000 HD
ENDBRANCH  15  16
ENDBRANCH  14  15
BRANCH  14  18
HETATM   18  C           1     -34.966  -2.706 -12.709  0.00  0.00     0.196 C 
HETATM   19  O           1     -34.359  -3.028 -13.753  0.00  0.00    -0.646 OA
HETATM   20  O           1     -35.387  -3.590 -11.933  0.00  0.00    -0.646 OA
ENDBRANCH  14  18
ENDBRANCH   2  14
TORSDOF 8
ENDMDL
MODEL 7
REMARK VINA RESULT:      -4.6     11.952     13.428
REMARK  8 active torsions:
REMARK  status: ('A' for Active; 'I' for Inactive)
REMARK    1  A    between atoms: Se_2  and  C_14 
REMARK    2  A    between atoms: N_3  and  C_7 
REMARK       I    between atoms: N_3  and  C_5 
REMARK    3  A    between atoms: N_4  and  C_19 
REMARK    4  A    between atoms: C_5  and  C_19 
REMARK    5  A    between atoms: C_7  and  C_14 
REMARK    6  A    between atoms: C_7  and  C_10 
REMARK    7  A    between atoms: O_16  and  C_18 
REMARK    8  A    between atoms: C_18  and  C_19 
ROOT
HETATM    1  H           1     -21.759  -2.463  -9.334  0.00  0.00     0.163 HD
HETATM    2  N           1     -21.923  -3.451  -9.478  0.00  0.00    -0.345 N 
HETATM    3  C           1     -22.259  -3.916 -10.722  0.00  0.00     0.251 C 
HETATM    4  O           1     -22.453  -5.095 -10.893  0.00  0.00    -0.271 OA
ENDROOT
BRANCH   3   5
HETATM    5  C           1     -22.385  -2.954 -11.877  0.00  0.00     0.302 C 
BRANCH   5   6
HETATM    6  N           1     -21.771  -3.562 -13.103  0.00  0.00    -0.064 N 
HETATM    7  H           1     -20.907  -3.033 -13.359  0.00  0.00     0.275 HD
HETATM    8  H           1     -21.523  -4.559 -12.910  0.00  0.00     0.275 HD
HETATM    9  H           1     -22.453  -3.519 -13.893  0.00  0.00     0.275 HD
ENDBRANCH   5   6
BRANCH   5  10
HETATM   10  C           1     -23.858  -2.665 -12.139  0.00  0.00     0.153 C 
HETATM   11  C           1     -24.317  -3.442 -13.365  0.00  0.00     0.042 C 
BRANCH  10  12
HETATM   12  O           1     -24.616  -3.057 -11.026  0.00  0.00    -0.393 OA
HETATM   13  H           1     -24.059  -3.597 -10.492  0.00  0.00     0.210 HD
ENDBRANCH  10  12
ENDBRANCH   5  10
ENDBRANCH   3   5
BRANCH   2  14
HETATM   14  C           1     -21.801  -4.375  -8.367  0.00  0.00     0.185 C 
BRANCH  14  15
HETATM   15  C           1     -20.688  -3.907  -7.438  0.00  0.00     0.039 C 
BRANCH  15  16
HETATM   16 Se           1     -19.639  -5.442  -6.855  0.00  0.00     0.000 Se
HETATM   17  H           1     -20.601  -6.437  -7.355  0.00  0.00     0.000 HD
ENDBRANCH  15  16
ENDBRANCH  14  15
BRANCH  14  18
HETATM   18  C           1     -23.104  -4.422  -7.608  0.00  0.00     0.196 C 
HETATM   19  O           1     -24.169  -4.089  -8.173  0.00  0.00    -0.646 OA
HETATM   20  O           1     -23.120  -4.795  -6.416  0.00  0.00    -0.646 OA
ENDBRANCH  14  18
ENDBRANCH   2  14
TORSDOF 8
ENDMDL
MODEL 8
REMARK VINA RESULT:      -4.6      2.664      5.180
REMARK  8 active torsions:
REMARK  status: ('A' for Active; 'I' for Inactive)
REMARK    1  A    between atoms: Se_2  and  C_14 
REMARK    2  A    between atoms: N_3  and  C_7 
REMARK       I    between atoms: N_3  and  C_5 
REMARK    3  A    between atoms: N_4  and  C_19 
REMARK    4  A    between atoms: C_5  and  C_19 
REMARK    5  A    between atoms: C_7  and  C_14 
REMARK    6  A    between atoms: C_7  and  C_10 
REMARK    7  A    between atoms: O_16  and  C_18 
REMARK    8  A    between atoms: C_18  and  C_19 
ROOT
HETATM    1  H           1     -33.825  -1.591 -14.149  0.00  0.00     0.163 HD
HETATM    2  N           1     -34.720  -1.683 -13.685  0.00  0.00    -0.345 N 
HETATM    3  C           1     -35.815  -1.022 -14.173  0.00  0.00     0.251 C 
HETATM    4  O           1     -36.882  -1.133 -13.619  0.00  0.00    -0.271 OA
ENDROOT
BRANCH   3   5
HETATM    5  C           1     -35.687  -0.155 -15.401  0.00  0.00     0.302 C 
BRANCH   5   6
HETATM    6  N           1     -36.731  -0.552 -16.403  0.00  0.00    -0.064 N 
HETATM    7  H           1     -37.607  -0.826 -15.903  0.00  0.00     0.275 HD
HETATM    8  H           1     -36.931   0.255 -17.036  0.00  0.00     0.275 HD
HETATM    9  H           1     -36.383  -1.360 -16.967  0.00  0.00     0.275 HD
ENDBRANCH   5   6
BRANCH   5  10
HETATM   10  C           1     -35.885   1.305 -15.016  0.00  0.00     0.153 C 
HETATM   11  C           1     -34.711   1.768 -14.162  0.00  0.00     0.042 C 
BRANCH  10  12
HETATM   12  O           1     -35.957   2.090 -16.176  0.00  0.00    -0.393 OA
HETATM   13  H           1     -36.008   2.989 -15.895  0.00  0.00     0.210 HD
ENDBRANCH  10  12
ENDBRANCH   5  10
ENDBRANCH   3   5
BRANCH   2  14
HETATM   14  C           1     -34.841  -2.516 -12.505  0.00  0.00     0.185 C 
BRANCH  14  15
HETATM   15  C           1     -33.928  -3.728 -12.643  0.00  0.00     0.039 C 
BRANCH  15  16
HETATM   16 Se           1     -34.689  -5.230 -11.661  0.00  0.00     0.000 Se
HETATM   17  H           1     -34.263  -6.238 -12.645  0.00  0.00     0.000 HD
ENDBRANCH  15  16
ENDBRANCH  14  15
BRANCH  14  18
HETATM   18  C           1     -34.442  -1.721 -11.286  0.00  0.00     0.196 C 
HETATM   19  O           1     -33.311  -1.882 -10.777  0.00  0.00    -0.646 OA
HETATM   20  O           1     -35.240  -0.901 -10.785  0.00  0.00    -0.646 OA
ENDBRANCH  14  18
ENDBRANCH   2  14
TORSDOF 8
ENDMDL
MODEL 9
REMARK VINA RESULT:      -4.4     25.372     26.681
REMARK  8 active torsions:
REMARK  status: ('A' for Active; 'I' for Inactive)
REMARK    1  A    between atoms: Se_2  and  C_14 
REMARK    2  A    between atoms: N_3  and  C_7 
REMARK       I    between atoms: N_3  and  C_5 
REMARK    3  A    between atoms: N_4  and  C_19 
REMARK    4  A    between atoms: C_5  and  C_19 
REMARK    5  A    between atoms: C_7  and  C_14 
REMARK    6  A    between atoms: C_7  and  C_10 
REMARK    7  A    between atoms: O_16  and  C_18 
REMARK    8  A    between atoms: C_18  and  C_19 
ROOT
HETATM    1  H           1     -11.878   6.334 -21.465  0.00  0.00     0.163 HD
HETATM    2  N           1     -11.504   5.953 -20.605  0.00  0.00    -0.345 N 
HETATM    3  C           1     -10.599   6.675 -19.873  0.00  0.00     0.251 C 
HETATM    4  O           1     -10.154   6.220 -18.847  0.00  0.00    -0.271 OA
ENDROOT
BRANCH   3   5
HETATM    5  C           1     -10.160   8.038 -20.348  0.00  0.00     0.302 C 
BRANCH   5   6
HETATM    6  N           1     -10.731   8.299 -21.710  0.00  0.00    -0.064 N 
HETATM    7  H           1     -10.256   7.686 -22.411  0.00  0.00     0.275 HD
HETATM    8  H           1     -11.755   8.091 -21.704  0.00  0.00     0.275 HD
HETATM    9  H           1     -10.580   9.301 -21.965  0.00  0.00     0.275 HD
ENDBRANCH   5   6
BRANCH   5  10
HETATM   10  C           1     -10.658   9.100 -19.377  0.00  0.00     0.153 C 
HETATM   11  C           1     -12.181   9.108 -19.372  0.00  0.00     0.042 C 
BRANCH  10  12
HETATM   12  O           1     -10.188   8.812 -18.088  0.00  0.00    -0.393 OA
HETATM   13  H           1     -10.913   8.449 -17.607  0.00  0.00     0.210 HD
ENDBRANCH  10  12
ENDBRANCH   5  10
ENDBRANCH   3   5
BRANCH   2  14
HETATM   14  C           1     -11.927   4.643 -20.149  0.00  0.00     0.185 C 
BRANCH  14  15
HETATM   15  C           1     -13.448   4.574 -20.149  0.00  0.00     0.039 C 
BRANCH  15  16
HETATM   16 Se           1     -14.130   5.244 -21.847  0.00  0.00     0.000 Se
HETATM   17  H           1     -14.980   4.070 -22.103  0.00  0.00     0.000 HD
ENDBRANCH  15  16
ENDBRANCH  14  15
BRANCH  14  18
HETATM   18  C           1     -11.374   3.587 -21.074  0.00  0.00     0.196 C 
HETATM   19  O           1     -10.739   3.923 -22.097  0.00  0.00    -0.646 OA
HETATM   20  O           1     -11.551   2.377 -20.818  0.00  0.00    -0.646 OA
ENDBRANCH  14  18
ENDBRANCH   2  14
TORSDOF 8
ENDMDL
