MODEL 1
REMARK VINA RESULT:      -7.4      0.000      0.000
REMARK  9 active torsions:
REMARK  status: ('A' for Active; 'I' for Inactive)
REMARK    1  A    between atoms: C_3  and  C_13 
REMARK    2  A    between atoms: C_3  and  C_4 
REMARK    3  A    between atoms: C_3  and  N_21 
REMARK    4  A    between atoms: C_4  and  C_26 
REMARK    5  A    between atoms: O_5  and  C_10 
REMARK    6  A    between atoms: N_12  and  C_22 
REMARK    7  A    between atoms: C_14  and  C_22 
REMARK    8  A    between atoms: C_14  and  C_30 
REMARK       I    between atoms: C_20  and  N_21 
REMARK    9  A    between atoms: C_20  and  C_22 
ROOT
HETATM    1  C           1     -21.063  -5.511  -6.180  0.00  0.00     0.249 C 
HETATM    2  N           1     -21.061  -6.878  -6.247  0.00  0.00    -0.344 N 
HETATM    3  H           1     -21.494  -7.347  -7.032  0.00  0.00     0.163 HD
HETATM    4  O           1     -20.546  -4.950  -5.243  0.00  0.00    -0.271 OA
ENDROOT
BRANCH   1   5
HETATM    5  C           1     -21.711  -4.702  -7.277  0.00  0.00     0.278 C 
BRANCH   5   6
HETATM    6  N           1     -21.506  -3.241  -7.007  0.00  0.00    -0.066 N 
HETATM    7  H           1     -22.363  -2.846  -6.557  0.00  0.00     0.275 HD
HETATM    8  H           1     -20.689  -3.115  -6.369  0.00  0.00     0.275 HD
HETATM    9  H           1     -21.326  -2.743  -7.908  0.00  0.00     0.275 HD
ENDBRANCH   5   6
BRANCH   5  10
HETATM   10  C           1     -21.083  -5.064  -8.616  0.00  0.00     0.081 C 
BRANCH  10  11
HETATM   11  C           1     -21.797  -4.340  -9.715  0.00  0.00    -0.056 A 
HETATM   12  C           1     -21.069  -3.626 -10.667  0.00  0.00     0.010 A 
HETATM   13  C           1     -21.734  -2.952 -11.691  0.00  0.00     0.037 A 
HETATM   14  C           1     -23.126  -2.992 -11.764  0.00  0.00     0.065 A 
HETATM   15  C           1     -23.854  -3.707 -10.813  0.00  0.00     0.037 A 
HETATM   16  C           1     -23.188  -4.382  -9.788  0.00  0.00     0.010 A 
BRANCH  14  17
HETATM   17  O           1     -23.773  -2.338 -12.759  0.00  0.00    -0.361 OA
HETATM   18  H           1     -24.692  -2.651 -12.776  0.00  0.00     0.217 HD
ENDBRANCH  14  17
ENDBRANCH  10  11
ENDBRANCH   5  10
ENDBRANCH   1   5
BRANCH   2  19
HETATM   19  C           1     -20.438  -7.654  -5.193  0.00  0.00     0.191 C 
BRANCH  19  20
HETATM   20  C           1     -19.503  -8.671  -5.801  0.00  0.00     0.197 C 
HETATM   21  O           1     -19.723  -9.892  -5.649  0.00  0.00    -0.646 OA
HETATM   22  O           1     -18.508  -8.291  -6.455  0.00  0.00    -0.646 OA
ENDBRANCH  19  20
BRANCH  19  23
HETATM   23  C           1     -21.513  -8.371  -4.387  0.00  0.00     0.094 C 
BRANCH  23  24
HETATM   24  C           1     -21.719  -7.663  -3.085  0.00  0.00     0.028 A 
HETATM   25  C           1     -21.557  -8.238  -1.847  0.00  0.00     0.114 A 
HETATM   26  N           1     -21.844  -7.244  -0.954  0.00  0.00    -0.360 N 
HETATM   27  C           1     -22.160  -6.126  -1.672  0.00  0.00     0.180 A 
HETATM   28  H           1     -21.822  -7.324   0.093  0.00  0.00     0.166 HD
HETATM   29  N           1     -22.094  -6.349  -2.964  0.00  0.00    -0.354 N 
ATOM     30  HN          1     -22.281  -5.687  -3.717  1.00  0.00     0.166 HD
ENDBRANCH  23  24
ENDBRANCH  19  23
ENDBRANCH   2  19
TORSDOF 9
ENDMDL
MODEL 2
REMARK VINA RESULT:      -7.4      1.100      1.621
REMARK  9 active torsions:
REMARK  status: ('A' for Active; 'I' for Inactive)
REMARK    1  A    between atoms: C_3  and  C_13 
REMARK    2  A    between atoms: C_3  and  C_4 
REMARK    3  A    between atoms: C_3  and  N_21 
REMARK    4  A    between atoms: C_4  and  C_26 
REMARK    5  A    between atoms: O_5  and  C_10 
REMARK    6  A    between atoms: N_12  and  C_22 
REMARK    7  A    between atoms: C_14  and  C_22 
REMARK    8  A    between atoms: C_14  and  C_30 
REMARK       I    between atoms: C_20  and  N_21 
REMARK    9  A    between atoms: C_20  and  C_22 
ROOT
HETATM    1  C           1     -21.300  -5.972  -5.761  0.00  0.00     0.249 C 
HETATM    2  N           1     -21.096  -7.325  -5.736  0.00  0.00    -0.344 N 
HETATM    3  H           1     -21.447  -7.904  -6.489  0.00  0.00     0.163 HD
HETATM    4  O           1     -20.883  -5.280  -4.863  0.00  0.00    -0.271 OA
ENDROOT
BRANCH   1   5
HETATM    5  C           1     -22.049  -5.342  -6.910  0.00  0.00     0.278 C 
BRANCH   5   6
HETATM    6  N           1     -23.421  -4.942  -6.452  0.00  0.00    -0.066 N 
HETATM    7  H           1     -24.107  -5.104  -7.223  0.00  0.00     0.275 HD
HETATM    8  H           1     -23.691  -5.512  -5.620  0.00  0.00     0.275 HD
HETATM    9  H           1     -23.419  -3.929  -6.196  0.00  0.00     0.275 HD
ENDBRANCH   5   6
BRANCH   5  10
HETATM   10  C           1     -21.296  -4.111  -7.395  0.00  0.00     0.081 C 
BRANCH  10  11
HETATM   11  C           1     -21.423  -4.001  -8.883  0.00  0.00    -0.056 A 
HETATM   12  C           1     -22.646  -3.649  -9.454  0.00  0.00     0.010 A 
HETATM   13  C           1     -22.764  -3.546 -10.840  0.00  0.00     0.037 A 
HETATM   14  C           1     -21.660  -3.796 -11.655  0.00  0.00     0.065 A 
HETATM   15  C           1     -20.437  -4.148 -11.084  0.00  0.00     0.037 A 
HETATM   16  C           1     -20.319  -4.251  -9.697  0.00  0.00     0.010 A 
BRANCH  14  17
HETATM   17  O           1     -21.774  -3.696 -13.002  0.00  0.00    -0.361 OA
HETATM   18  H           1     -21.582  -2.777 -13.251  0.00  0.00     0.217 HD
ENDBRANCH  14  17
ENDBRANCH  10  11
ENDBRANCH   5  10
ENDBRANCH   1   5
BRANCH   2  19
HETATM   19  C           1     -20.376  -7.929  -4.632  0.00  0.00     0.191 C 
BRANCH  19  20
HETATM   20  C           1     -19.262  -8.793  -5.169  0.00  0.00     0.197 C 
HETATM   21  O           1     -18.730  -8.516  -6.265  0.00  0.00    -0.646 OA
HETATM   22  O           1     -18.872  -9.785  -4.517  0.00  0.00    -0.646 OA
ENDBRANCH  19  20
BRANCH  19  23
HETATM   23  C           1     -21.331  -8.785  -3.811  0.00  0.00     0.094 C 
BRANCH  23  24
HETATM   24  C           1     -21.649  -8.088  -2.526  0.00  0.00     0.028 A 
HETATM   25  C           1     -21.624  -8.682  -1.287  0.00  0.00     0.114 A 
HETATM   26  N           1     -21.976  -7.692  -0.411  0.00  0.00    -0.360 N 
HETATM   27  C           1     -22.195  -6.559  -1.141  0.00  0.00     0.180 A 
HETATM   28  H           1     -22.060  -7.786   0.631  0.00  0.00     0.166 HD
HETATM   29  N           1     -22.006  -6.768  -2.423  0.00  0.00    -0.354 N 
ATOM     30  HN          1     -22.104  -6.092  -3.181  1.00  0.00     0.166 HD
ENDBRANCH  23  24
ENDBRANCH  19  23
ENDBRANCH   2  19
TORSDOF 9
ENDMDL
MODEL 3
REMARK VINA RESULT:      -7.3     13.182     14.528
REMARK  9 active torsions:
REMARK  status: ('A' for Active; 'I' for Inactive)
REMARK    1  A    between atoms: C_3  and  C_13 
REMARK    2  A    between atoms: C_3  and  C_4 
REMARK    3  A    between atoms: C_3  and  N_21 
REMARK    4  A    between atoms: C_4  and  C_26 
REMARK    5  A    between atoms: O_5  and  C_10 
REMARK    6  A    between atoms: N_12  and  C_22 
REMARK    7  A    between atoms: C_14  and  C_22 
REMARK    8  A    between atoms: C_14  and  C_30 
REMARK       I    between atoms: C_20  and  N_21 
REMARK    9  A    between atoms: C_20  and  C_22 
ROOT
HETATM    1  C           1     -33.884  -4.549 -15.283  0.00  0.00     0.249 C 
HETATM    2  N           1     -33.300  -4.041 -14.155  0.00  0.00    -0.344 N 
HETATM    3  H           1     -32.369  -3.647 -14.201  0.00  0.00     0.163 HD
HETATM    4  O           1     -34.995  -5.021 -15.229  0.00  0.00    -0.271 OA
ENDROOT
BRANCH   1   5
HETATM    5  C           1     -33.140  -4.522 -16.597  0.00  0.00     0.278 C 
BRANCH   5   6
HETATM    6  N           1     -33.477  -3.260 -17.335  0.00  0.00    -0.066 N 
HETATM    7  H           1     -33.286  -3.390 -18.353  0.00  0.00     0.275 HD
HETATM    8  H           1     -34.487  -3.034 -17.197  0.00  0.00     0.275 HD
HETATM    9  H           1     -32.891  -2.477 -16.968  0.00  0.00     0.275 HD
ENDBRANCH   5   6
BRANCH   5  10
HETATM   10  C           1     -31.642  -4.572 -16.334  0.00  0.00     0.081 C 
BRANCH  10  11
HETATM   11  C           1     -31.040  -5.717 -17.089  0.00  0.00    -0.056 A 
HETATM   12  C           1     -29.653  -5.841 -17.177  0.00  0.00     0.010 A 
HETATM   13  C           1     -29.093  -6.907 -17.881  0.00  0.00     0.037 A 
HETATM   14  C           1     -29.918  -7.849 -18.496  0.00  0.00     0.065 A 
HETATM   15  C           1     -31.305  -7.725 -18.407  0.00  0.00     0.037 A 
HETATM   16  C           1     -31.866  -6.658 -17.703  0.00  0.00     0.010 A 
BRANCH  14  17
HETATM   17  O           1     -29.374  -8.885 -19.178  0.00  0.00    -0.361 OA
HETATM   18  H           1     -28.712  -9.307 -18.605  0.00  0.00     0.217 HD
ENDBRANCH  14  17
ENDBRANCH  10  11
ENDBRANCH   5  10
ENDBRANCH   1   5
BRANCH   2  19
HETATM   19  C           1     -34.015  -4.068 -12.894  0.00  0.00     0.191 C 
BRANCH  19  20
HETATM   20  C           1     -34.526  -2.684 -12.575  0.00  0.00     0.197 C 
HETATM   21  O           1     -34.007  -2.024 -11.650  0.00  0.00    -0.646 OA
HETATM   22  O           1     -35.469  -2.199 -13.237  0.00  0.00    -0.646 OA
ENDBRANCH  19  20
BRANCH  19  23
HETATM   23  C           1     -33.076  -4.529 -11.787  0.00  0.00     0.094 C 
BRANCH  23  24
HETATM   24  C           1     -33.691  -5.682 -11.058  0.00  0.00     0.028 A 
HETATM   25  C           1     -34.863  -5.619 -10.343  0.00  0.00     0.114 A 
HETATM   26  N           1     -35.047  -6.882  -9.851  0.00  0.00    -0.360 N 
HETATM   27  C           1     -34.000  -7.646 -10.281  0.00  0.00     0.180 A 
HETATM   28  H           1     -35.847  -7.206  -9.254  0.00  0.00     0.166 HD
HETATM   29  N           1     -33.163  -6.947 -11.013  0.00  0.00    -0.354 N 
ATOM     30  HN          1     -32.303  -7.274 -11.454  1.00  0.00     0.166 HD
ENDBRANCH  23  24
ENDBRANCH  19  23
ENDBRANCH   2  19
TORSDOF 9
ENDMDL
MODEL 4
REMARK VINA RESULT:      -7.3      2.737      8.528
REMARK  9 active torsions:
REMARK  status: ('A' for Active; 'I' for Inactive)
REMARK    1  A    between atoms: C_3  and  C_13 
REMARK    2  A    between atoms: C_3  and  C_4 
REMARK    3  A    between atoms: C_3  and  N_21 
REMARK    4  A    between atoms: C_4  and  C_26 
REMARK    5  A    between atoms: O_5  and  C_10 
REMARK    6  A    between atoms: N_12  and  C_22 
REMARK    7  A    between atoms: C_14  and  C_22 
REMARK    8  A    between atoms: C_14  and  C_30 
REMARK       I    between atoms: C_20  and  N_21 
REMARK    9  A    between atoms: C_20  and  C_22 
ROOT
HETATM    1  C           1     -21.522  -4.419  -7.397  0.00  0.00     0.249 C 
HETATM    2  N           1     -22.120  -4.901  -8.530  0.00  0.00    -0.344 N 
HETATM    3  H           1     -22.233  -5.899  -8.657  0.00  0.00     0.163 HD
HETATM    4  O           1     -21.386  -3.229  -7.244  0.00  0.00    -0.271 OA
ENDROOT
BRANCH   1   5
HETATM    5  C           1     -21.031  -5.376  -6.337  0.00  0.00     0.278 C 
BRANCH   5   6
HETATM    6  N           1     -20.085  -4.660  -5.419  0.00  0.00    -0.066 N 
HETATM    7  H           1     -20.446  -4.706  -4.440  0.00  0.00     0.275 HD
HETATM    8  H           1     -19.145  -5.113  -5.464  0.00  0.00     0.275 HD
HETATM    9  H           1     -20.005  -3.660  -5.713  0.00  0.00     0.275 HD
ENDBRANCH   5   6
BRANCH   5  10
HETATM   10  C           1     -22.214  -5.901  -5.537  0.00  0.00     0.081 C 
BRANCH  10  11
HETATM   11  C           1     -21.720  -6.794  -4.442  0.00  0.00    -0.056 A 
HETATM   12  C           1     -21.861  -6.407  -3.109  0.00  0.00     0.010 A 
HETATM   13  C           1     -21.401  -7.239  -2.089  0.00  0.00     0.037 A 
HETATM   14  C           1     -20.801  -8.459  -2.401  0.00  0.00     0.065 A 
HETATM   15  C           1     -20.661  -8.847  -3.733  0.00  0.00     0.037 A 
HETATM   16  C           1     -21.121  -8.014  -4.754  0.00  0.00     0.010 A 
BRANCH  14  17
HETATM   17  O           1     -20.354  -9.268  -1.410  0.00  0.00    -0.361 OA
HETATM   18  H           1     -21.080  -9.865  -1.160  0.00  0.00     0.217 HD
ENDBRANCH  14  17
ENDBRANCH  10  11
ENDBRANCH   5  10
ENDBRANCH   1   5
BRANCH   2  19
HETATM   19  C           1     -22.592  -3.982  -9.547  0.00  0.00     0.191 C 
BRANCH  19  20
HETATM   20  C           1     -24.100  -4.012  -9.593  0.00  0.00     0.197 C 
HETATM   21  O           1     -24.753  -2.969  -9.374  0.00  0.00    -0.646 OA
HETATM   22  O           1     -24.695  -5.081  -9.849  0.00  0.00    -0.646 OA
ENDBRANCH  19  20
BRANCH  19  23
HETATM   23  C           1     -22.034  -4.394 -10.902  0.00  0.00     0.094 C 
BRANCH  23  24
HETATM   24  C           1     -22.794  -3.699 -11.988  0.00  0.00     0.028 A 
HETATM   25  C           1     -22.702  -2.357 -12.271  0.00  0.00     0.114 A 
HETATM   26  N           1     -23.554  -2.156 -13.321  0.00  0.00    -0.360 N 
HETATM   27  C           1     -24.118  -3.362 -13.628  0.00  0.00     0.180 A 
HETATM   28  H           1     -23.740  -1.243 -13.804  0.00  0.00     0.166 HD
HETATM   29  N           1     -23.678  -4.314 -12.838  0.00  0.00    -0.354 N 
ATOM     30  HN          1     -23.937  -5.300 -12.853  1.00  0.00     0.166 HD
ENDBRANCH  23  24
ENDBRANCH  19  23
ENDBRANCH   2  19
TORSDOF 9
ENDMDL
MODEL 5
REMARK VINA RESULT:      -7.1      2.764      8.358
REMARK  9 active torsions:
REMARK  status: ('A' for Active; 'I' for Inactive)
REMARK    1  A    between atoms: C_3  and  C_13 
REMARK    2  A    between atoms: C_3  and  C_4 
REMARK    3  A    between atoms: C_3  and  N_21 
REMARK    4  A    between atoms: C_4  and  C_26 
REMARK    5  A    between atoms: O_5  and  C_10 
REMARK    6  A    between atoms: N_12  and  C_22 
REMARK    7  A    between atoms: C_14  and  C_22 
REMARK    8  A    between atoms: C_14  and  C_30 
REMARK       I    between atoms: C_20  and  N_21 
REMARK    9  A    between atoms: C_20  and  C_22 
ROOT
HETATM    1  C           1     -21.562  -5.824  -6.606  0.00  0.00     0.249 C 
HETATM    2  N           1     -22.055  -4.747  -7.290  0.00  0.00    -0.344 N 
HETATM    3  H           1     -22.573  -4.029  -6.799  0.00  0.00     0.163 HD
HETATM    4  O           1     -20.944  -6.682  -7.191  0.00  0.00    -0.271 OA
ENDROOT
BRANCH   1   5
HETATM    5  C           1     -21.790  -5.943  -5.118  0.00  0.00     0.278 C 
BRANCH   5   6
HETATM    6  N           1     -23.238  -6.240  -4.858  0.00  0.00    -0.066 N 
HETATM    7  H           1     -23.664  -5.453  -4.318  0.00  0.00     0.275 HD
HETATM    8  H           1     -23.740  -6.349  -5.767  0.00  0.00     0.275 HD
HETATM    9  H           1     -23.318  -7.124  -4.307  0.00  0.00     0.275 HD
ENDBRANCH   5   6
BRANCH   5  10
HETATM   10  C           1     -20.933  -7.070  -4.560  0.00  0.00     0.081 C 
BRANCH  10  11
HETATM   11  C           1     -21.382  -7.399  -3.170  0.00  0.00    -0.056 A 
HETATM   12  C           1     -21.398  -8.725  -2.737  0.00  0.00     0.010 A 
HETATM   13  C           1     -21.816  -9.030  -1.442  0.00  0.00     0.037 A 
HETATM   14  C           1     -22.219  -8.010  -0.580  0.00  0.00     0.065 A 
HETATM   15  C           1     -22.202  -6.684  -1.012  0.00  0.00     0.037 A 
HETATM   16  C           1     -21.783  -6.378  -2.308  0.00  0.00     0.010 A 
BRANCH  14  17
HETATM   17  O           1     -22.624  -8.307   0.679  0.00  0.00    -0.361 OA
HETATM   18  H           1     -21.834  -8.498   1.211  0.00  0.00     0.217 HD
ENDBRANCH  14  17
ENDBRANCH  10  11
ENDBRANCH   5  10
ENDBRANCH   1   5
BRANCH   2  19
HETATM   19  C           1     -21.835  -4.633  -8.719  0.00  0.00     0.191 C 
BRANCH  19  20
HETATM   20  C           1     -20.377  -4.342  -8.982  0.00  0.00     0.197 C 
HETATM   21  O           1     -19.747  -3.573  -8.226  0.00  0.00    -0.646 OA
HETATM   22  O           1     -19.802  -4.872  -9.957  0.00  0.00    -0.646 OA
ENDBRANCH  19  20
BRANCH  19  23
HETATM   23  C           1     -22.686  -3.501  -9.276  0.00  0.00     0.094 C 
BRANCH  23  24
HETATM   24  C           1     -22.822  -3.659 -10.757  0.00  0.00     0.028 A 
HETATM   25  C           1     -23.448  -4.714 -11.377  0.00  0.00     0.114 A 
HETATM   26  N           1     -23.339  -4.456 -12.715  0.00  0.00    -0.360 N 
HETATM   27  C           1     -22.666  -3.275 -12.851  0.00  0.00     0.180 A 
HETATM   28  H           1     -23.708  -5.053 -13.495  0.00  0.00     0.166 HD
HETATM   29  N           1     -22.340  -2.771 -11.684  0.00  0.00    -0.354 N 
ATOM     30  HN          1     -21.834  -1.903 -11.504  1.00  0.00     0.166 HD
ENDBRANCH  23  24
ENDBRANCH  19  23
ENDBRANCH   2  19
TORSDOF 9
ENDMDL
MODEL 6
REMARK VINA RESULT:      -7.0     13.601     17.044
REMARK  9 active torsions:
REMARK  status: ('A' for Active; 'I' for Inactive)
REMARK    1  A    between atoms: C_3  and  C_13 
REMARK    2  A    between atoms: C_3  and  C_4 
REMARK    3  A    between atoms: C_3  and  N_21 
REMARK    4  A    between atoms: C_4  and  C_26 
REMARK    5  A    between atoms: O_5  and  C_10 
REMARK    6  A    between atoms: N_12  and  C_22 
REMARK    7  A    between atoms: C_14  and  C_22 
REMARK    8  A    between atoms: C_14  and  C_30 
REMARK       I    between atoms: C_20  and  N_21 
REMARK    9  A    between atoms: C_20  and  C_22 
ROOT
HETATM    1  C           1     -35.666  -0.784 -13.572  0.00  0.00     0.249 C 
HETATM    2  N           1     -34.833  -0.551 -14.633  0.00  0.00    -0.344 N 
HETATM    3  H           1     -33.872  -0.281 -14.472  0.00  0.00     0.163 HD
HETATM    4  O           1     -36.814  -1.107 -13.763  0.00  0.00    -0.271 OA
ENDROOT
BRANCH   1   5
HETATM    5  C           1     -35.150  -0.636 -12.161  0.00  0.00     0.278 C 
BRANCH   5   6
HETATM    6  N           1     -35.506   0.725 -11.640  0.00  0.00    -0.066 N 
HETATM    7  H           1     -36.508   0.929 -11.855  0.00  0.00     0.275 HD
HETATM    8  H           1     -35.360   0.752 -10.606  0.00  0.00     0.275 HD
HETATM    9  H           1     -34.899   1.442 -12.097  0.00  0.00     0.275 HD
ENDBRANCH   5   6
BRANCH   5  10
HETATM   10  C           1     -35.781  -1.700 -11.274  0.00  0.00     0.081 C 
BRANCH  10  11
HETATM   11  C           1     -34.932  -2.934 -11.293  0.00  0.00    -0.056 A 
HETATM   12  C           1     -35.484  -4.165 -10.938  0.00  0.00     0.010 A 
HETATM   13  C           1     -34.694  -5.314 -10.956  0.00  0.00     0.037 A 
HETATM   14  C           1     -33.352  -5.233 -11.328  0.00  0.00     0.065 A 
HETATM   15  C           1     -32.800  -4.002 -11.684  0.00  0.00     0.037 A 
HETATM   16  C           1     -33.591  -2.852 -11.666  0.00  0.00     0.010 A 
BRANCH  14  17
HETATM   17  O           1     -32.584  -6.349 -11.346  0.00  0.00    -0.361 OA
HETATM   18  H           1     -32.828  -6.893 -10.579  0.00  0.00     0.217 HD
ENDBRANCH  14  17
ENDBRANCH  10  11
ENDBRANCH   5  10
ENDBRANCH   1   5
BRANCH   2  19
HETATM   19  C           1     -35.330  -0.694 -15.988  0.00  0.00     0.191 C 
BRANCH  19  20
HETATM   20  C           1     -36.533   0.196 -16.180  0.00  0.00     0.197 C 
HETATM   21  O           1     -36.431   1.430 -16.010  0.00  0.00    -0.646 OA
HETATM   22  O           1     -37.632  -0.302 -16.507  0.00  0.00    -0.646 OA
ENDBRANCH  19  20
BRANCH  19  23
HETATM   23  C           1     -35.726  -2.143 -16.233  0.00  0.00     0.094 C 
BRANCH  23  24
HETATM   24  C           1     -34.496  -2.974 -16.416  0.00  0.00     0.028 A 
HETATM   25  C           1     -34.099  -3.982 -15.569  0.00  0.00     0.114 A 
HETATM   26  N           1     -32.940  -4.465 -16.110  0.00  0.00    -0.360 N 
HETATM   27  C           1     -32.685  -3.745 -17.242  0.00  0.00     0.180 A 
HETATM   28  H           1     -32.354  -5.247 -15.726  0.00  0.00     0.166 HD
HETATM   29  N           1     -33.608  -2.836 -17.453  0.00  0.00    -0.354 N 
ATOM     30  HN          1     -33.656  -2.169 -18.223  1.00  0.00     0.166 HD
ENDBRANCH  23  24
ENDBRANCH  19  23
ENDBRANCH   2  19
TORSDOF 9
ENDMDL
MODEL 7
REMARK VINA RESULT:      -6.8      2.485      8.161
REMARK  9 active torsions:
REMARK  status: ('A' for Active; 'I' for Inactive)
REMARK    1  A    between atoms: C_3  and  C_13 
REMARK    2  A    between atoms: C_3  and  C_4 
REMARK    3  A    between atoms: C_3  and  N_21 
REMARK    4  A    between atoms: C_4  and  C_26 
REMARK    5  A    between atoms: O_5  and  C_10 
REMARK    6  A    between atoms: N_12  and  C_22 
REMARK    7  A    between atoms: C_14  and  C_22 
REMARK    8  A    between atoms: C_14  and  C_30 
REMARK       I    between atoms: C_20  and  N_21 
REMARK    9  A    between atoms: C_20  and  C_22 
ROOT
HETATM    1  C           1     -21.412  -6.202  -4.332  0.00  0.00     0.249 C 
HETATM    2  N           1     -20.968  -5.153  -5.090  0.00  0.00    -0.344 N 
HETATM    3  H           1     -20.562  -4.341  -4.643  0.00  0.00     0.163 HD
HETATM    4  O           1     -21.898  -7.171  -4.865  0.00  0.00    -0.271 OA
ENDROOT
BRANCH   1   5
HETATM    5  C           1     -21.298  -6.148  -2.828  0.00  0.00     0.278 C 
BRANCH   5   6
HETATM    6  N           1     -22.671  -6.126  -2.223  0.00  0.00    -0.066 N 
HETATM    7  H           1     -22.733  -5.349  -1.527  0.00  0.00     0.275 HD
HETATM    8  H           1     -23.380  -5.977  -2.975  0.00  0.00     0.275 HD
HETATM    9  H           1     -22.854  -7.037  -1.745  0.00  0.00     0.275 HD
ENDBRANCH   5   6
BRANCH   5  10
HETATM   10  C           1     -20.543  -7.372  -2.330  0.00  0.00     0.081 C 
BRANCH  10  11
HETATM   11  C           1     -21.499  -8.309  -1.657  0.00  0.00    -0.056 A 
HETATM   12  C           1     -22.020  -7.990  -0.403  0.00  0.00     0.010 A 
HETATM   13  C           1     -22.910  -8.862   0.224  0.00  0.00     0.037 A 
HETATM   14  C           1     -23.278 -10.053  -0.402  0.00  0.00     0.065 A 
HETATM   15  C           1     -22.758 -10.371  -1.657  0.00  0.00     0.037 A 
HETATM   16  C           1     -21.867  -9.498  -2.284  0.00  0.00     0.010 A 
BRANCH  14  17
HETATM   17  O           1     -24.144 -10.900   0.206  0.00  0.00    -0.361 OA
HETATM   18  H           1     -24.006 -11.787  -0.165  0.00  0.00     0.217 HD
ENDBRANCH  14  17
ENDBRANCH  10  11
ENDBRANCH   5  10
ENDBRANCH   1   5
BRANCH   2  19
HETATM   19  C           1     -21.078  -5.206  -6.535  0.00  0.00     0.191 C 
BRANCH  19  20
HETATM   20  C           1     -19.741  -5.576  -7.129  0.00  0.00     0.197 C 
HETATM   21  O           1     -18.974  -4.681  -7.547  0.00  0.00    -0.646 OA
HETATM   22  O           1     -19.401  -6.776  -7.204  0.00  0.00    -0.646 OA
ENDBRANCH  19  20
BRANCH  19  23
HETATM   23  C           1     -21.508  -3.844  -7.062  0.00  0.00     0.094 C 
BRANCH  23  24
HETATM   24  C           1     -22.405  -4.026  -8.246  0.00  0.00     0.028 A 
HETATM   25  C           1     -21.969  -4.257  -9.529  0.00  0.00     0.114 A 
HETATM   26  N           1     -23.109  -4.358 -10.277  0.00  0.00    -0.360 N 
HETATM   27  C           1     -24.170  -4.189  -9.434  0.00  0.00     0.180 A 
HETATM   28  H           1     -23.160  -4.536 -11.311  0.00  0.00     0.166 HD
HETATM   29  N           1     -23.775  -3.986  -8.199  0.00  0.00    -0.354 N 
ATOM     30  HN          1     -24.361  -3.830  -7.379  1.00  0.00     0.166 HD
ENDBRANCH  23  24
ENDBRANCH  19  23
ENDBRANCH   2  19
TORSDOF 9
ENDMDL
MODEL 8
REMARK VINA RESULT:      -6.8      2.310      3.409
REMARK  9 active torsions:
REMARK  status: ('A' for Active; 'I' for Inactive)
REMARK    1  A    between atoms: C_3  and  C_13 
REMARK    2  A    between atoms: C_3  and  C_4 
REMARK    3  A    between atoms: C_3  and  N_21 
REMARK    4  A    between atoms: C_4  and  C_26 
REMARK    5  A    between atoms: O_5  and  C_10 
REMARK    6  A    between atoms: N_12  and  C_22 
REMARK    7  A    between atoms: C_14  and  C_22 
REMARK    8  A    between atoms: C_14  and  C_30 
REMARK       I    between atoms: C_20  and  N_21 
REMARK    9  A    between atoms: C_20  and  C_22 
ROOT
HETATM    1  C           1     -21.100  -6.294  -5.839  0.00  0.00     0.249 C 
HETATM    2  N           1     -21.032  -6.279  -4.472  0.00  0.00    -0.344 N 
HETATM    3  H           1     -20.705  -5.451  -3.990  0.00  0.00     0.163 HD
HETATM    4  O           1     -21.490  -7.282  -6.414  0.00  0.00    -0.271 OA
ENDROOT
BRANCH   1   5
HETATM    5  C           1     -20.685  -5.076  -6.629  0.00  0.00     0.278 C 
BRANCH   5   6
HETATM    6  N           1     -19.574  -4.370  -5.910  0.00  0.00    -0.066 N 
HETATM    7  H           1     -18.660  -4.618  -6.352  0.00  0.00     0.275 HD
HETATM    8  H           1     -19.720  -3.338  -5.970  0.00  0.00     0.275 HD
HETATM    9  H           1     -19.567  -4.664  -4.907  0.00  0.00     0.275 HD
ENDBRANCH   5   6
BRANCH   5  10
HETATM   10  C           1     -20.206  -5.504  -8.009  0.00  0.00     0.081 C 
BRANCH  10  11
HETATM   11  C           1     -20.941  -4.726  -9.057  0.00  0.00    -0.056 A 
HETATM   12  C           1     -22.264  -4.341  -8.839  0.00  0.00     0.010 A 
HETATM   13  C           1     -22.948  -3.617  -9.815  0.00  0.00     0.037 A 
HETATM   14  C           1     -22.310  -3.276 -11.008  0.00  0.00     0.065 A 
HETATM   15  C           1     -20.987  -3.660 -11.224  0.00  0.00     0.037 A 
HETATM   16  C           1     -20.302  -4.386 -10.248  0.00  0.00     0.010 A 
BRANCH  14  17
HETATM   17  O           1     -22.974  -2.572 -11.955  0.00  0.00    -0.361 OA
HETATM   18  H           1     -23.912  -2.541 -11.704  0.00  0.00     0.217 HD
ENDBRANCH  14  17
ENDBRANCH  10  11
ENDBRANCH   5  10
ENDBRANCH   1   5
BRANCH   2  19
HETATM   19  C           1     -21.431  -7.448  -3.714  0.00  0.00     0.191 C 
BRANCH  19  20
HETATM   20  C           1     -21.876  -7.028  -2.335  0.00  0.00     0.197 C 
HETATM   21  O           1     -22.315  -5.873  -2.145  0.00  0.00    -0.646 OA
HETATM   22  O           1     -21.805  -7.835  -1.383  0.00  0.00    -0.646 OA
ENDBRANCH  19  20
BRANCH  19  23
HETATM   23  C           1     -20.251  -8.404  -3.596  0.00  0.00     0.094 C 
BRANCH  23  24
HETATM   24  C           1     -20.596  -9.707  -4.246  0.00  0.00     0.028 A 
HETATM   25  C           1     -21.066 -10.813  -3.579  0.00  0.00     0.114 A 
HETATM   26  N           1     -21.245 -11.762  -4.547  0.00  0.00    -0.360 N 
HETATM   27  C           1     -20.884 -11.203  -5.741  0.00  0.00     0.180 A 
HETATM   28  H           1     -21.597 -12.740  -4.401  0.00  0.00     0.166 HD
HETATM   29  N           1     -20.487  -9.961  -5.589  0.00  0.00    -0.354 N 
ATOM     30  HN          1     -20.165  -9.322  -6.316  1.00  0.00     0.166 HD
ENDBRANCH  23  24
ENDBRANCH  19  23
ENDBRANCH   2  19
TORSDOF 9
ENDMDL
MODEL 9
REMARK VINA RESULT:      -6.8      2.010      2.672
REMARK  9 active torsions:
REMARK  status: ('A' for Active; 'I' for Inactive)
REMARK    1  A    between atoms: C_3  and  C_13 
REMARK    2  A    between atoms: C_3  and  C_4 
REMARK    3  A    between atoms: C_3  and  N_21 
REMARK    4  A    between atoms: C_4  and  C_26 
REMARK    5  A    between atoms: O_5  and  C_10 
REMARK    6  A    between atoms: N_12  and  C_22 
REMARK    7  A    between atoms: C_14  and  C_22 
REMARK    8  A    between atoms: C_14  and  C_30 
REMARK       I    between atoms: C_20  and  N_21 
REMARK    9  A    between atoms: C_20  and  C_22 
ROOT
HETATM    1  C           1     -22.498  -5.191  -6.473  0.00  0.00     0.249 C 
HETATM    2  N           1     -21.461  -5.892  -5.919  0.00  0.00    -0.344 N 
HETATM    3  H           1     -20.516  -5.738  -6.245  0.00  0.00     0.163 HD
HETATM    4  O           1     -23.628  -5.374  -6.085  0.00  0.00    -0.271 OA
ENDROOT
BRANCH   1   5
HETATM    5  C           1     -22.232  -4.189  -7.570  0.00  0.00     0.278 C 
BRANCH   5   6
HETATM    6  N           1     -21.079  -3.313  -7.177  0.00  0.00    -0.066 N 
HETATM    7  H           1     -20.267  -3.909  -6.899  0.00  0.00     0.275 HD
HETATM    8  H           1     -20.807  -2.710  -7.985  0.00  0.00     0.275 HD
HETATM    9  H           1     -21.360  -2.711  -6.370  0.00  0.00     0.275 HD
ENDBRANCH   5   6
BRANCH   5  10
HETATM   10  C           1     -21.895  -4.923  -8.859  0.00  0.00     0.081 C 
BRANCH  10  11
HETATM   11  C           1     -22.522  -4.212 -10.019  0.00  0.00    -0.056 A 
HETATM   12  C           1     -23.897  -3.976 -10.031  0.00  0.00     0.010 A 
HETATM   13  C           1     -24.480  -3.313 -11.111  0.00  0.00     0.037 A 
HETATM   14  C           1     -23.689  -2.886 -12.178  0.00  0.00     0.065 A 
HETATM   15  C           1     -22.314  -3.121 -12.165  0.00  0.00     0.037 A 
HETATM   16  C           1     -21.730  -3.785 -11.084  0.00  0.00     0.010 A 
BRANCH  14  17
HETATM   17  O           1     -24.256  -2.241 -13.226  0.00  0.00    -0.361 OA
HETATM   18  H           1     -23.552  -1.774 -13.707  0.00  0.00     0.217 HD
ENDBRANCH  14  17
ENDBRANCH  10  11
ENDBRANCH   5  10
ENDBRANCH   1   5
BRANCH   2  19
HETATM   19  C           1     -21.718  -6.854  -4.866  0.00  0.00     0.191 C 
BRANCH  19  20
HETATM   20  C           1     -21.657  -6.162  -3.526  0.00  0.00     0.197 C 
HETATM   21  O           1     -22.676  -6.106  -2.804  0.00  0.00    -0.646 OA
HETATM   22  O           1     -20.587  -5.645  -3.139  0.00  0.00    -0.646 OA
ENDBRANCH  19  20
BRANCH  19  23
HETATM   23  C           1     -20.667  -7.955  -4.917  0.00  0.00     0.094 C 
BRANCH  23  24
HETATM   24  C           1     -20.871  -8.893  -3.769  0.00  0.00     0.028 A 
HETATM   25  C           1     -21.848  -9.859  -3.712  0.00  0.00     0.114 A 
HETATM   26  N           1     -21.669 -10.474  -2.504  0.00  0.00    -0.360 N 
HETATM   27  C           1     -20.610  -9.869  -1.888  0.00  0.00     0.180 A 
HETATM   28  H           1     -22.239 -11.267  -2.120  0.00  0.00     0.166 HD
HETATM   29  N           1     -20.108  -8.909  -2.630  0.00  0.00    -0.354 N 
ATOM     30  HN          1     -19.318  -8.303  -2.406  1.00  0.00     0.166 HD
ENDBRANCH  23  24
ENDBRANCH  19  23
ENDBRANCH   2  19
TORSDOF 9
ENDMDL
