MODEL 1
REMARK VINA RESULT:      -5.5      0.000      0.000
REMARK  9 active torsions:
REMARK  status: ('A' for Active; 'I' for Inactive)
REMARK    1  A    between atoms: C_2  and  C_8 
REMARK    2  A    between atoms: S_4  and  C_18 
REMARK    3  A    between atoms: N_7  and  C_10 
REMARK       I    between atoms: N_7  and  C_20 
REMARK    4  A    between atoms: C_8  and  C_10 
REMARK    5  A    between atoms: C_10  and  C_15 
REMARK    6  A    between atoms: N_16  and  C_21 
REMARK    7  A    between atoms: C_17  and  C_21 
REMARK    8  A    between atoms: C_17  and  C_18 
REMARK    9  A    between atoms: C_20  and  C_21 
ROOT
HETATM    1  O           1     -20.208  -4.826  -5.743  0.00  0.00    -0.271 OA
HETATM    2  H           1     -21.529  -7.455  -6.834  0.00  0.00     0.163 HD
HETATM    3  N           1     -21.012  -6.860  -6.200  0.00  0.00    -0.345 N 
HETATM    4  C           1     -20.827  -5.537  -6.501  0.00  0.00     0.249 C 
ENDROOT
BRANCH   4   5
HETATM    5  C           1     -21.393  -4.967  -7.777  0.00  0.00     0.275 C 
BRANCH   5   6
HETATM    6  N           1     -22.546  -4.064  -7.453  0.00  0.00    -0.066 N 
HETATM    7  H           1     -22.803  -3.510  -8.301  0.00  0.00     0.275 HD
HETATM    8  H           1     -22.273  -3.413  -6.682  0.00  0.00     0.275 HD
HETATM    9  H           1     -23.364  -4.640  -7.150  0.00  0.00     0.275 HD
ENDBRANCH   5   6
BRANCH   5  10
HETATM   10  C           1     -20.314  -4.172  -8.502  0.00  0.00     0.053 C 
BRANCH  10  11
HETATM   11  C           1     -20.143  -4.719  -9.913  0.00  0.00     0.076 C 
BRANCH  11  12
HETATM   12  S           1     -20.832  -3.539 -11.108  0.00  0.00    -0.173 SA
HETATM   13  C           1     -22.401  -4.414 -11.368  0.00  0.00     0.089 C 
ENDBRANCH  11  12
ENDBRANCH  10  11
ENDBRANCH   5  10
ENDBRANCH   4   5
BRANCH   3  14
HETATM   14  C           1     -20.467  -7.407  -4.972  0.00  0.00     0.185 C 
BRANCH  14  15
HETATM   15  C           1     -21.571  -7.503  -3.927  0.00  0.00     0.040 C 
BRANCH  15  16
HETATM   16  C           1     -21.077  -6.919  -2.610  0.00  0.00    -0.020 C 
HETATM   17  C           1     -22.226  -6.204  -1.910  0.00  0.00     0.009 C 
HETATM   18  C           1     -20.559  -8.041  -1.721  0.00  0.00     0.009 C 
ENDBRANCH  15  16
ENDBRANCH  14  15
BRANCH  14  19
HETATM   19  C           1     -19.905  -8.781  -5.240  0.00  0.00     0.196 C 
HETATM   20  O           1     -18.711  -9.031  -4.967  0.00  0.00    -0.646 OA
HETATM   21  O           1     -20.633  -9.668  -5.733  0.00  0.00    -0.646 OA
ENDBRANCH  14  19
ENDBRANCH   3  14
TORSDOF 9
ENDMDL
MODEL 2
REMARK VINA RESULT:      -5.3      3.209      6.762
REMARK  9 active torsions:
REMARK  status: ('A' for Active; 'I' for Inactive)
REMARK    1  A    between atoms: C_2  and  C_8 
REMARK    2  A    between atoms: S_4  and  C_18 
REMARK    3  A    between atoms: N_7  and  C_10 
REMARK       I    between atoms: N_7  and  C_20 
REMARK    4  A    between atoms: C_8  and  C_10 
REMARK    5  A    between atoms: C_10  and  C_15 
REMARK    6  A    between atoms: N_16  and  C_21 
REMARK    7  A    between atoms: C_17  and  C_21 
REMARK    8  A    between atoms: C_17  and  C_18 
REMARK    9  A    between atoms: C_20  and  C_21 
ROOT
HETATM    1  O           1     -21.086  -6.989  -6.955  0.00  0.00    -0.271 OA
HETATM    2  H           1     -21.746  -3.984  -6.343  0.00  0.00     0.163 HD
HETATM    3  N           1     -21.566  -4.808  -6.901  0.00  0.00    -0.345 N 
HETATM    4  C           1     -21.301  -6.004  -6.289  0.00  0.00     0.249 C 
ENDROOT
BRANCH   4   5
HETATM    5  C           1     -21.276  -6.092  -4.783  0.00  0.00     0.275 C 
BRANCH   5   6
HETATM    6  N           1     -22.681  -6.169  -4.264  0.00  0.00    -0.066 N 
HETATM    7  H           1     -23.067  -5.203  -4.160  0.00  0.00     0.275 HD
HETATM    8  H           1     -22.684  -6.646  -3.334  0.00  0.00     0.275 HD
HETATM    9  H           1     -23.271  -6.710  -4.936  0.00  0.00     0.275 HD
ENDBRANCH   5   6
BRANCH   5  10
HETATM   10  C           1     -20.509  -7.337  -4.359  0.00  0.00     0.053 C 
BRANCH  10  11
HETATM   11  C           1     -21.382  -8.183  -3.441  0.00  0.00     0.076 C 
BRANCH  11  12
HETATM   12  S           1     -20.635  -8.251  -1.788  0.00  0.00    -0.173 SA
HETATM   13  C           1     -21.997  -7.421  -0.921  0.00  0.00     0.089 C 
ENDBRANCH  11  12
ENDBRANCH  10  11
ENDBRANCH   5  10
ENDBRANCH   4   5
BRANCH   3  14
HETATM   14  C           1     -21.590  -4.725  -8.349  0.00  0.00     0.185 C 
BRANCH  14  15
HETATM   15  C           1     -22.501  -3.581  -8.775  0.00  0.00     0.040 C 
BRANCH  15  16
HETATM   16  C           1     -23.356  -4.024  -9.954  0.00  0.00    -0.020 C 
HETATM   17  C           1     -24.782  -3.522  -9.764  0.00  0.00     0.009 C 
HETATM   18  C           1     -22.782  -3.450 -11.242  0.00  0.00     0.009 C 
ENDBRANCH  15  16
ENDBRANCH  14  15
BRANCH  14  19
HETATM   19  C           1     -20.193  -4.475  -8.861  0.00  0.00     0.196 C 
HETATM   20  O           1     -19.372  -3.849  -8.156  0.00  0.00    -0.646 OA
HETATM   21  O           1     -19.857  -4.895  -9.989  0.00  0.00    -0.646 OA
ENDBRANCH  14  19
ENDBRANCH   3  14
TORSDOF 9
ENDMDL
MODEL 3
REMARK VINA RESULT:      -5.1      2.456      3.177
REMARK  9 active torsions:
REMARK  status: ('A' for Active; 'I' for Inactive)
REMARK    1  A    between atoms: C_2  and  C_8 
REMARK    2  A    between atoms: S_4  and  C_18 
REMARK    3  A    between atoms: N_7  and  C_10 
REMARK       I    between atoms: N_7  and  C_20 
REMARK    4  A    between atoms: C_8  and  C_10 
REMARK    5  A    between atoms: C_10  and  C_15 
REMARK    6  A    between atoms: N_16  and  C_21 
REMARK    7  A    between atoms: C_17  and  C_21 
REMARK    8  A    between atoms: C_17  and  C_18 
REMARK    9  A    between atoms: C_20  and  C_21 
ROOT
HETATM    1  O           1     -21.526  -5.927  -2.928  0.00  0.00    -0.271 OA
HETATM    2  H           1     -21.030  -8.775  -4.146  0.00  0.00     0.163 HD
HETATM    3  N           1     -21.047  -8.047  -3.444  0.00  0.00    -0.345 N 
HETATM    4  C           1     -21.506  -6.798  -3.766  0.00  0.00     0.249 C 
ENDROOT
BRANCH   4   5
HETATM    5  C           1     -21.985  -6.507  -5.167  0.00  0.00     0.275 C 
BRANCH   5   6
HETATM    6  N           1     -23.420  -6.074  -5.124  0.00  0.00    -0.066 N 
HETATM    7  H           1     -23.605  -5.403  -5.904  0.00  0.00     0.275 HD
HETATM    8  H           1     -23.617  -5.608  -4.210  0.00  0.00     0.275 HD
HETATM    9  H           1     -24.039  -6.910  -5.230  0.00  0.00     0.275 HD
ENDBRANCH   5   6
BRANCH   5  10
HETATM   10  C           1     -21.138  -5.397  -5.774  0.00  0.00     0.053 C 
BRANCH  10  11
HETATM   11  C           1     -20.355  -5.946  -6.960  0.00  0.00     0.076 C 
BRANCH  11  12
HETATM   12  S           1     -20.258  -4.682  -8.259  0.00  0.00    -0.173 SA
HETATM   13  C           1     -21.805  -3.835  -7.826  0.00  0.00     0.089 C 
ENDBRANCH  11  12
ENDBRANCH  10  11
ENDBRANCH   5  10
ENDBRANCH   4   5
BRANCH   3  14
HETATM   14  C           1     -20.587  -8.325  -2.098  0.00  0.00     0.185 C 
BRANCH  14  15
HETATM   15  C           1     -21.745  -8.865  -1.269  0.00  0.00     0.040 C 
BRANCH  15  16
HETATM   16  C           1     -21.844  -8.086   0.036  0.00  0.00    -0.020 C 
HETATM   17  C           1     -23.307  -7.949   0.436  0.00  0.00     0.009 C 
HETATM   18  C           1     -21.085  -8.829   1.128  0.00  0.00     0.009 C 
ENDBRANCH  15  16
ENDBRANCH  14  15
BRANCH  14  19
HETATM   19  C           1     -19.480  -9.349  -2.146  0.00  0.00     0.196 C 
HETATM   20  O           1     -18.390  -9.066  -2.688  0.00  0.00    -0.646 OA
HETATM   21  O           1     -19.653 -10.480  -1.643  0.00  0.00    -0.646 OA
ENDBRANCH  14  19
ENDBRANCH   3  14
TORSDOF 9
ENDMDL
MODEL 4
REMARK VINA RESULT:      -5.0      2.285      3.170
REMARK  9 active torsions:
REMARK  status: ('A' for Active; 'I' for Inactive)
REMARK    1  A    between atoms: C_2  and  C_8 
REMARK    2  A    between atoms: S_4  and  C_18 
REMARK    3  A    between atoms: N_7  and  C_10 
REMARK       I    between atoms: N_7  and  C_20 
REMARK    4  A    between atoms: C_8  and  C_10 
REMARK    5  A    between atoms: C_10  and  C_15 
REMARK    6  A    between atoms: N_16  and  C_21 
REMARK    7  A    between atoms: C_17  and  C_21 
REMARK    8  A    between atoms: C_17  and  C_18 
REMARK    9  A    between atoms: C_20  and  C_21 
ROOT
HETATM    1  O           1     -22.714  -5.942  -5.432  0.00  0.00    -0.271 OA
HETATM    2  H           1     -19.841  -6.874  -4.588  0.00  0.00     0.163 HD
HETATM    3  N           1     -20.851  -6.826  -4.575  0.00  0.00    -0.345 N 
HETATM    4  C           1     -21.507  -6.000  -5.448  0.00  0.00     0.249 C 
ENDROOT
BRANCH   4   5
HETATM    5  C           1     -20.724  -5.162  -6.428  0.00  0.00     0.275 C 
BRANCH   5   6
HETATM    6  N           1     -20.059  -6.058  -7.430  0.00  0.00    -0.066 N 
HETATM    7  H           1     -19.787  -5.498  -8.271  0.00  0.00     0.275 HD
HETATM    8  H           1     -20.722  -6.814  -7.716  0.00  0.00     0.275 HD
HETATM    9  H           1     -19.205  -6.484  -7.004  0.00  0.00     0.275 HD
ENDBRANCH   5   6
BRANCH   5  10
HETATM   10  C           1     -21.667  -4.207  -7.147  0.00  0.00     0.053 C 
BRANCH  10  11
HETATM   11  C           1     -21.876  -4.682  -8.580  0.00  0.00     0.076 C 
BRANCH  11  12
HETATM   12  S           1     -23.205  -3.714  -9.350  0.00  0.00    -0.173 SA
HETATM   13  C           1     -23.720  -4.992 -10.532  0.00  0.00     0.089 C 
ENDBRANCH  11  12
ENDBRANCH  10  11
ENDBRANCH   5  10
ENDBRANCH   4   5
BRANCH   3  14
HETATM   14  C           1     -21.605  -7.630  -3.633  0.00  0.00     0.185 C 
BRANCH  14  15
HETATM   15  C           1     -20.947  -8.998  -3.496  0.00  0.00     0.040 C 
BRANCH  15  16
HETATM   16  C           1     -19.539  -8.945  -4.074  0.00  0.00    -0.020 C 
HETATM   17  C           1     -18.532  -9.310  -2.991  0.00  0.00     0.009 C 
HETATM   18  C           1     -19.427  -9.934  -5.227  0.00  0.00     0.009 C 
ENDBRANCH  15  16
ENDBRANCH  14  15
BRANCH  14  19
HETATM   19  C           1     -21.626  -6.944  -2.290  0.00  0.00     0.196 C 
HETATM   20  O           1     -22.276  -5.886  -2.139  0.00  0.00    -0.646 OA
HETATM   21  O           1     -20.996  -7.433  -1.328  0.00  0.00    -0.646 OA
ENDBRANCH  14  19
ENDBRANCH   3  14
TORSDOF 9
ENDMDL
MODEL 5
REMARK VINA RESULT:      -5.0      2.405      3.371
REMARK  9 active torsions:
REMARK  status: ('A' for Active; 'I' for Inactive)
REMARK    1  A    between atoms: C_2  and  C_8 
REMARK    2  A    between atoms: S_4  and  C_18 
REMARK    3  A    between atoms: N_7  and  C_10 
REMARK       I    between atoms: N_7  and  C_20 
REMARK    4  A    between atoms: C_8  and  C_10 
REMARK    5  A    between atoms: C_10  and  C_15 
REMARK    6  A    between atoms: N_16  and  C_21 
REMARK    7  A    between atoms: C_17  and  C_21 
REMARK    8  A    between atoms: C_17  and  C_18 
REMARK    9  A    between atoms: C_20  and  C_21 
ROOT
HETATM    1  O           1     -19.669  -8.117  -4.544  0.00  0.00    -0.271 OA
HETATM    2  H           1     -22.612  -8.335  -3.479  0.00  0.00     0.163 HD
HETATM    3  N           1     -21.612  -8.490  -3.508  0.00  0.00    -0.345 N 
HETATM    4  C           1     -20.863  -7.932  -4.509  0.00  0.00     0.249 C 
ENDROOT
BRANCH   4   5
HETATM    5  C           1     -21.526  -7.087  -5.568  0.00  0.00     0.275 C 
BRANCH   5   6
HETATM    6  N           1     -22.647  -6.303  -4.953  0.00  0.00    -0.066 N 
HETATM    7  H           1     -23.538  -6.513  -5.458  0.00  0.00     0.275 HD
HETATM    8  H           1     -22.438  -5.282  -5.024  0.00  0.00     0.275 HD
HETATM    9  H           1     -22.746  -6.570  -3.946  0.00  0.00     0.275 HD
ENDBRANCH   5   6
BRANCH   5  10
HETATM   10  C           1     -20.506  -6.129  -6.168  0.00  0.00     0.053 C 
BRANCH  10  11
HETATM   11  C           1     -21.004  -5.640  -7.523  0.00  0.00     0.076 C 
BRANCH  11  12
HETATM   12  S           1     -21.295  -3.849  -7.450  0.00  0.00    -0.173 SA
HETATM   13  C           1     -22.595  -3.809  -8.716  0.00  0.00     0.089 C 
ENDBRANCH  11  12
ENDBRANCH  10  11
ENDBRANCH   5  10
ENDBRANCH   4   5
BRANCH   3  14
HETATM   14  C           1     -20.973  -9.301  -2.491  0.00  0.00     0.185 C 
BRANCH  14  15
HETATM   15  C           1     -20.870  -8.503  -1.198  0.00  0.00     0.040 C 
BRANCH  15  16
HETATM   16  C           1     -22.230  -7.907  -0.857  0.00  0.00    -0.020 C 
HETATM   17  C           1     -22.508  -8.095   0.628  0.00  0.00     0.009 C 
HETATM   18  C           1     -22.231  -6.421  -1.191  0.00  0.00     0.009 C 
ENDBRANCH  15  16
ENDBRANCH  14  15
BRANCH  14  19
HETATM   19  C           1     -21.793 -10.545  -2.251  0.00  0.00     0.196 C 
HETATM   20  O           1     -22.766 -10.804  -2.992  0.00  0.00    -0.646 OA
HETATM   21  O           1     -21.498 -11.316  -1.313  0.00  0.00    -0.646 OA
ENDBRANCH  14  19
ENDBRANCH   3  14
TORSDOF 9
ENDMDL
MODEL 6
REMARK VINA RESULT:      -4.9      4.964      6.010
REMARK  9 active torsions:
REMARK  status: ('A' for Active; 'I' for Inactive)
REMARK    1  A    between atoms: C_2  and  C_8 
REMARK    2  A    between atoms: S_4  and  C_18 
REMARK    3  A    between atoms: N_7  and  C_10 
REMARK       I    between atoms: N_7  and  C_20 
REMARK    4  A    between atoms: C_8  and  C_10 
REMARK    5  A    between atoms: C_10  and  C_15 
REMARK    6  A    between atoms: N_16  and  C_21 
REMARK    7  A    between atoms: C_17  and  C_21 
REMARK    8  A    between atoms: C_17  and  C_18 
REMARK    9  A    between atoms: C_20  and  C_21 
ROOT
HETATM    1  O           1     -22.060 -10.238  -3.557  0.00  0.00    -0.271 OA
HETATM    2  H           1     -19.809  -8.062  -3.355  0.00  0.00     0.163 HD
HETATM    3  N           1     -20.694  -8.514  -3.166  0.00  0.00    -0.345 N 
HETATM    4  C           1     -21.003  -9.697  -3.782  0.00  0.00     0.249 C 
ENDROOT
BRANCH   4   5
HETATM    5  C           1     -20.025 -10.325  -4.744  0.00  0.00     0.275 C 
BRANCH   5   6
HETATM    6  N           1     -20.666 -10.461  -6.092  0.00  0.00    -0.066 N 
HETATM    7  H           1     -19.930 -10.640  -6.812  0.00  0.00     0.275 HD
HETATM    8  H           1     -21.174  -9.578  -6.327  0.00  0.00     0.275 HD
HETATM    9  H           1     -21.342 -11.258  -6.078  0.00  0.00     0.275 HD
ENDBRANCH   5   6
BRANCH   5  10
HETATM   10  C           1     -18.787  -9.446  -4.856  0.00  0.00     0.053 C 
BRANCH  10  11
HETATM   11  C           1     -17.715 -10.177  -5.654  0.00  0.00     0.076 C 
BRANCH  11  12
HETATM   12  S           1     -16.118 -10.028  -4.802  0.00  0.00    -0.173 SA
HETATM   13  C           1     -16.802  -9.597  -3.177  0.00  0.00     0.089 C 
ENDBRANCH  11  12
ENDBRANCH  10  11
ENDBRANCH   5  10
ENDBRANCH   4   5
BRANCH   3  14
HETATM   14  C           1     -21.635  -7.911  -2.242  0.00  0.00     0.185 C 
BRANCH  14  15
HETATM   15  C           1     -21.013  -7.851  -0.853  0.00  0.00     0.040 C 
BRANCH  15  16
HETATM   16  C           1     -21.799  -8.745   0.096  0.00  0.00    -0.020 C 
HETATM   17  C           1     -21.009  -8.936   1.384  0.00  0.00     0.009 C 
HETATM   18  C           1     -23.139  -8.095   0.412  0.00  0.00     0.009 C 
ENDBRANCH  15  16
ENDBRANCH  14  15
BRANCH  14  19
HETATM   19  C           1     -21.971  -6.516  -2.706  0.00  0.00     0.196 C 
HETATM   20  O           1     -22.153  -5.606  -1.868  0.00  0.00    -0.646 OA
HETATM   21  O           1     -22.065  -6.269  -3.927  0.00  0.00    -0.646 OA
ENDBRANCH  14  19
ENDBRANCH   3  14
TORSDOF 9
ENDMDL
MODEL 7
REMARK VINA RESULT:      -4.9      3.822      5.638
REMARK  9 active torsions:
REMARK  status: ('A' for Active; 'I' for Inactive)
REMARK    1  A    between atoms: C_2  and  C_8 
REMARK    2  A    between atoms: S_4  and  C_18 
REMARK    3  A    between atoms: N_7  and  C_10 
REMARK       I    between atoms: N_7  and  C_20 
REMARK    4  A    between atoms: C_8  and  C_10 
REMARK    5  A    between atoms: C_10  and  C_15 
REMARK    6  A    between atoms: N_16  and  C_21 
REMARK    7  A    between atoms: C_17  and  C_21 
REMARK    8  A    between atoms: C_17  and  C_18 
REMARK    9  A    between atoms: C_20  and  C_21 
ROOT
HETATM    1  O           1     -22.415 -10.235  -3.506  0.00  0.00    -0.271 OA
HETATM    2  H           1     -20.557  -8.258  -1.931  0.00  0.00     0.163 HD
HETATM    3  N           1     -21.335  -8.884  -2.093  0.00  0.00    -0.345 N 
HETATM    4  C           1     -21.485  -9.488  -3.313  0.00  0.00     0.249 C 
ENDROOT
BRANCH   4   5
HETATM    5  C           1     -20.491  -9.219  -4.415  0.00  0.00     0.275 C 
BRANCH   5   6
HETATM    6  N           1     -20.981  -9.836  -5.691  0.00  0.00    -0.066 N 
HETATM    7  H           1     -20.768 -10.859  -5.687  0.00  0.00     0.275 HD
HETATM    8  H           1     -20.501  -9.385  -6.503  0.00  0.00     0.275 HD
HETATM    9  H           1     -22.013  -9.694  -5.772  0.00  0.00     0.275 HD
ENDBRANCH   5   6
BRANCH   5  10
HETATM   10  C           1     -20.335  -7.716  -4.604  0.00  0.00     0.053 C 
BRANCH  10  11
HETATM   11  C           1     -21.534  -7.174  -5.373  0.00  0.00     0.076 C 
BRANCH  11  12
HETATM   12  S           1     -20.956  -6.087  -6.707  0.00  0.00    -0.173 SA
HETATM   13  C           1     -20.315  -4.774  -5.629  0.00  0.00     0.089 C 
ENDBRANCH  11  12
ENDBRANCH  10  11
ENDBRANCH   5  10
ENDBRANCH   4   5
BRANCH   3  14
HETATM   14  C           1     -22.292  -9.143  -1.034  0.00  0.00     0.185 C 
BRANCH  14  15
HETATM   15  C           1     -21.723 -10.187  -0.083  0.00  0.00     0.040 C 
BRANCH  15  16
HETATM   16  C           1     -22.493 -11.492  -0.239  0.00  0.00    -0.020 C 
HETATM   17  C           1     -22.096 -12.452   0.874  0.00  0.00     0.009 C 
HETATM   18  C           1     -23.987 -11.211  -0.160  0.00  0.00     0.009 C 
ENDBRANCH  15  16
ENDBRANCH  14  15
BRANCH  14  19
HETATM   19  C           1     -22.563  -7.866  -0.278  0.00  0.00     0.196 C 
HETATM   20  O           1     -22.646  -6.781  -0.894  0.00  0.00    -0.646 OA
HETATM   21  O           1     -22.705  -7.893   0.963  0.00  0.00    -0.646 OA
ENDBRANCH  14  19
ENDBRANCH   3  14
TORSDOF 9
ENDMDL
MODEL 8
REMARK VINA RESULT:      -4.9      3.468      6.190
REMARK  9 active torsions:
REMARK  status: ('A' for Active; 'I' for Inactive)
REMARK    1  A    between atoms: C_2  and  C_8 
REMARK    2  A    between atoms: S_4  and  C_18 
REMARK    3  A    between atoms: N_7  and  C_10 
REMARK       I    between atoms: N_7  and  C_20 
REMARK    4  A    between atoms: C_8  and  C_10 
REMARK    5  A    between atoms: C_10  and  C_15 
REMARK    6  A    between atoms: N_16  and  C_21 
REMARK    7  A    between atoms: C_17  and  C_21 
REMARK    8  A    between atoms: C_17  and  C_18 
REMARK    9  A    between atoms: C_20  and  C_21 
ROOT
HETATM    1  O           1     -19.408  -8.571  -3.893  0.00  0.00    -0.271 OA
HETATM    2  H           1     -21.334  -8.556  -6.370  0.00  0.00     0.163 HD
HETATM    3  N           1     -20.766  -8.178  -5.623  0.00  0.00    -0.345 N 
HETATM    4  C           1     -20.087  -9.023  -4.786  0.00  0.00     0.249 C 
ENDROOT
BRANCH   4   5
HETATM    5  C           1     -20.185 -10.515  -4.977  0.00  0.00     0.275 C 
BRANCH   5   6
HETATM    6  N           1     -20.770 -10.809  -6.326  0.00  0.00    -0.066 N 
HETATM    7  H           1     -21.247 -11.739  -6.304  0.00  0.00     0.275 HD
HETATM    8  H           1     -20.007 -10.827  -7.041  0.00  0.00     0.275 HD
HETATM    9  H           1     -21.463 -10.067  -6.574  0.00  0.00     0.275 HD
ENDBRANCH   5   6
BRANCH   5  10
HETATM   10  C           1     -18.797 -11.133  -4.880  0.00  0.00     0.053 C 
BRANCH  10  11
HETATM   11  C           1     -18.115 -11.067  -6.241  0.00  0.00     0.076 C 
BRANCH  11  12
HETATM   12  S           1     -16.316 -11.182  -6.023  0.00  0.00    -0.173 SA
HETATM   13  C           1     -16.201  -9.960  -4.684  0.00  0.00     0.089 C 
ENDBRANCH  11  12
ENDBRANCH  10  11
ENDBRANCH   5  10
ENDBRANCH   4   5
BRANCH   3  14
HETATM   14  C           1     -20.671  -6.743  -5.438  0.00  0.00     0.185 C 
BRANCH  14  15
HETATM   15  C           1     -20.735  -6.053  -6.795  0.00  0.00     0.040 C 
BRANCH  15  16
HETATM   16  C           1     -20.245  -4.618  -6.660  0.00  0.00    -0.020 C 
HETATM   17  C           1     -18.955  -4.445  -7.450  0.00  0.00     0.009 C 
HETATM   18  C           1     -21.305  -3.667  -7.201  0.00  0.00     0.009 C 
ENDBRANCH  15  16
ENDBRANCH  14  15
BRANCH  14  19
HETATM   19  C           1     -21.815  -6.270  -4.577  0.00  0.00     0.196 C 
HETATM   20  O           1     -22.978  -6.251  -5.038  0.00  0.00    -0.646 OA
HETATM   21  O           1     -21.601  -5.897  -3.404  0.00  0.00    -0.646 OA
ENDBRANCH  14  19
ENDBRANCH   3  14
TORSDOF 9
ENDMDL
MODEL 9
REMARK VINA RESULT:      -4.8      3.756      6.730
REMARK  9 active torsions:
REMARK  status: ('A' for Active; 'I' for Inactive)
REMARK    1  A    between atoms: C_2  and  C_8 
REMARK    2  A    between atoms: S_4  and  C_18 
REMARK    3  A    between atoms: N_7  and  C_10 
REMARK       I    between atoms: N_7  and  C_20 
REMARK    4  A    between atoms: C_8  and  C_10 
REMARK    5  A    between atoms: C_10  and  C_15 
REMARK    6  A    between atoms: N_16  and  C_21 
REMARK    7  A    between atoms: C_17  and  C_21 
REMARK    8  A    between atoms: C_17  and  C_18 
REMARK    9  A    between atoms: C_20  and  C_21 
ROOT
HETATM    1  O           1     -19.848  -8.865  -4.276  0.00  0.00    -0.271 OA
HETATM    2  H           1     -21.862  -8.442  -6.643  0.00  0.00     0.163 HD
HETATM    3  N           1     -21.220  -8.189  -5.904  0.00  0.00    -0.345 N 
HETATM    4  C           1     -20.615  -9.167  -5.159  0.00  0.00     0.249 C 
ENDROOT
BRANCH   4   5
HETATM    5  C           1     -20.908 -10.620  -5.441  0.00  0.00     0.275 C 
BRANCH   5   6
HETATM    6  N           1     -19.797 -11.203  -6.262  0.00  0.00    -0.066 N 
HETATM    7  H           1     -19.202 -10.432  -6.641  0.00  0.00     0.275 HD
HETATM    8  H           1     -20.200 -11.753  -7.054  0.00  0.00     0.275 HD
HETATM    9  H           1     -19.214 -11.831  -5.663  0.00  0.00     0.275 HD
ENDBRANCH   5   6
BRANCH   5  10
HETATM   10  C           1     -21.021 -11.380  -4.126  0.00  0.00     0.053 C 
BRANCH  10  11
HETATM   11  C           1     -22.421 -11.200  -3.554  0.00  0.00     0.076 C 
BRANCH  11  12
HETATM   12  S           1     -22.305 -10.527  -1.871  0.00  0.00    -0.173 SA
HETATM   13  C           1     -23.823 -11.302  -1.244  0.00  0.00     0.089 C 
ENDBRANCH  11  12
ENDBRANCH  10  11
ENDBRANCH   5  10
ENDBRANCH   4   5
BRANCH   3  14
HETATM   14  C           1     -20.938  -6.793  -5.633  0.00  0.00     0.185 C 
BRANCH  14  15
HETATM   15  C           1     -20.959  -6.010  -6.939  0.00  0.00     0.040 C 
BRANCH  15  16
HETATM   16  C           1     -20.367  -4.625  -6.711  0.00  0.00    -0.020 C 
HETATM   17  C           1     -19.040  -4.513  -7.448  0.00  0.00     0.009 C 
HETATM   18  C           1     -21.331  -3.569  -7.235  0.00  0.00     0.009 C 
ENDBRANCH  15  16
ENDBRANCH  14  15
BRANCH  14  19
HETATM   19  C           1     -21.984  -6.242  -4.697  0.00  0.00     0.196 C 
HETATM   20  O           1     -23.157  -6.075  -5.098  0.00  0.00    -0.646 OA
HETATM   21  O           1     -21.680  -5.952  -3.520  0.00  0.00    -0.646 OA
ENDBRANCH  14  19
ENDBRANCH   3  14
TORSDOF 9
ENDMDL
