MODEL 1
REMARK VINA RESULT:     -10.3      0.000      0.000
REMARK  11 active torsions:
REMARK  status: ('A' for Active; 'I' for Inactive)
REMARK    1  A    between atoms: O_2  and  C_3 
REMARK    2  A    between atoms: O_2  and  P_37 
REMARK    3  A    between atoms: C_11  and  C_17 
REMARK    4  A    between atoms: C_17  and  C_18 
REMARK    5  A    between atoms: C_17  and  N_35 
REMARK    6  A    between atoms: C_18  and  C_19 
REMARK    7  A    between atoms: C_22  and  C_23 
REMARK    8  A    between atoms: C_23  and  C_29 
REMARK    9  A    between atoms: N_24  and  C_29 
REMARK   10  A    between atoms: O_25  and  P_37 
REMARK   11  A    between atoms: C_29  and  C_30 
REMARK       I    between atoms: C_30  and  N_35 
ROOT
HETATM    1  O           1     -21.566  -7.344  -4.837  0.00  0.00    -0.271 OA
HETATM    2  C           1     -21.270  -6.315  -4.277  0.00  0.00     0.249 C 
HETATM    3  N           1     -20.955  -5.203  -5.011  0.00  0.00    -0.344 N 
HETATM    4  H           1     -20.707  -4.341  -4.543  0.00  0.00     0.163 HD
ENDROOT
BRANCH   3   5
HETATM    5  C           1     -20.976  -5.260  -6.460  0.00  0.00     0.189 C 
BRANCH   5   6
HETATM    6  C           1     -19.597  -5.600  -6.971  0.00  0.00     0.197 C 
HETATM    7  O           1     -19.306  -6.785  -7.242  0.00  0.00    -0.646 OA
HETATM    8  O           1     -18.747  -4.697  -7.124  0.00  0.00    -0.646 OA
ENDBRANCH   5   6
BRANCH   5   9
HETATM    9  C           1     -21.403  -3.908  -7.015  0.00  0.00     0.074 C 
BRANCH   9  10
HETATM   10  C           1     -22.003  -4.094  -8.375  0.00  0.00    -0.056 A 
HETATM   11  C           1     -21.176  -4.227  -9.490  0.00  0.00     0.010 A 
HETATM   12  C           1     -21.735  -4.400 -10.756  0.00  0.00     0.038 A 
HETATM   13  C           1     -23.121  -4.440 -10.907  0.00  0.00     0.081 A 
HETATM   14  C           1     -23.948  -4.306  -9.792  0.00  0.00     0.038 A 
HETATM   15  C           1     -23.389  -4.134  -8.526  0.00  0.00     0.010 A 
BRANCH  13  16
HETATM   16  O           1     -23.664  -4.608 -12.136  0.00  0.00    -0.247 OA
BRANCH  16  17
HETATM   17  P           1     -24.010  -3.287 -13.000  0.00  0.00     0.411 P 
HETATM   18  O           1     -23.102  -2.187 -12.605  0.00  0.00    -0.624 OA
HETATM   19  O           1     -25.412  -2.886 -12.748  0.00  0.00    -0.624 OA
BRANCH  17  20
HETATM   20  O           1     -23.816  -3.607 -14.571  0.00  0.00    -0.300 OA
HETATM   21  H           1     -23.531  -2.794 -14.953  0.00  0.00     0.223 HD
ENDBRANCH  17  20
ENDBRANCH  16  17
ENDBRANCH  13  16
ENDBRANCH   9  10
ENDBRANCH   5   9
ENDBRANCH   3   5
BRANCH   2  22
HETATM   22  C           1     -21.248  -6.255  -2.770  0.00  0.00     0.278 C 
BRANCH  22  23
HETATM   23  C           1     -20.690  -7.560  -2.217  0.00  0.00     0.083 C 
BRANCH  23  24
HETATM   24  C           1     -21.655  -8.137  -1.229  0.00  0.00    -0.028 A 
HETATM   25  C           1     -22.033  -7.565  -0.036  0.00  0.00     0.096 A 
HETATM   26  N           1     -22.927  -8.409   0.569  0.00  0.00    -0.365 N 
HETATM   27  C           1     -23.135  -9.522  -0.214  0.00  0.00     0.042 A 
HETATM   28  H           1     -23.387  -8.232   1.495  0.00  0.00     0.165 HD
HETATM   29  C           1     -23.954 -10.637  -0.002  0.00  0.00     0.030 A 
HETATM   30  C           1     -22.344  -9.375  -1.354  0.00  0.00    -0.002 A 
HETATM   31  C           1     -23.963 -11.631  -0.987  0.00  0.00     0.002 A 
HETATM   32  C           1     -23.183 -11.510  -2.135  0.00  0.00     0.001 A 
HETATM   33  C           1     -22.368 -10.388  -2.331  0.00  0.00     0.014 A 
ENDBRANCH  23  24
ENDBRANCH  22  23
BRANCH  22  34
HETATM   34  N           1     -22.643  -6.051  -2.258  0.00  0.00    -0.066 N 
HETATM   35  H           1     -23.059  -6.976  -2.004  0.00  0.00     0.275 HD
HETATM   36  H           1     -22.617  -5.437  -1.413  0.00  0.00     0.275 HD
HETATM   37  H           1     -23.224  -5.600  -2.999  0.00  0.00     0.275 HD
ENDBRANCH  22  34
ENDBRANCH   2  22
TORSDOF 11
ENDMDL
MODEL 2
REMARK VINA RESULT:      -9.9      1.473      2.484
REMARK  11 active torsions:
REMARK  status: ('A' for Active; 'I' for Inactive)
REMARK    1  A    between atoms: O_2  and  C_3 
REMARK    2  A    between atoms: O_2  and  P_37 
REMARK    3  A    between atoms: C_11  and  C_17 
REMARK    4  A    between atoms: C_17  and  C_18 
REMARK    5  A    between atoms: C_17  and  N_35 
REMARK    6  A    between atoms: C_18  and  C_19 
REMARK    7  A    between atoms: C_22  and  C_23 
REMARK    8  A    between atoms: C_23  and  C_29 
REMARK    9  A    between atoms: N_24  and  C_29 
REMARK   10  A    between atoms: O_25  and  P_37 
REMARK   11  A    between atoms: C_29  and  C_30 
REMARK       I    between atoms: C_30  and  N_35 
ROOT
HETATM    1  O           1     -19.797  -7.224  -6.726  0.00  0.00    -0.271 OA
HETATM    2  C           1     -20.846  -7.212  -6.128  0.00  0.00     0.249 C 
HETATM    3  N           1     -21.760  -6.221  -6.368  0.00  0.00    -0.344 N 
HETATM    4  H           1     -22.639  -6.211  -5.868  0.00  0.00     0.163 HD
ENDROOT
BRANCH   3   5
HETATM    5  C           1     -21.467  -5.185  -7.339  0.00  0.00     0.189 C 
BRANCH   5   6
HETATM    6  C           1     -20.270  -4.389  -6.881  0.00  0.00     0.197 C 
HETATM    7  O           1     -20.139  -4.097  -5.672  0.00  0.00    -0.646 OA
HETATM    8  O           1     -19.409  -4.022  -7.709  0.00  0.00    -0.646 OA
ENDBRANCH   5   6
BRANCH   5   9
HETATM    9  C           1     -22.669  -4.260  -7.473  0.00  0.00     0.074 C 
BRANCH   9  10
HETATM   10  C           1     -23.062  -4.157  -8.915  0.00  0.00    -0.056 A 
HETATM   11  C           1     -24.234  -3.490  -9.272  0.00  0.00     0.010 A 
HETATM   12  C           1     -24.600  -3.392 -10.614  0.00  0.00     0.038 A 
HETATM   13  C           1     -23.793  -3.962 -11.599  0.00  0.00     0.081 A 
HETATM   14  C           1     -22.621  -4.629 -11.242  0.00  0.00     0.038 A 
HETATM   15  C           1     -22.256  -4.725  -9.900  0.00  0.00     0.010 A 
BRANCH  13  16
HETATM   16  O           1     -24.148  -3.868 -12.903  0.00  0.00    -0.247 OA
BRANCH  16  17
HETATM   17  P           1     -23.634  -2.585 -13.739  0.00  0.00     0.411 P 
HETATM   18  O           1     -23.131  -3.025 -15.059  0.00  0.00    -0.624 OA
HETATM   19  O           1     -22.545  -1.914 -12.994  0.00  0.00    -0.624 OA
BRANCH  17  20
HETATM   20  O           1     -24.860  -1.553 -13.947  0.00  0.00    -0.300 OA
HETATM   21  H           1     -24.820  -1.308 -14.856  0.00  0.00     0.223 HD
ENDBRANCH  17  20
ENDBRANCH  16  17
ENDBRANCH  13  16
ENDBRANCH   9  10
ENDBRANCH   5   9
ENDBRANCH   3   5
BRANCH   2  22
HETATM   22  C           1     -21.151  -8.290  -5.117  0.00  0.00     0.278 C 
BRANCH  22  23
HETATM   23  C           1     -20.291  -8.082  -3.877  0.00  0.00     0.083 C 
BRANCH  23  24
HETATM   24  C           1     -21.118  -7.463  -2.794  0.00  0.00    -0.028 A 
HETATM   25  C           1     -21.491  -6.141  -2.714  0.00  0.00     0.096 A 
HETATM   26  N           1     -22.237  -5.984  -1.576  0.00  0.00    -0.365 N 
HETATM   27  C           1     -22.354  -7.186  -0.915  0.00  0.00     0.042 A 
HETATM   28  H           1     -22.660  -5.079  -1.255  0.00  0.00     0.165 HD
HETATM   29  C           1     -23.017  -7.502   0.277  0.00  0.00     0.030 A 
HETATM   30  C           1     -21.656  -8.135  -1.662  0.00  0.00    -0.002 A 
HETATM   31  C           1     -22.963  -8.829   0.715  0.00  0.00     0.002 A 
HETATM   32  C           1     -22.274  -9.798  -0.011  0.00  0.00     0.001 A 
HETATM   33  C           1     -21.615  -9.465  -1.201  0.00  0.00     0.014 A 
ENDBRANCH  23  24
ENDBRANCH  22  23
BRANCH  22  34
HETATM   34  N           1     -20.850  -9.634  -5.714  0.00  0.00    -0.066 N 
HETATM   35  H           1     -19.920  -9.603  -6.189  0.00  0.00     0.275 HD
HETATM   36  H           1     -20.832 -10.354  -4.957  0.00  0.00     0.275 HD
HETATM   37  H           1     -21.589  -9.880  -6.411  0.00  0.00     0.275 HD
ENDBRANCH  22  34
ENDBRANCH   2  22
TORSDOF 11
ENDMDL
MODEL 3
REMARK VINA RESULT:      -9.6      4.509     10.121
REMARK  11 active torsions:
REMARK  status: ('A' for Active; 'I' for Inactive)
REMARK    1  A    between atoms: O_2  and  C_3 
REMARK    2  A    between atoms: O_2  and  P_37 
REMARK    3  A    between atoms: C_11  and  C_17 
REMARK    4  A    between atoms: C_17  and  C_18 
REMARK    5  A    between atoms: C_17  and  N_35 
REMARK    6  A    between atoms: C_18  and  C_19 
REMARK    7  A    between atoms: C_22  and  C_23 
REMARK    8  A    between atoms: C_23  and  C_29 
REMARK    9  A    between atoms: N_24  and  C_29 
REMARK   10  A    between atoms: O_25  and  P_37 
REMARK   11  A    between atoms: C_29  and  C_30 
REMARK       I    between atoms: C_30  and  N_35 
ROOT
HETATM    1  O           1     -19.776  -6.611  -6.890  0.00  0.00    -0.271 OA
HETATM    2  C           1     -20.046  -5.480  -6.563  0.00  0.00     0.249 C 
HETATM    3  N           1     -20.637  -5.240  -5.352  0.00  0.00    -0.344 N 
HETATM    4  H           1     -20.863  -4.293  -5.077  0.00  0.00     0.163 HD
ENDROOT
BRANCH   3   5
HETATM    5  C           1     -20.938  -6.344  -4.461  0.00  0.00     0.189 C 
BRANCH   5   6
HETATM    6  C           1     -22.243  -6.981  -4.872  0.00  0.00     0.197 C 
HETATM    7  O           1     -23.264  -6.275  -5.019  0.00  0.00    -0.646 OA
HETATM    8  O           1     -22.302  -8.214  -5.066  0.00  0.00    -0.646 OA
ENDBRANCH   5   6
BRANCH   5   9
HETATM    9  C           1     -21.055  -5.827  -3.033  0.00  0.00     0.074 C 
BRANCH   9  10
HETATM   10  C           1     -21.253  -6.981  -2.099  0.00  0.00    -0.056 A 
HETATM   11  C           1     -22.314  -6.969  -1.193  0.00  0.00     0.010 A 
HETATM   12  C           1     -22.500  -8.043  -0.323  0.00  0.00     0.038 A 
HETATM   13  C           1     -21.625  -9.129  -0.359  0.00  0.00     0.081 A 
HETATM   14  C           1     -20.564  -9.140  -1.264  0.00  0.00     0.038 A 
HETATM   15  C           1     -20.379  -8.066  -2.135  0.00  0.00     0.010 A 
BRANCH  13  16
HETATM   16  O           1     -21.805 -10.172   0.486  0.00  0.00    -0.247 OA
BRANCH  16  17
HETATM   17  P           1     -22.771 -11.375   0.011  0.00  0.00     0.411 P 
HETATM   18  O           1     -24.175 -10.908   0.003  0.00  0.00    -0.624 OA
HETATM   19  O           1     -22.635 -12.516   0.944  0.00  0.00    -0.624 OA
BRANCH  17  20
HETATM   20  O           1     -22.353 -11.844  -1.478  0.00  0.00    -0.300 OA
HETATM   21  H           1     -23.091 -12.336  -1.795  0.00  0.00     0.223 HD
ENDBRANCH  17  20
ENDBRANCH  16  17
ENDBRANCH  13  16
ENDBRANCH   9  10
ENDBRANCH   5   9
ENDBRANCH   3   5
BRANCH   2  22
HETATM   22  C           1     -19.733  -4.332  -7.490  0.00  0.00     0.278 C 
BRANCH  22  23
HETATM   23  C           1     -20.184  -4.680  -8.902  0.00  0.00     0.083 C 
BRANCH  23  24
HETATM   24  C           1     -21.618  -4.288  -9.079  0.00  0.00    -0.028 A 
HETATM   25  C           1     -22.578  -4.257  -8.094  0.00  0.00     0.096 A 
HETATM   26  N           1     -23.754  -3.848  -8.666  0.00  0.00    -0.365 N 
HETATM   27  C           1     -23.572  -3.613 -10.010  0.00  0.00     0.042 A 
HETATM   28  H           1     -24.662  -3.730  -8.154  0.00  0.00     0.165 HD
HETATM   29  C           1     -24.481  -3.187 -10.985  0.00  0.00     0.030 A 
HETATM   30  C           1     -22.233  -3.884 -10.296  0.00  0.00    -0.002 A 
HETATM   31  C           1     -24.004  -3.034 -12.292  0.00  0.00     0.002 A 
HETATM   32  C           1     -22.672  -3.297 -12.606  0.00  0.00     0.001 A 
HETATM   33  C           1     -21.776  -3.723 -11.618  0.00  0.00     0.014 A 
ENDBRANCH  23  24
ENDBRANCH  22  23
BRANCH  22  34
HETATM   34  N           1     -18.254  -4.077  -7.487  0.00  0.00    -0.066 N 
HETATM   35  H           1     -18.072  -3.084  -7.214  0.00  0.00     0.275 HD
HETATM   36  H           1     -17.792  -4.718  -6.803  0.00  0.00     0.275 HD
HETATM   37  H           1     -17.868  -4.252  -8.443  0.00  0.00     0.275 HD
ENDBRANCH  22  34
ENDBRANCH   2  22
TORSDOF 11
ENDMDL
MODEL 4
REMARK VINA RESULT:      -9.5      1.823      2.639
REMARK  11 active torsions:
REMARK  status: ('A' for Active; 'I' for Inactive)
REMARK    1  A    between atoms: O_2  and  C_3 
REMARK    2  A    between atoms: O_2  and  P_37 
REMARK    3  A    between atoms: C_11  and  C_17 
REMARK    4  A    between atoms: C_17  and  C_18 
REMARK    5  A    between atoms: C_17  and  N_35 
REMARK    6  A    between atoms: C_18  and  C_19 
REMARK    7  A    between atoms: C_22  and  C_23 
REMARK    8  A    between atoms: C_23  and  C_29 
REMARK    9  A    between atoms: N_24  and  C_29 
REMARK   10  A    between atoms: O_25  and  P_37 
REMARK   11  A    between atoms: C_29  and  C_30 
REMARK       I    between atoms: C_30  and  N_35 
ROOT
HETATM    1  O           1     -18.973  -7.712  -6.467  0.00  0.00    -0.271 OA
HETATM    2  C           1     -19.989  -7.877  -5.836  0.00  0.00     0.249 C 
HETATM    3  N           1     -21.010  -6.969  -5.931  0.00  0.00    -0.344 N 
HETATM    4  H           1     -21.861  -7.106  -5.403  0.00  0.00     0.163 HD
ENDROOT
BRANCH   3   5
HETATM    5  C           1     -20.869  -5.809  -6.790  0.00  0.00     0.189 C 
BRANCH   5   6
HETATM    6  C           1     -19.873  -4.851  -6.184  0.00  0.00     0.197 C 
HETATM    7  O           1     -20.027  -4.449  -5.010  0.00  0.00    -0.646 OA
HETATM    8  O           1     -18.894  -4.460  -6.855  0.00  0.00    -0.646 OA
ENDBRANCH   5   6
BRANCH   5   9
HETATM    9  C           1     -22.217  -5.115  -6.931  0.00  0.00     0.074 C 
BRANCH   9  10
HETATM   10  C           1     -22.336  -4.527  -8.303  0.00  0.00    -0.056 A 
HETATM   11  C           1     -21.299  -4.686  -9.222  0.00  0.00     0.010 A 
HETATM   12  C           1     -21.409  -4.139 -10.500  0.00  0.00     0.038 A 
HETATM   13  C           1     -22.557  -3.433 -10.859  0.00  0.00     0.081 A 
HETATM   14  C           1     -23.594  -3.273  -9.940  0.00  0.00     0.038 A 
HETATM   15  C           1     -23.483  -3.821  -8.662  0.00  0.00     0.010 A 
BRANCH  13  16
HETATM   16  O           1     -22.664  -2.901 -12.101  0.00  0.00    -0.247 OA
BRANCH  16  17
HETATM   17  P           1     -23.842  -3.448 -13.061  0.00  0.00     0.411 P 
HETATM   18  O           1     -25.076  -2.665 -12.824  0.00  0.00    -0.624 OA
HETATM   19  O           1     -24.098  -4.875 -12.765  0.00  0.00    -0.624 OA
BRANCH  17  20
HETATM   20  O           1     -23.394  -3.290 -14.605  0.00  0.00    -0.300 OA
HETATM   21  H           1     -22.513  -3.623 -14.639  0.00  0.00     0.223 HD
ENDBRANCH  17  20
ENDBRANCH  16  17
ENDBRANCH  13  16
ENDBRANCH   9  10
ENDBRANCH   5   9
ENDBRANCH   3   5
BRANCH   2  22
HETATM   22  C           1     -20.136  -9.084  -4.942  0.00  0.00     0.278 C 
BRANCH  22  23
HETATM   23  C           1     -19.159  -8.976  -3.778  0.00  0.00     0.083 C 
BRANCH  23  24
HETATM   24  C           1     -19.860  -9.331  -2.504  0.00  0.00    -0.028 A 
HETATM   25  C           1     -19.703 -10.497  -1.790  0.00  0.00     0.096 A 
HETATM   26  N           1     -20.520 -10.429  -0.692  0.00  0.00    -0.365 N 
HETATM   27  C           1     -21.206  -9.235  -0.683  0.00  0.00     0.042 A 
HETATM   28  H           1     -20.609 -11.178   0.037  0.00  0.00     0.165 HD
HETATM   29  C           1     -22.140  -8.736   0.232  0.00  0.00     0.030 A 
HETATM   30  C           1     -20.808  -8.525  -1.815  0.00  0.00    -0.002 A 
HETATM   31  C           1     -22.682  -7.471  -0.021  0.00  0.00     0.002 A 
HETATM   32  C           1     -22.303  -6.739  -1.144  0.00  0.00     0.001 A 
HETATM   33  C           1     -21.367  -7.254  -2.050  0.00  0.00     0.014 A 
ENDBRANCH  23  24
ENDBRANCH  22  23
BRANCH  22  34
HETATM   34  N           1     -19.840 -10.327  -5.729  0.00  0.00    -0.066 N 
HETATM   35  H           1     -19.389 -10.066  -6.635  0.00  0.00     0.275 HD
HETATM   36  H           1     -19.194 -10.939  -5.181  0.00  0.00     0.275 HD
HETATM   37  H           1     -20.730 -10.840  -5.918  0.00  0.00     0.275 HD
ENDBRANCH  22  34
ENDBRANCH   2  22
TORSDOF 11
ENDMDL
MODEL 5
REMARK VINA RESULT:      -9.2      4.837     10.031
REMARK  11 active torsions:
REMARK  status: ('A' for Active; 'I' for Inactive)
REMARK    1  A    between atoms: O_2  and  C_3 
REMARK    2  A    between atoms: O_2  and  P_37 
REMARK    3  A    between atoms: C_11  and  C_17 
REMARK    4  A    between atoms: C_17  and  C_18 
REMARK    5  A    between atoms: C_17  and  N_35 
REMARK    6  A    between atoms: C_18  and  C_19 
REMARK    7  A    between atoms: C_22  and  C_23 
REMARK    8  A    between atoms: C_23  and  C_29 
REMARK    9  A    between atoms: N_24  and  C_29 
REMARK   10  A    between atoms: O_25  and  P_37 
REMARK   11  A    between atoms: C_29  and  C_30 
REMARK       I    between atoms: C_30  and  N_35 
ROOT
HETATM    1  O           1     -21.206  -8.004  -6.216  0.00  0.00    -0.271 OA
HETATM    2  C           1     -20.971  -7.126  -5.421  0.00  0.00     0.249 C 
HETATM    3  N           1     -20.536  -7.441  -4.162  0.00  0.00    -0.344 N 
HETATM    4  H           1     -20.338  -6.706  -3.495  0.00  0.00     0.163 HD
ENDROOT
BRANCH   3   5
HETATM    5  C           1     -20.358  -8.829  -3.783  0.00  0.00     0.189 C 
BRANCH   5   6
HETATM    6  C           1     -21.614  -9.335  -3.118  0.00  0.00     0.197 C 
HETATM    7  O           1     -21.993  -8.835  -2.036  0.00  0.00    -0.646 OA
HETATM    8  O           1     -22.275 -10.254  -3.647  0.00  0.00    -0.646 OA
ENDBRANCH   5   6
BRANCH   5   9
HETATM    9  C           1     -19.189  -8.946  -2.814  0.00  0.00     0.074 C 
BRANCH   9  10
HETATM   10  C           1     -17.986  -9.466  -3.540  0.00  0.00    -0.056 A 
HETATM   11  C           1     -18.057  -9.726  -4.909  0.00  0.00     0.010 A 
HETATM   12  C           1     -16.938 -10.209  -5.586  0.00  0.00     0.038 A 
HETATM   13  C           1     -15.747 -10.433  -4.894  0.00  0.00     0.081 A 
HETATM   14  C           1     -15.677 -10.172  -3.525  0.00  0.00     0.038 A 
HETATM   15  C           1     -16.797  -9.688  -2.849  0.00  0.00     0.010 A 
BRANCH  13  16
HETATM   16  O           1     -14.660 -10.902  -5.550  0.00  0.00    -0.247 OA
BRANCH  16  17
HETATM   17  P           1     -14.227 -12.438  -5.300  0.00  0.00     0.411 P 
HETATM   18  O           1     -13.393 -12.906  -6.430  0.00  0.00    -0.624 OA
HETATM   19  O           1     -15.437 -13.282  -5.196  0.00  0.00    -0.624 OA
BRANCH  17  20
HETATM   20  O           1     -13.379 -12.540  -3.929  0.00  0.00    -0.300 OA
HETATM   21  H           1     -12.639 -11.971  -4.056  0.00  0.00     0.223 HD
ENDBRANCH  17  20
ENDBRANCH  16  17
ENDBRANCH  13  16
ENDBRANCH   9  10
ENDBRANCH   5   9
ENDBRANCH   3   5
BRANCH   2  22
HETATM   22  C           1     -21.156  -5.681  -5.815  0.00  0.00     0.278 C 
BRANCH  22  23
HETATM   23  C           1     -20.796  -5.504  -7.284  0.00  0.00     0.083 C 
BRANCH  23  24
HETATM   24  C           1     -21.910  -4.797  -7.990  0.00  0.00    -0.028 A 
HETATM   25  C           1     -23.135  -4.475  -7.454  0.00  0.00     0.096 A 
HETATM   26  N           1     -23.863  -3.838  -8.424  0.00  0.00    -0.365 N 
HETATM   27  C           1     -23.127  -3.741  -9.585  0.00  0.00     0.042 A 
HETATM   28  H           1     -24.840  -3.474  -8.301  0.00  0.00     0.165 HD
HETATM   29  C           1     -23.459  -3.177 -10.821  0.00  0.00     0.030 A 
HETATM   30  C           1     -21.892  -4.339  -9.337  0.00  0.00    -0.002 A 
HETATM   31  C           1     -22.496  -3.227 -11.835  0.00  0.00     0.002 A 
HETATM   32  C           1     -21.253  -3.818 -11.616  0.00  0.00     0.001 A 
HETATM   33  C           1     -20.938  -4.378 -10.372  0.00  0.00     0.014 A 
ENDBRANCH  23  24
ENDBRANCH  22  23
BRANCH  22  34
HETATM   34  N           1     -20.264  -4.816  -4.974  0.00  0.00    -0.066 N 
HETATM   35  H           1     -20.497  -4.954  -3.964  0.00  0.00     0.275 HD
HETATM   36  H           1     -19.267  -5.078  -5.142  0.00  0.00     0.275 HD
HETATM   37  H           1     -20.409  -3.813  -5.230  0.00  0.00     0.275 HD
ENDBRANCH  22  34
ENDBRANCH   2  22
TORSDOF 11
ENDMDL
MODEL 6
REMARK VINA RESULT:      -9.0      1.776      2.091
REMARK  11 active torsions:
REMARK  status: ('A' for Active; 'I' for Inactive)
REMARK    1  A    between atoms: O_2  and  C_3 
REMARK    2  A    between atoms: O_2  and  P_37 
REMARK    3  A    between atoms: C_11  and  C_17 
REMARK    4  A    between atoms: C_17  and  C_18 
REMARK    5  A    between atoms: C_17  and  N_35 
REMARK    6  A    between atoms: C_18  and  C_19 
REMARK    7  A    between atoms: C_22  and  C_23 
REMARK    8  A    between atoms: C_23  and  C_29 
REMARK    9  A    between atoms: N_24  and  C_29 
REMARK   10  A    between atoms: O_25  and  P_37 
REMARK   11  A    between atoms: C_29  and  C_30 
REMARK       I    between atoms: C_30  and  N_35 
ROOT
HETATM    1  O           1     -20.451  -7.721  -5.983  0.00  0.00    -0.271 OA
HETATM    2  C           1     -21.314  -7.201  -5.317  0.00  0.00     0.249 C 
HETATM    3  N           1     -21.726  -5.927  -5.605  0.00  0.00    -0.344 N 
HETATM    4  H           1     -22.449  -5.491  -5.048  0.00  0.00     0.163 HD
ENDROOT
BRANCH   3   5
HETATM    5  C           1     -21.127  -5.204  -6.710  0.00  0.00     0.189 C 
BRANCH   5   6
HETATM    6  C           1     -19.763  -4.702  -6.303  0.00  0.00     0.197 C 
HETATM    7  O           1     -18.858  -4.588  -7.158  0.00  0.00    -0.646 OA
HETATM    8  O           1     -19.538  -4.400  -5.111  0.00  0.00    -0.646 OA
ENDBRANCH   5   6
BRANCH   5   9
HETATM    9  C           1     -22.011  -4.022  -7.082  0.00  0.00     0.074 C 
BRANCH   9  10
HETATM   10  C           1     -22.452  -4.156  -8.507  0.00  0.00    -0.056 A 
HETATM   11  C           1     -21.504  -4.315  -9.518  0.00  0.00     0.010 A 
HETATM   12  C           1     -21.914  -4.440 -10.845  0.00  0.00     0.038 A 
HETATM   13  C           1     -23.272  -4.407 -11.161  0.00  0.00     0.081 A 
HETATM   14  C           1     -24.220  -4.248 -10.150  0.00  0.00     0.038 A 
HETATM   15  C           1     -23.809  -4.123  -8.823  0.00  0.00     0.010 A 
BRANCH  13  16
HETATM   16  O           1     -23.671  -4.529 -12.450  0.00  0.00    -0.247 OA
BRANCH  16  17
HETATM   17  P           1     -23.856  -3.179 -13.318  0.00  0.00     0.411 P 
HETATM   18  O           1     -22.881  -2.162 -12.864  0.00  0.00    -0.624 OA
HETATM   19  O           1     -25.230  -2.661 -13.138  0.00  0.00    -0.624 OA
BRANCH  17  20
HETATM   20  O           1     -23.603  -3.506 -14.880  0.00  0.00    -0.300 OA
HETATM   21  H           1     -24.456  -3.467 -15.279  0.00  0.00     0.223 HD
ENDBRANCH  17  20
ENDBRANCH  16  17
ENDBRANCH  13  16
ENDBRANCH   9  10
ENDBRANCH   5   9
ENDBRANCH   3   5
BRANCH   2  22
HETATM   22  C           1     -21.937  -7.953  -4.167  0.00  0.00     0.278 C 
BRANCH  22  23
HETATM   23  C           1     -21.233  -7.575  -2.871  0.00  0.00     0.083 C 
BRANCH  23  24
HETATM   24  C           1     -20.515  -8.770  -2.326  0.00  0.00    -0.028 A 
HETATM   25  C           1     -19.249  -9.184  -2.671  0.00  0.00     0.096 A 
HETATM   26  N           1     -18.965 -10.314  -1.950  0.00  0.00    -0.365 N 
HETATM   27  C           1     -20.030 -10.641  -1.140  0.00  0.00     0.042 A 
HETATM   28  H           1     -18.066 -10.852  -2.006  0.00  0.00     0.165 HD
HETATM   29  C           1     -20.190 -11.701  -0.241  0.00  0.00     0.030 A 
HETATM   30  C           1     -21.021  -9.683  -1.359  0.00  0.00    -0.002 A 
HETATM   31  C           1     -21.401 -11.782   0.455  0.00  0.00     0.002 A 
HETATM   32  C           1     -22.407 -10.840   0.257  0.00  0.00     0.001 A 
HETATM   33  C           1     -22.231  -9.786  -0.647  0.00  0.00     0.014 A 
ENDBRANCH  23  24
ENDBRANCH  22  23
BRANCH  22  34
HETATM   34  N           1     -21.796  -9.428  -4.401  0.00  0.00    -0.066 N 
HETATM   35  H           1     -21.655  -9.914  -3.486  0.00  0.00     0.275 HD
HETATM   36  H           1     -22.662  -9.792  -4.859  0.00  0.00     0.275 HD
HETATM   37  H           1     -20.974  -9.607  -5.020  0.00  0.00     0.275 HD
ENDBRANCH  22  34
ENDBRANCH   2  22
TORSDOF 11
ENDMDL
MODEL 7
REMARK VINA RESULT:      -8.9      4.576      9.062
REMARK  11 active torsions:
REMARK  status: ('A' for Active; 'I' for Inactive)
REMARK    1  A    between atoms: O_2  and  C_3 
REMARK    2  A    between atoms: O_2  and  P_37 
REMARK    3  A    between atoms: C_11  and  C_17 
REMARK    4  A    between atoms: C_17  and  C_18 
REMARK    5  A    between atoms: C_17  and  N_35 
REMARK    6  A    between atoms: C_18  and  C_19 
REMARK    7  A    between atoms: C_22  and  C_23 
REMARK    8  A    between atoms: C_23  and  C_29 
REMARK    9  A    between atoms: N_24  and  C_29 
REMARK   10  A    between atoms: O_25  and  P_37 
REMARK   11  A    between atoms: C_29  and  C_30 
REMARK       I    between atoms: C_30  and  N_35 
ROOT
HETATM    1  O           1     -22.339  -7.185  -5.113  0.00  0.00    -0.271 OA
HETATM    2  C           1     -21.522  -6.398  -4.699  0.00  0.00     0.249 C 
HETATM    3  N           1     -20.932  -6.602  -3.480  0.00  0.00    -0.344 N 
HETATM    4  H           1     -20.248  -5.944  -3.132  0.00  0.00     0.163 HD
ENDROOT
BRANCH   3   5
HETATM    5  C           1     -21.290  -7.762  -2.687  0.00  0.00     0.189 C 
BRANCH   5   6
HETATM    6  C           1     -21.839  -7.313  -1.355  0.00  0.00     0.197 C 
HETATM    7  O           1     -21.493  -7.900  -0.307  0.00  0.00    -0.646 OA
HETATM    8  O           1     -22.639  -6.355  -1.300  0.00  0.00    -0.646 OA
ENDBRANCH   5   6
BRANCH   5   9
HETATM    9  C           1     -20.054  -8.623  -2.461  0.00  0.00     0.074 C 
BRANCH   9  10
HETATM   10  C           1     -19.731  -9.374  -3.716  0.00  0.00    -0.056 A 
HETATM   11  C           1     -18.462  -9.269  -4.284  0.00  0.00     0.010 A 
HETATM   12  C           1     -18.161  -9.969  -5.452  0.00  0.00     0.038 A 
HETATM   13  C           1     -19.129 -10.774  -6.052  0.00  0.00     0.081 A 
HETATM   14  C           1     -20.398 -10.879  -5.484  0.00  0.00     0.038 A 
HETATM   15  C           1     -20.699 -10.180  -4.315  0.00  0.00     0.010 A 
BRANCH  13  16
HETATM   16  O           1     -18.837 -11.453  -7.187  0.00  0.00    -0.247 OA
BRANCH  16  17
HETATM   17  P           1     -18.323 -12.978  -7.047  0.00  0.00     0.411 P 
HETATM   18  O           1     -17.066 -13.148  -7.810  0.00  0.00    -0.624 OA
HETATM   19  O           1     -19.353 -13.898  -7.580  0.00  0.00    -0.624 OA
BRANCH  17  20
HETATM   20  O           1     -18.054 -13.314  -5.489  0.00  0.00    -0.300 OA
HETATM   21  H           1     -17.693 -12.522  -5.128  0.00  0.00     0.223 HD
ENDBRANCH  17  20
ENDBRANCH  16  17
ENDBRANCH  13  16
ENDBRANCH   9  10
ENDBRANCH   5   9
ENDBRANCH   3   5
BRANCH   2  22
HETATM   22  C           1     -21.150  -5.191  -5.524  0.00  0.00     0.278 C 
BRANCH  22  23
HETATM   23  C           1     -20.970  -5.604  -6.978  0.00  0.00     0.083 C 
BRANCH  23  24
HETATM   24  C           1     -21.935  -4.848  -7.836  0.00  0.00    -0.028 A 
HETATM   25  C           1     -23.213  -4.475  -7.486  0.00  0.00     0.096 A 
HETATM   26  N           1     -23.760  -3.804  -8.548  0.00  0.00    -0.365 N 
HETATM   27  C           1     -22.855  -3.736  -9.584  0.00  0.00     0.042 A 
HETATM   28  H           1     -24.728  -3.400  -8.569  0.00  0.00     0.165 HD
HETATM   29  C           1     -22.974  -3.153 -10.851  0.00  0.00     0.030 A 
HETATM   30  C           1     -21.697  -4.387  -9.161  0.00  0.00    -0.002 A 
HETATM   31  C           1     -21.873  -3.241 -11.710  0.00  0.00     0.002 A 
HETATM   32  C           1     -20.703  -3.886 -11.313  0.00  0.00     0.001 A 
HETATM   33  C           1     -20.601  -4.463 -10.042  0.00  0.00     0.014 A 
ENDBRANCH  23  24
ENDBRANCH  22  23
BRANCH  22  34
HETATM   34  N           1     -19.867  -4.609  -5.007  0.00  0.00    -0.066 N 
HETATM   35  H           1     -19.076  -4.910  -5.622  0.00  0.00     0.275 HD
HETATM   36  H           1     -19.933  -3.566  -5.008  0.00  0.00     0.275 HD
HETATM   37  H           1     -19.698  -4.946  -4.033  0.00  0.00     0.275 HD
ENDBRANCH  22  34
ENDBRANCH   2  22
TORSDOF 11
ENDMDL
MODEL 8
REMARK VINA RESULT:      -8.7      2.619      3.988
REMARK  11 active torsions:
REMARK  status: ('A' for Active; 'I' for Inactive)
REMARK    1  A    between atoms: O_2  and  C_3 
REMARK    2  A    between atoms: O_2  and  P_37 
REMARK    3  A    between atoms: C_11  and  C_17 
REMARK    4  A    between atoms: C_17  and  C_18 
REMARK    5  A    between atoms: C_17  and  N_35 
REMARK    6  A    between atoms: C_18  and  C_19 
REMARK    7  A    between atoms: C_22  and  C_23 
REMARK    8  A    between atoms: C_23  and  C_29 
REMARK    9  A    between atoms: N_24  and  C_29 
REMARK   10  A    between atoms: O_25  and  P_37 
REMARK   11  A    between atoms: C_29  and  C_30 
REMARK       I    between atoms: C_30  and  N_35 
ROOT
HETATM    1  O           1     -21.314 -10.883  -6.341  0.00  0.00    -0.271 OA
HETATM    2  C           1     -21.526 -10.647  -5.175  0.00  0.00     0.249 C 
HETATM    3  N           1     -21.017  -9.512  -4.603  0.00  0.00    -0.344 N 
HETATM    4  H           1     -21.194  -9.314  -3.627  0.00  0.00     0.163 HD
ENDROOT
BRANCH   3   5
HETATM    5  C           1     -20.224  -8.593  -5.397  0.00  0.00     0.189 C 
BRANCH   5   6
HETATM    6  C           1     -18.783  -9.040  -5.395  0.00  0.00     0.197 C 
HETATM    7  O           1     -18.229  -9.358  -4.319  0.00  0.00    -0.646 OA
HETATM    8  O           1     -18.143  -9.093  -6.467  0.00  0.00    -0.646 OA
ENDBRANCH   5   6
BRANCH   5   9
HETATM    9  C           1     -20.322  -7.194  -4.803  0.00  0.00     0.074 C 
BRANCH   9  10
HETATM   10  C           1     -20.719  -6.224  -5.873  0.00  0.00    -0.056 A 
HETATM   11  C           1     -22.015  -5.709  -5.900  0.00  0.00     0.010 A 
HETATM   12  C           1     -22.385  -4.805  -6.896  0.00  0.00     0.038 A 
HETATM   13  C           1     -21.459  -4.415  -7.863  0.00  0.00     0.081 A 
HETATM   14  C           1     -20.163  -4.930  -7.835  0.00  0.00     0.038 A 
HETATM   15  C           1     -19.793  -5.834  -6.839  0.00  0.00     0.010 A 
BRANCH  13  16
HETATM   16  O           1     -21.818  -3.537  -8.830  0.00  0.00    -0.247 OA
BRANCH  16  17
HETATM   17  P           1     -22.254  -4.128 -10.268  0.00  0.00     0.411 P 
HETATM   18  O           1     -22.833  -3.045 -11.093  0.00  0.00    -0.624 OA
HETATM   19  O           1     -23.259  -5.197 -10.079  0.00  0.00    -0.624 OA
BRANCH  17  20
HETATM   20  O           1     -20.956  -4.735 -11.015  0.00  0.00    -0.300 OA
HETATM   21  H           1     -21.032  -5.669 -10.916  0.00  0.00     0.223 HD
ENDBRANCH  17  20
ENDBRANCH  16  17
ENDBRANCH  13  16
ENDBRANCH   9  10
ENDBRANCH   5   9
ENDBRANCH   3   5
BRANCH   2  22
HETATM   22  C           1     -22.350 -11.603  -4.349  0.00  0.00     0.278 C 
BRANCH  22  23
HETATM   23  C           1     -21.663 -11.843  -3.012  0.00  0.00     0.083 C 
BRANCH  23  24
HETATM   24  C           1     -22.499 -11.273  -1.910  0.00  0.00    -0.028 A 
HETATM   25  C           1     -23.626 -11.846  -1.367  0.00  0.00     0.096 A 
HETATM   26  N           1     -24.093 -11.009  -0.389  0.00  0.00    -0.365 N 
HETATM   27  C           1     -23.285  -9.898  -0.288  0.00  0.00     0.042 A 
HETATM   28  H           1     -24.944 -11.188   0.200  0.00  0.00     0.165 HD
HETATM   29  C           1     -23.373  -8.790   0.562  0.00  0.00     0.030 A 
HETATM   30  C           1     -22.273 -10.040  -1.237  0.00  0.00    -0.002 A 
HETATM   31  C           1     -22.395  -7.798   0.435  0.00  0.00     0.002 A 
HETATM   32  C           1     -21.372  -7.914  -0.503  0.00  0.00     0.001 A 
HETATM   33  C           1     -21.299  -9.029  -1.346  0.00  0.00     0.014 A 
ENDBRANCH  23  24
ENDBRANCH  22  23
BRANCH  22  34
HETATM   34  N           1     -22.488 -12.905  -5.081  0.00  0.00    -0.066 N 
HETATM   35  H           1     -23.055 -12.760  -5.947  0.00  0.00     0.275 HD
HETATM   36  H           1     -21.540 -13.260  -5.341  0.00  0.00     0.275 HD
HETATM   37  H           1     -22.964 -13.603  -4.466  0.00  0.00     0.275 HD
ENDBRANCH  22  34
ENDBRANCH   2  22
TORSDOF 11
ENDMDL
MODEL 9
REMARK VINA RESULT:      -8.6      4.241      6.294
REMARK  11 active torsions:
REMARK  status: ('A' for Active; 'I' for Inactive)
REMARK    1  A    between atoms: O_2  and  C_3 
REMARK    2  A    between atoms: O_2  and  P_37 
REMARK    3  A    between atoms: C_11  and  C_17 
REMARK    4  A    between atoms: C_17  and  C_18 
REMARK    5  A    between atoms: C_17  and  N_35 
REMARK    6  A    between atoms: C_18  and  C_19 
REMARK    7  A    between atoms: C_22  and  C_23 
REMARK    8  A    between atoms: C_23  and  C_29 
REMARK    9  A    between atoms: N_24  and  C_29 
REMARK   10  A    between atoms: O_25  and  P_37 
REMARK   11  A    between atoms: C_29  and  C_30 
REMARK       I    between atoms: C_30  and  N_35 
ROOT
HETATM    1  O           1     -20.768 -11.965  -3.394  0.00  0.00    -0.271 OA
HETATM    2  C           1     -20.250 -12.287  -2.352  0.00  0.00     0.249 C 
HETATM    3  N           1     -19.194 -11.566  -1.861  0.00  0.00    -0.344 N 
HETATM    4  H           1     -18.759 -11.835  -0.988  0.00  0.00     0.163 HD
ENDROOT
BRANCH   3   5
HETATM    5  C           1     -18.699 -10.417  -2.594  0.00  0.00     0.189 C 
BRANCH   5   6
HETATM    6  C           1     -17.190 -10.427  -2.588  0.00  0.00     0.197 C 
HETATM    7  O           1     -16.557  -9.377  -2.834  0.00  0.00    -0.646 OA
HETATM    8  O           1     -16.573 -11.485  -2.336  0.00  0.00    -0.646 OA
ENDBRANCH   5   6
BRANCH   5   9
HETATM    9  C           1     -19.199  -9.139  -1.933  0.00  0.00     0.074 C 
BRANCH   9  10
HETATM   10  C           1     -20.025  -8.361  -2.909  0.00  0.00    -0.056 A 
HETATM   11  C           1     -19.900  -8.603  -4.277  0.00  0.00     0.010 A 
HETATM   12  C           1     -20.670  -7.879  -5.187  0.00  0.00     0.038 A 
HETATM   13  C           1     -21.565  -6.912  -4.729  0.00  0.00     0.081 A 
HETATM   14  C           1     -21.690  -6.670  -3.361  0.00  0.00     0.038 A 
HETATM   15  C           1     -20.920  -7.395  -2.451  0.00  0.00     0.010 A 
BRANCH  13  16
HETATM   16  O           1     -22.313  -6.209  -5.612  0.00  0.00    -0.247 OA
BRANCH  16  17
HETATM   17  P           1     -21.552  -5.192  -6.610  0.00  0.00     0.411 P 
HETATM   18  O           1     -20.952  -5.954  -7.728  0.00  0.00    -0.624 OA
HETATM   19  O           1     -20.486  -4.479  -5.871  0.00  0.00    -0.624 OA
BRANCH  17  20
HETATM   20  O           1     -22.610  -4.122  -7.197  0.00  0.00    -0.300 OA
HETATM   21  H           1     -22.171  -3.290  -7.145  0.00  0.00     0.223 HD
ENDBRANCH  17  20
ENDBRANCH  16  17
ENDBRANCH  13  16
ENDBRANCH   9  10
ENDBRANCH   5   9
ENDBRANCH   3   5
BRANCH   2  22
HETATM   22  C           1     -20.765 -13.483  -1.590  0.00  0.00     0.278 C 
BRANCH  22  23
HETATM   23  C           1     -21.159 -13.057  -0.182  0.00  0.00     0.083 C 
BRANCH  23  24
HETATM   24  C           1     -22.161 -11.948  -0.256  0.00  0.00    -0.028 A 
HETATM   25  C           1     -23.412 -12.021  -0.824  0.00  0.00     0.096 A 
HETATM   26  N           1     -24.007 -10.795  -0.686  0.00  0.00    -0.365 N 
HETATM   27  C           1     -23.160  -9.925  -0.036  0.00  0.00     0.042 A 
HETATM   28  H           1     -24.971 -10.554  -1.025  0.00  0.00     0.165 HD
HETATM   29  C           1     -23.340  -8.584   0.320  0.00  0.00     0.030 A 
HETATM   30  C           1     -21.988 -10.628   0.245  0.00  0.00    -0.002 A 
HETATM   31  C           1     -22.288  -7.943   0.983  0.00  0.00     0.002 A 
HETATM   32  C           1     -21.107  -8.620   1.277  0.00  0.00     0.001 A 
HETATM   33  C           1     -20.943  -9.962   0.914  0.00  0.00     0.014 A 
ENDBRANCH  23  24
ENDBRANCH  22  23
BRANCH  22  34
HETATM   34  N           1     -19.691 -14.527  -1.514  0.00  0.00    -0.066 N 
HETATM   35  H           1     -19.733 -15.133  -2.365  0.00  0.00     0.275 HD
HETATM   36  H           1     -18.756 -14.062  -1.463  0.00  0.00     0.275 HD
HETATM   37  H           1     -19.834 -15.114  -0.662  0.00  0.00     0.275 HD
ENDBRANCH  22  34
ENDBRANCH   2  22
TORSDOF 11
ENDMDL
