MODEL 1
REMARK VINA RESULT:      -6.0      0.000      0.000
REMARK  6 active torsions:
REMARK  status: ('A' for Active; 'I' for Inactive)
REMARK    1  A    between atoms: N_5  and  C_6 
REMARK    2  A    between atoms: C_6  and  C_13 
REMARK    3  A    between atoms: C_7  and  C_9 
REMARK    4  A    between atoms: C_9  and  C_17 
REMARK    5  A    between atoms: C_9  and  N_14 
REMARK       I    between atoms: C_13  and  N_14 
REMARK    6  A    between atoms: C_17  and  C_18 
ROOT
HETATM    1  C           1     -36.289  -0.668 -12.480  0.00  0.00     0.191 C 
ENDROOT
BRANCH   1   2
HETATM    2  C           1     -36.975  -0.292 -11.190  0.00  0.00     0.197 C 
HETATM    3  O           1     -36.444   0.536 -10.418  0.00  0.00    -0.646 OA
HETATM    4  O           1     -38.073  -0.808 -10.892  0.00  0.00    -0.646 OA
ENDBRANCH   1   2
BRANCH   1   5
HETATM    5  C           1     -34.779  -0.585 -12.295  0.00  0.00     0.094 C 
BRANCH   5   6
HETATM    6  C           1     -34.230  -1.954 -12.044  0.00  0.00     0.028 A 
HETATM    7  C           1     -33.624  -2.350 -10.875  0.00  0.00     0.114 A 
HETATM    8  N           1     -33.282  -3.658 -11.079  0.00  0.00    -0.360 N 
HETATM    9  C           1     -33.687  -3.997 -12.340  0.00  0.00     0.180 A 
HETATM   10  H           1     -32.796  -4.288 -10.394  0.00  0.00     0.166 HD
HETATM   11  N           1     -34.264  -2.986 -12.946  0.00  0.00    -0.354 N 
ATOM     12  HN          1     -34.654  -2.970 -13.889  1.00  0.00     0.166 HD
ENDBRANCH   5   6
ENDBRANCH   1   5
BRANCH   1  13
HETATM   13  N           1     -36.698   0.246 -13.529  0.00  0.00    -0.345 N 
HETATM   14  C           1     -36.931  -0.224 -14.793  0.00  0.00     0.243 C 
HETATM   15  O           1     -38.037  -0.599 -15.105  0.00  0.00    -0.272 OA
HETATM   16  H           1     -36.813   1.230 -13.326  0.00  0.00     0.163 HD
BRANCH  14  17
HETATM   17  C           1     -35.806  -0.275 -15.798  0.00  0.00     0.332 C 
BRANCH  17  18
HETATM   18  N           1     -36.346  -0.694 -17.133  0.00  0.00    -0.071 N 
HETATM   19  H           1     -37.334  -0.367 -17.229  0.00  0.00     0.274 HD
HETATM   20  H           1     -35.764  -0.271 -17.891  0.00  0.00     0.274 HD
HETATM   21  H           1     -36.315  -1.735 -17.210  0.00  0.00     0.274 HD
ENDBRANCH  17  18
ENDBRANCH  14  17
ENDBRANCH   1  13
TORSDOF 6
ENDMDL
MODEL 2
REMARK VINA RESULT:      -5.9     12.136     14.059
REMARK  6 active torsions:
REMARK  status: ('A' for Active; 'I' for Inactive)
REMARK    1  A    between atoms: N_5  and  C_6 
REMARK    2  A    between atoms: C_6  and  C_13 
REMARK    3  A    between atoms: C_7  and  C_9 
REMARK    4  A    between atoms: C_9  and  C_17 
REMARK    5  A    between atoms: C_9  and  N_14 
REMARK       I    between atoms: C_13  and  N_14 
REMARK    6  A    between atoms: C_17  and  C_18 
ROOT
HETATM    1  C           1     -23.537  -4.340  -9.863  0.00  0.00     0.191 C 
ENDROOT
BRANCH   1   2
HETATM    2  C           1     -24.650  -3.398 -10.253  0.00  0.00     0.197 C 
HETATM    3  O           1     -24.934  -3.232 -11.459  0.00  0.00    -0.646 OA
HETATM    4  O           1     -25.287  -2.784  -9.371  0.00  0.00    -0.646 OA
ENDBRANCH   1   2
BRANCH   1   5
HETATM    5  C           1     -22.555  -3.615  -8.952  0.00  0.00     0.094 C 
BRANCH   5   6
HETATM    6  C           1     -22.067  -4.556  -7.895  0.00  0.00     0.028 A 
HETATM    7  C           1     -22.706  -4.786  -6.699  0.00  0.00     0.114 A 
HETATM    8  N           1     -21.924  -5.702  -6.051  0.00  0.00    -0.360 N 
HETATM    9  C           1     -20.863  -5.985  -6.864  0.00  0.00     0.180 A 
HETATM   10  H           1     -22.105  -6.112  -5.101  0.00  0.00     0.166 HD
HETATM   11  N           1     -20.924  -5.307  -7.986  0.00  0.00    -0.354 N 
ATOM     12  HN          1     -20.262  -5.333  -8.762  1.00  0.00     0.166 HD
ENDBRANCH   5   6
ENDBRANCH   1   5
BRANCH   1  13
HETATM   13  N           1     -22.847  -4.791 -11.056  0.00  0.00    -0.345 N 
HETATM   14  C           1     -21.658  -4.216 -11.416  0.00  0.00     0.243 C 
HETATM   15  O           1     -20.617  -4.674 -11.006  0.00  0.00    -0.272 OA
HETATM   16  H           1     -23.243  -5.530 -11.622  0.00  0.00     0.163 HD
BRANCH  14  17
HETATM   17  C           1     -21.646  -3.011 -12.323  0.00  0.00     0.332 C 
BRANCH  17  18
HETATM   18  N           1     -22.475  -3.293 -13.541  0.00  0.00    -0.071 N 
HETATM   19  H           1     -22.247  -4.245 -13.907  0.00  0.00     0.274 HD
HETATM   20  H           1     -23.488  -3.250 -13.289  0.00  0.00     0.274 HD
HETATM   21  H           1     -22.269  -2.579 -14.276  0.00  0.00     0.274 HD
ENDBRANCH  17  18
ENDBRANCH  14  17
ENDBRANCH   1  13
TORSDOF 6
ENDMDL
MODEL 3
REMARK VINA RESULT:      -5.8     12.046     14.368
REMARK  6 active torsions:
REMARK  status: ('A' for Active; 'I' for Inactive)
REMARK    1  A    between atoms: N_5  and  C_6 
REMARK    2  A    between atoms: C_6  and  C_13 
REMARK    3  A    between atoms: C_7  and  C_9 
REMARK    4  A    between atoms: C_9  and  C_17 
REMARK    5  A    between atoms: C_9  and  N_14 
REMARK       I    between atoms: C_13  and  N_14 
REMARK    6  A    between atoms: C_17  and  C_18 
ROOT
HETATM    1  C           1     -22.910  -3.726  -9.452  0.00  0.00     0.191 C 
ENDROOT
BRANCH   1   2
HETATM    2  C           1     -24.412  -3.801  -9.589  0.00  0.00     0.197 C 
HETATM    3  O           1     -24.963  -4.897  -9.825  0.00  0.00    -0.646 OA
HETATM    4  O           1     -25.103  -2.767  -9.468  0.00  0.00    -0.646 OA
ENDBRANCH   1   2
BRANCH   1   5
HETATM    5  C           1     -22.257  -4.308 -10.699  0.00  0.00     0.094 C 
BRANCH   5   6
HETATM    6  C           1     -22.851  -3.673 -11.917  0.00  0.00     0.028 A 
HETATM    7  C           1     -22.679  -2.356 -12.274  0.00  0.00     0.114 A 
HETATM    8  N           1     -23.385  -2.210 -13.436  0.00  0.00    -0.360 N 
HETATM    9  C           1     -23.946  -3.420 -13.731  0.00  0.00     0.180 A 
HETATM   10  H           1     -23.479  -1.328 -13.999  0.00  0.00     0.166 HD
HETATM   11  N           1     -23.640  -4.324 -12.830  0.00  0.00    -0.354 N 
ATOM     12  HN          1     -23.928  -5.302 -12.812  1.00  0.00     0.166 HD
ENDBRANCH   5   6
ENDBRANCH   1   5
BRANCH   1  13
HETATM   13  N           1     -22.494  -4.485  -8.289  0.00  0.00    -0.345 N 
HETATM   14  C           1     -21.292  -4.215  -7.691  0.00  0.00     0.243 C 
HETATM   15  O           1     -21.229  -3.397  -6.804  0.00  0.00    -0.272 OA
HETATM   16  H           1     -23.091  -5.214  -7.920  0.00  0.00     0.163 HD
BRANCH  14  17
HETATM   17  C           1     -20.047  -4.939  -8.140  0.00  0.00     0.332 C 
BRANCH  17  18
HETATM   18  N           1     -19.920  -6.231  -7.389  0.00  0.00    -0.071 N 
HETATM   19  H           1     -18.978  -6.648  -7.567  0.00  0.00     0.274 HD
HETATM   20  H           1     -20.032  -6.051  -6.366  0.00  0.00     0.274 HD
HETATM   21  H           1     -20.660  -6.895  -7.709  0.00  0.00     0.274 HD
ENDBRANCH  17  18
ENDBRANCH  14  17
ENDBRANCH   1  13
TORSDOF 6
ENDMDL
MODEL 4
REMARK VINA RESULT:      -5.3     13.441     16.080
REMARK  6 active torsions:
REMARK  status: ('A' for Active; 'I' for Inactive)
REMARK    1  A    between atoms: N_5  and  C_6 
REMARK    2  A    between atoms: C_6  and  C_13 
REMARK    3  A    between atoms: C_7  and  C_9 
REMARK    4  A    between atoms: C_9  and  C_17 
REMARK    5  A    between atoms: C_9  and  N_14 
REMARK       I    between atoms: C_13  and  N_14 
REMARK    6  A    between atoms: C_17  and  C_18 
ROOT
HETATM    1  C           1     -21.236  -4.990  -7.854  0.00  0.00     0.191 C 
ENDROOT
BRANCH   1   2
HETATM    2  C           1     -20.105  -4.445  -8.691  0.00  0.00     0.197 C 
HETATM    3  O           1     -19.961  -4.828  -9.872  0.00  0.00    -0.646 OA
HETATM    4  O           1     -19.311  -3.611  -8.204  0.00  0.00    -0.646 OA
ENDBRANCH   1   2
BRANCH   1   5
HETATM    5  C           1     -22.360  -3.964  -7.790  0.00  0.00     0.094 C 
BRANCH   5   6
HETATM    6  C           1     -23.203  -4.070  -9.022  0.00  0.00     0.028 A 
HETATM    7  C           1     -24.331  -3.321  -9.264  0.00  0.00     0.114 A 
HETATM    8  N           1     -24.777  -3.738 -10.488  0.00  0.00    -0.360 N 
HETATM    9  C           1     -23.918  -4.705 -10.930  0.00  0.00     0.180 A 
HETATM   10  H           1     -25.624  -3.382 -10.995  0.00  0.00     0.166 HD
HETATM   11  N           1     -22.957  -4.926 -10.064  0.00  0.00    -0.354 N 
ATOM     12  HN          1     -22.189  -5.593 -10.149  1.00  0.00     0.166 HD
ENDBRANCH   5   6
ENDBRANCH   1   5
BRANCH   1  13
HETATM   13  N           1     -20.755  -5.263  -6.513  0.00  0.00    -0.345 N 
HETATM   14  C           1     -20.755  -6.545  -6.034  0.00  0.00     0.243 C 
HETATM   15  O           1     -19.788  -7.251  -6.199  0.00  0.00    -0.272 OA
HETATM   16  H           1     -20.420  -4.506  -5.931  0.00  0.00     0.163 HD
BRANCH  14  17
HETATM   17  C           1     -21.962  -7.078  -5.302  0.00  0.00     0.332 C 
BRANCH  17  18
HETATM   18  N           1     -22.266  -6.195  -4.128  0.00  0.00    -0.071 N 
HETATM   19  H           1     -21.400  -5.685  -3.841  0.00  0.00     0.274 HD
HETATM   20  H           1     -23.004  -5.505  -4.394  0.00  0.00     0.274 HD
HETATM   21  H           1     -22.606  -6.780  -3.332  0.00  0.00     0.274 HD
ENDBRANCH  17  18
ENDBRANCH  14  17
ENDBRANCH   1  13
TORSDOF 6
ENDMDL
MODEL 5
REMARK VINA RESULT:      -5.3     12.719     14.631
REMARK  6 active torsions:
REMARK  status: ('A' for Active; 'I' for Inactive)
REMARK    1  A    between atoms: N_5  and  C_6 
REMARK    2  A    between atoms: C_6  and  C_13 
REMARK    3  A    between atoms: C_7  and  C_9 
REMARK    4  A    between atoms: C_9  and  C_17 
REMARK    5  A    between atoms: C_9  and  N_14 
REMARK       I    between atoms: C_13  and  N_14 
REMARK    6  A    between atoms: C_17  and  C_18 
ROOT
HETATM    1  C           1     -21.997  -3.614  -9.404  0.00  0.00     0.191 C 
ENDROOT
BRANCH   1   2
HETATM    2  C           1     -21.303  -3.629 -10.744  0.00  0.00     0.197 C 
HETATM    3  O           1     -20.942  -2.556 -11.273  0.00  0.00    -0.646 OA
HETATM    4  O           1     -21.090  -4.714 -11.325  0.00  0.00    -0.646 OA
ENDBRANCH   1   2
BRANCH   1   5
HETATM    5  C           1     -22.110  -5.038  -8.875  0.00  0.00     0.094 C 
BRANCH   5   6
HETATM    6  C           1     -21.306  -5.170  -7.619  0.00  0.00     0.028 A 
HETATM    7  C           1     -20.918  -4.115  -6.825  0.00  0.00     0.114 A 
HETATM    8  N           1     -20.214  -4.684  -5.801  0.00  0.00    -0.360 N 
HETATM    9  C           1     -20.202  -6.035  -6.011  0.00  0.00     0.180 A 
HETATM   10  H           1     -19.763  -4.177  -5.000  0.00  0.00     0.166 HD
HETATM   11  N           1     -20.855  -6.357  -7.103  0.00  0.00    -0.354 N 
ATOM     12  HN          1     -20.997  -7.291  -7.486  1.00  0.00     0.166 HD
ENDBRANCH   5   6
ENDBRANCH   1   5
BRANCH   1  13
HETATM   13  N           1     -23.324  -3.048  -9.554  0.00  0.00    -0.345 N 
HETATM   14  C           1     -24.228  -3.639 -10.394  0.00  0.00     0.243 C 
HETATM   15  O           1     -24.970  -4.497  -9.976  0.00  0.00    -0.272 OA
HETATM   16  H           1     -23.581  -2.217  -9.038  0.00  0.00     0.163 HD
BRANCH  14  17
HETATM   17  C           1     -24.298  -3.222 -11.842  0.00  0.00     0.332 C 
BRANCH  17  18
HETATM   18  N           1     -23.850  -4.357 -12.713  0.00  0.00    -0.071 N 
HETATM   19  H           1     -24.147  -5.264 -12.286  0.00  0.00     0.274 HD
HETATM   20  H           1     -24.283  -4.261 -13.659  0.00  0.00     0.274 HD
HETATM   21  H           1     -22.809  -4.339 -12.802  0.00  0.00     0.274 HD
ENDBRANCH  17  18
ENDBRANCH  14  17
ENDBRANCH   1  13
TORSDOF 6
ENDMDL
MODEL 6
REMARK VINA RESULT:      -5.2     11.846     13.197
REMARK  6 active torsions:
REMARK  status: ('A' for Active; 'I' for Inactive)
REMARK    1  A    between atoms: N_5  and  C_6 
REMARK    2  A    between atoms: C_6  and  C_13 
REMARK    3  A    between atoms: C_7  and  C_9 
REMARK    4  A    between atoms: C_9  and  C_17 
REMARK    5  A    between atoms: C_9  and  N_14 
REMARK       I    between atoms: C_13  and  N_14 
REMARK    6  A    between atoms: C_17  and  C_18 
ROOT
HETATM    1  C           1     -23.150  -3.591 -10.812  0.00  0.00     0.191 C 
ENDROOT
BRANCH   1   2
HETATM    2  C           1     -24.367  -3.783  -9.940  0.00  0.00     0.197 C 
HETATM    3  O           1     -24.818  -4.932  -9.743  0.00  0.00    -0.646 OA
HETATM    4  O           1     -24.923  -2.795  -9.415  0.00  0.00    -0.646 OA
ENDBRANCH   1   2
BRANCH   1   5
HETATM    5  C           1     -22.000  -3.057  -9.968  0.00  0.00     0.094 C 
BRANCH   5   6
HETATM    6  C           1     -21.750  -3.984  -8.820  0.00  0.00     0.028 A 
HETATM    7  C           1     -21.996  -3.680  -7.502  0.00  0.00     0.114 A 
HETATM    8  N           1     -21.629  -4.798  -6.806  0.00  0.00    -0.360 N 
HETATM    9  C           1     -21.184  -5.719  -7.713  0.00  0.00     0.180 A 
HETATM   10  H           1     -21.679  -4.927  -5.765  0.00  0.00     0.166 HD
HETATM   11  N           1     -21.246  -5.254  -8.939  0.00  0.00    -0.354 N 
ATOM     12  HN          1     -20.977  -5.734  -9.797  1.00  0.00     0.166 HD
ENDBRANCH   5   6
ENDBRANCH   1   5
BRANCH   1  13
HETATM   13  N           1     -23.457  -2.642 -11.865  0.00  0.00    -0.345 N 
HETATM   14  C           1     -24.299  -3.000 -12.883  0.00  0.00     0.243 C 
HETATM   15  O           1     -25.488  -2.808 -12.779  0.00  0.00    -0.272 OA
HETATM   16  H           1     -23.049  -1.717 -11.848  0.00  0.00     0.163 HD
BRANCH  14  17
HETATM   17  C           1     -23.744  -3.633 -14.135  0.00  0.00     0.332 C 
BRANCH  17  18
HETATM   18  N           1     -22.423  -3.008 -14.469  0.00  0.00    -0.071 N 
HETATM   19  H           1     -22.374  -2.051 -14.054  0.00  0.00     0.274 HD
HETATM   20  H           1     -21.652  -3.596 -14.080  0.00  0.00     0.274 HD
HETATM   21  H           1     -22.321  -2.943 -15.507  0.00  0.00     0.274 HD
ENDBRANCH  17  18
ENDBRANCH  14  17
ENDBRANCH   1  13
TORSDOF 6
ENDMDL
MODEL 7
REMARK VINA RESULT:      -5.2     13.273     15.574
REMARK  6 active torsions:
REMARK  status: ('A' for Active; 'I' for Inactive)
REMARK    1  A    between atoms: N_5  and  C_6 
REMARK    2  A    between atoms: C_6  and  C_13 
REMARK    3  A    between atoms: C_7  and  C_9 
REMARK    4  A    between atoms: C_9  and  C_17 
REMARK    5  A    between atoms: C_9  and  N_14 
REMARK       I    between atoms: C_13  and  N_14 
REMARK    6  A    between atoms: C_17  and  C_18 
ROOT
HETATM    1  C           1     -21.677  -4.211  -9.581  0.00  0.00     0.191 C 
ENDROOT
BRANCH   1   2
HETATM    2  C           1     -20.581  -3.893 -10.568  0.00  0.00     0.197 C 
HETATM    3  O           1     -20.418  -2.719 -10.963  0.00  0.00    -0.646 OA
HETATM    4  O           1     -19.837  -4.803 -10.991  0.00  0.00    -0.646 OA
ENDBRANCH   1   2
BRANCH   1   5
HETATM    5  C           1     -22.893  -3.342  -9.874  0.00  0.00     0.094 C 
BRANCH   5   6
HETATM    6  C           1     -23.261  -3.470 -11.320  0.00  0.00     0.028 A 
HETATM    7  C           1     -23.648  -4.642 -11.926  0.00  0.00     0.114 A 
HETATM    8  N           1     -23.887  -4.304 -13.229  0.00  0.00    -0.360 N 
HETATM    9  C           1     -23.639  -2.966 -13.358  0.00  0.00     0.180 A 
HETATM   10  H           1     -24.201  -4.954 -13.992  0.00  0.00     0.166 HD
HETATM   11  N           1     -23.260  -2.436 -12.220  0.00  0.00    -0.354 N 
ATOM     12  HN          1     -23.016  -1.462 -12.041  1.00  0.00     0.166 HD
ENDBRANCH   5   6
ENDBRANCH   1   5
BRANCH   1  13
HETATM   13  N           1     -21.207  -3.944  -8.235  0.00  0.00    -0.345 N 
HETATM   14  C           1     -20.465  -4.883  -7.571  0.00  0.00     0.243 C 
HETATM   15  O           1     -19.260  -4.880  -7.669  0.00  0.00    -0.272 OA
HETATM   16  H           1     -21.427  -3.064  -7.787  0.00  0.00     0.163 HD
BRANCH  14  17
HETATM   17  C           1     -21.150  -5.922  -6.719  0.00  0.00     0.332 C 
BRANCH  17  18
HETATM   18  N           1     -20.169  -6.996  -6.352  0.00  0.00    -0.071 N 
HETATM   19  H           1     -20.566  -7.585  -5.586  0.00  0.00     0.274 HD
HETATM   20  H           1     -19.979  -7.593  -7.188  0.00  0.00     0.274 HD
HETATM   21  H           1     -19.278  -6.558  -6.027  0.00  0.00     0.274 HD
ENDBRANCH  17  18
ENDBRANCH  14  17
ENDBRANCH   1  13
TORSDOF 6
ENDMDL
MODEL 8
REMARK VINA RESULT:      -5.1      2.887      4.199
REMARK  6 active torsions:
REMARK  status: ('A' for Active; 'I' for Inactive)
REMARK    1  A    between atoms: N_5  and  C_6 
REMARK    2  A    between atoms: C_6  and  C_13 
REMARK    3  A    between atoms: C_7  and  C_9 
REMARK    4  A    between atoms: C_9  and  C_17 
REMARK    5  A    between atoms: C_9  and  N_14 
REMARK       I    between atoms: C_13  and  N_14 
REMARK    6  A    between atoms: C_17  and  C_18 
ROOT
HETATM    1  C           1     -34.899  -1.735 -11.450  0.00  0.00     0.191 C 
ENDROOT
BRANCH   1   2
HETATM    2  C           1     -33.995  -2.871 -11.037  0.00  0.00     0.197 C 
HETATM    3  O           1     -32.764  -2.794 -11.236  0.00  0.00    -0.646 OA
HETATM    4  O           1     -34.478  -3.889 -10.497  0.00  0.00    -0.646 OA
ENDBRANCH   1   2
BRANCH   1   5
HETATM    5  C           1     -36.299  -1.974 -10.901  0.00  0.00     0.094 C 
BRANCH   5   6
HETATM    6  C           1     -36.745  -0.772 -10.129  0.00  0.00     0.028 A 
HETATM    7  C           1     -37.885  -0.051 -10.395  0.00  0.00     0.114 A 
HETATM    8  N           1     -37.901   0.945  -9.458  0.00  0.00    -0.360 N 
HETATM    9  C           1     -36.791   0.791  -8.677  0.00  0.00     0.180 A 
HETATM   10  H           1     -38.632   1.692  -9.358  0.00  0.00     0.166 HD
HETATM   11  N           1     -36.074  -0.239  -9.059  0.00  0.00    -0.354 N 
ATOM     12  HN          1     -35.202  -0.573  -8.648  1.00  0.00     0.166 HD
ENDBRANCH   5   6
ENDBRANCH   1   5
BRANCH   1  13
HETATM   13  N           1     -34.954  -1.664 -12.898  0.00  0.00    -0.345 N 
HETATM   14  C           1     -35.287  -0.487 -13.513  0.00  0.00     0.243 C 
HETATM   15  O           1     -34.423   0.305 -13.808  0.00  0.00    -0.272 OA
HETATM   16  H           1     -34.746  -2.484 -13.453  0.00  0.00     0.163 HD
BRANCH  14  17
HETATM   17  C           1     -36.731  -0.179 -13.821  0.00  0.00     0.332 C 
BRANCH  17  18
HETATM   18  N           1     -36.806   0.734 -15.008  0.00  0.00    -0.071 N 
HETATM   19  H           1     -36.376   1.656 -14.768  0.00  0.00     0.274 HD
HETATM   20  H           1     -36.289   0.307 -15.809  0.00  0.00     0.274 HD
HETATM   21  H           1     -37.806   0.876 -15.276  0.00  0.00     0.274 HD
ENDBRANCH  17  18
ENDBRANCH  14  17
ENDBRANCH   1  13
TORSDOF 6
ENDMDL
MODEL 9
REMARK VINA RESULT:      -5.0     14.727     17.431
REMARK  6 active torsions:
REMARK  status: ('A' for Active; 'I' for Inactive)
REMARK    1  A    between atoms: N_5  and  C_6 
REMARK    2  A    between atoms: C_6  and  C_13 
REMARK    3  A    between atoms: C_7  and  C_9 
REMARK    4  A    between atoms: C_9  and  C_17 
REMARK    5  A    between atoms: C_9  and  N_14 
REMARK       I    between atoms: C_13  and  N_14 
REMARK    6  A    between atoms: C_17  and  C_18 
ROOT
HETATM    1  C           1     -21.255  -5.761  -5.305  0.00  0.00     0.191 C 
ENDROOT
BRANCH   1   2
HETATM    2  C           1     -20.742  -6.969  -6.051  0.00  0.00     0.197 C 
HETATM    3  O           1     -19.615  -6.939  -6.590  0.00  0.00    -0.646 OA
HETATM    4  O           1     -21.445  -8.000  -6.130  0.00  0.00    -0.646 OA
ENDBRANCH   1   2
BRANCH   1   5
HETATM    5  C           1     -20.830  -4.495  -6.038  0.00  0.00     0.094 C 
BRANCH   5   6
HETATM    6  C           1     -21.677  -4.317  -7.259  0.00  0.00     0.028 A 
HETATM    7  C           1     -21.186  -4.158  -8.534  0.00  0.00     0.114 A 
HETATM    8  N           1     -22.293  -4.032  -9.326  0.00  0.00    -0.360 N 
HETATM    9  C           1     -23.390  -4.119  -8.516  0.00  0.00     0.180 A 
HETATM   10  H           1     -22.300  -3.894 -10.367  0.00  0.00     0.166 HD
HETATM   11  N           1     -23.048  -4.291  -7.261  0.00  0.00    -0.354 N 
ATOM     12  HN          1     -23.669  -4.386  -6.457  1.00  0.00     0.166 HD
ENDBRANCH   5   6
ENDBRANCH   1   5
BRANCH   1  13
HETATM   13  N           1     -20.702  -5.752  -3.965  0.00  0.00    -0.345 N 
HETATM   14  C           1     -21.208  -6.593  -3.011  0.00  0.00     0.243 C 
HETATM   15  O           1     -20.739  -7.698  -2.870  0.00  0.00    -0.272 OA
HETATM   16  H           1     -19.943  -5.124  -3.734  0.00  0.00     0.163 HD
BRANCH  14  17
HETATM   17  C           1     -22.351  -6.142  -2.135  0.00  0.00     0.332 C 
BRANCH  17  18
HETATM   18  N           1     -22.315  -6.893  -0.838  0.00  0.00    -0.071 N 
HETATM   19  H           1     -21.552  -6.513  -0.234  0.00  0.00     0.274 HD
HETATM   20  H           1     -23.232  -6.787  -0.349  0.00  0.00     0.274 HD
HETATM   21  H           1     -22.137  -7.906  -1.026  0.00  0.00     0.274 HD
ENDBRANCH  17  18
ENDBRANCH  14  17
ENDBRANCH   1  13
TORSDOF 6
ENDMDL
