MODEL 1
REMARK VINA RESULT:      -6.3      0.000      0.000
REMARK  8 active torsions:
REMARK  status: ('A' for Active; 'I' for Inactive)
REMARK    1  A    between atoms: N_2  and  C_7 
REMARK       I    between atoms: N_2  and  C_3 
REMARK    2  A    between atoms: C_3  and  C_14 
REMARK    3  A    between atoms: Se_4  and  C_5 
REMARK    4  A    between atoms: C_5  and  C_7 
REMARK    5  A    between atoms: C_7  and  C_20 
REMARK    6  A    between atoms: N_11  and  C_14 
REMARK    7  A    between atoms: C_14  and  C_19 
REMARK    8  A    between atoms: C_17  and  C_19 
ROOT
HETATM    1  N           1     -34.948  -1.205 -14.115  0.00  0.00    -0.345 N 
HETATM    2  C           1     -35.325  -1.638 -12.872  0.00  0.00     0.249 C 
HETATM    3  O           1     -36.467  -1.499 -12.505  0.00  0.00    -0.271 OA
HETATM    4  H           1     -33.991  -1.323 -14.423  0.00  0.00     0.163 HD
ENDROOT
BRANCH   2   5
HETATM    5  C           1     -34.314  -2.290 -11.961  0.00  0.00     0.275 C 
BRANCH   5   6
HETATM    6  N           1     -34.107  -1.432 -10.749  0.00  0.00    -0.066 N 
HETATM    7  H           1     -34.662  -0.552 -10.846  0.00  0.00     0.275 HD
HETATM    8  H           1     -34.420  -1.951  -9.897  0.00  0.00     0.275 HD
HETATM    9  H           1     -33.093  -1.197 -10.658  0.00  0.00     0.275 HD
ENDBRANCH   5   6
BRANCH   5  10
HETATM   10  C           1     -34.825  -3.659 -11.532  0.00  0.00     0.046 C 
BRANCH  10  11
HETATM   11  C           1     -33.673  -4.475 -10.960  0.00  0.00    -0.020 C 
HETATM   12  C           1     -32.517  -4.483 -11.951  0.00  0.00     0.009 C 
HETATM   13  C           1     -34.137  -5.904 -10.710  0.00  0.00     0.009 C 
ENDBRANCH  10  11
ENDBRANCH   5  10
ENDBRANCH   2   5
BRANCH   1  14
HETATM   14  C           1     -35.919  -0.578 -14.990  0.00  0.00     0.185 C 
BRANCH  14  15
HETATM   15  C           1     -35.694   0.928 -15.001  0.00  0.00     0.039 C 
BRANCH  15  16
HETATM   16 Se           1     -34.472   1.413 -13.562  0.00  0.00     0.000 Se
HETATM   17  H           1     -34.525   0.093 -12.915  0.00  0.00     0.000 HD
ENDBRANCH  15  16
ENDBRANCH  14  15
BRANCH  14  18
HETATM   18  C           1     -35.758  -1.122 -16.389  0.00  0.00     0.196 C 
HETATM   19  O           1     -36.597  -0.838 -17.270  0.00  0.00    -0.646 OA
HETATM   20  O           1     -34.785  -1.857 -16.666  0.00  0.00    -0.646 OA
ENDBRANCH  14  18
ENDBRANCH   1  14
TORSDOF 8
ENDMDL
MODEL 2
REMARK VINA RESULT:      -6.0     12.876     14.488
REMARK  8 active torsions:
REMARK  status: ('A' for Active; 'I' for Inactive)
REMARK    1  A    between atoms: N_2  and  C_7 
REMARK       I    between atoms: N_2  and  C_3 
REMARK    2  A    between atoms: C_3  and  C_14 
REMARK    3  A    between atoms: Se_4  and  C_5 
REMARK    4  A    between atoms: C_5  and  C_7 
REMARK    5  A    between atoms: C_7  and  C_20 
REMARK    6  A    between atoms: N_11  and  C_14 
REMARK    7  A    between atoms: C_14  and  C_19 
REMARK    8  A    between atoms: C_17  and  C_19 
ROOT
HETATM    1  N           1     -22.276  -4.728  -8.803  0.00  0.00    -0.345 N 
HETATM    2  C           1     -21.712  -4.609  -7.561  0.00  0.00     0.249 C 
HETATM    3  O           1     -21.684  -3.534  -7.012  0.00  0.00    -0.271 OA
HETATM    4  H           1     -22.301  -5.629  -9.263  0.00  0.00     0.163 HD
ENDROOT
BRANCH   2   5
HETATM    5  C           1     -21.126  -5.821  -6.879  0.00  0.00     0.275 C 
BRANCH   5   6
HETATM    6  N           1     -19.818  -6.173  -7.524  0.00  0.00    -0.066 N 
HETATM    7  H           1     -19.929  -7.050  -8.080  0.00  0.00     0.275 HD
HETATM    8  H           1     -19.520  -5.395  -8.155  0.00  0.00     0.275 HD
HETATM    9  H           1     -19.094  -6.316  -6.785  0.00  0.00     0.275 HD
ENDBRANCH   5   6
BRANCH   5  10
HETATM   10  C           1     -20.898  -5.514  -5.405  0.00  0.00     0.046 C 
BRANCH  10  11
HETATM   11  C           1     -21.810  -6.390  -4.557  0.00  0.00    -0.020 C 
HETATM   12  C           1     -21.474  -6.194  -3.084  0.00  0.00     0.009 C 
HETATM   13  C           1     -21.606  -7.851  -4.933  0.00  0.00     0.009 C 
ENDBRANCH  10  11
ENDBRANCH   5  10
ENDBRANCH   2   5
BRANCH   1  14
HETATM   14  C           1     -22.840  -3.564  -9.458  0.00  0.00     0.185 C 
BRANCH  14  15
HETATM   15  C           1     -22.173  -3.373 -10.814  0.00  0.00     0.039 C 
BRANCH  15  16
HETATM   16 Se           1     -20.472  -4.325 -10.842  0.00  0.00     0.000 Se
HETATM   17  H           1     -20.805  -5.123 -12.033  0.00  0.00     0.000 HD
ENDBRANCH  15  16
ENDBRANCH  14  15
BRANCH  14  18
HETATM   18  C           1     -24.323  -3.765  -9.650  0.00  0.00     0.196 C 
HETATM   19  O           1     -24.769  -4.898  -9.930  0.00  0.00    -0.646 OA
HETATM   20  O           1     -25.106  -2.797  -9.530  0.00  0.00    -0.646 OA
ENDBRANCH  14  18
ENDBRANCH   1  14
TORSDOF 8
ENDMDL
MODEL 3
REMARK VINA RESULT:      -5.9      2.207      2.662
REMARK  8 active torsions:
REMARK  status: ('A' for Active; 'I' for Inactive)
REMARK    1  A    between atoms: N_2  and  C_7 
REMARK       I    between atoms: N_2  and  C_3 
REMARK    2  A    between atoms: C_3  and  C_14 
REMARK    3  A    between atoms: Se_4  and  C_5 
REMARK    4  A    between atoms: C_5  and  C_7 
REMARK    5  A    between atoms: C_7  and  C_20 
REMARK    6  A    between atoms: N_11  and  C_14 
REMARK    7  A    between atoms: C_14  and  C_19 
REMARK    8  A    between atoms: C_17  and  C_19 
ROOT
HETATM    1  N           1     -35.369  -1.617 -13.841  0.00  0.00    -0.345 N 
HETATM    2  C           1     -34.694  -2.119 -12.761  0.00  0.00     0.249 C 
HETATM    3  O           1     -34.431  -1.400 -11.827  0.00  0.00    -0.271 OA
HETATM    4  H           1     -35.591  -2.220 -14.624  0.00  0.00     0.163 HD
ENDROOT
BRANCH   2   5
HETATM    5  C           1     -34.281  -3.570 -12.737  0.00  0.00     0.275 C 
BRANCH   5   6
HETATM    6  N           1     -33.613  -3.920 -14.033  0.00  0.00    -0.066 N 
HETATM    7  H           1     -32.579  -3.968 -13.890  0.00  0.00     0.275 HD
HETATM    8  H           1     -33.962  -4.847 -14.366  0.00  0.00     0.275 HD
HETATM    9  H           1     -33.834  -3.189 -14.746  0.00  0.00     0.275 HD
ENDBRANCH   5   6
BRANCH   5  10
HETATM   10  C           1     -33.310  -3.803 -11.587  0.00  0.00     0.046 C 
BRANCH  10  11
HETATM   11  C           1     -33.940  -4.749 -10.573  0.00  0.00    -0.020 C 
HETATM   12  C           1     -33.561  -6.184 -10.916  0.00  0.00     0.009 C 
HETATM   13  C           1     -35.455  -4.601 -10.614  0.00  0.00     0.009 C 
ENDBRANCH  10  11
ENDBRANCH   5  10
ENDBRANCH   2   5
BRANCH   1  14
HETATM   14  C           1     -35.766  -0.223 -13.865  0.00  0.00     0.185 C 
BRANCH  14  15
HETATM   15  C           1     -35.520   0.351 -15.255  0.00  0.00     0.039 C 
BRANCH  15  16
HETATM   16 Se           1     -35.624  -1.078 -16.576  0.00  0.00     0.000 Se
HETATM   17  H           1     -36.909  -0.626 -17.134  0.00  0.00     0.000 HD
ENDBRANCH  15  16
ENDBRANCH  14  15
BRANCH  14  18
HETATM   18  C           1     -37.233  -0.113 -13.528  0.00  0.00     0.196 C 
HETATM   19  O           1     -38.044   0.286 -14.390  0.00  0.00    -0.646 OA
HETATM   20  O           1     -37.637  -0.422 -12.385  0.00  0.00    -0.646 OA
ENDBRANCH  14  18
ENDBRANCH   1  14
TORSDOF 8
ENDMDL
MODEL 4
REMARK VINA RESULT:      -5.8      2.815      3.733
REMARK  8 active torsions:
REMARK  status: ('A' for Active; 'I' for Inactive)
REMARK    1  A    between atoms: N_2  and  C_7 
REMARK       I    between atoms: N_2  and  C_3 
REMARK    2  A    between atoms: C_3  and  C_14 
REMARK    3  A    between atoms: Se_4  and  C_5 
REMARK    4  A    between atoms: C_5  and  C_7 
REMARK    5  A    between atoms: C_7  and  C_20 
REMARK    6  A    between atoms: N_11  and  C_14 
REMARK    7  A    between atoms: C_14  and  C_19 
REMARK    8  A    between atoms: C_17  and  C_19 
ROOT
HETATM    1  N           1     -35.305  -2.123 -12.094  0.00  0.00    -0.345 N 
HETATM    2  C           1     -34.183  -2.649 -11.511  0.00  0.00     0.249 C 
HETATM    3  O           1     -33.490  -1.959 -10.803  0.00  0.00    -0.271 OA
HETATM    4  H           1     -35.886  -2.702 -12.686  0.00  0.00     0.163 HD
ENDROOT
BRANCH   2   5
HETATM    5  C           1     -33.815  -4.093 -11.751  0.00  0.00     0.275 C 
BRANCH   5   6
HETATM    6  N           1     -32.380  -4.178 -12.178  0.00  0.00    -0.066 N 
HETATM    7  H           1     -31.770  -3.776 -11.430  0.00  0.00     0.275 HD
HETATM    8  H           1     -32.123  -5.178 -12.339  0.00  0.00     0.275 HD
HETATM    9  H           1     -32.248  -3.638 -13.063  0.00  0.00     0.275 HD
ENDBRANCH   5   6
BRANCH   5  10
HETATM   10  C           1     -34.010  -4.888 -10.466  0.00  0.00     0.046 C 
BRANCH  10  11
HETATM   11  C           1     -34.250  -6.352 -10.806  0.00  0.00    -0.020 C 
HETATM   12  C           1     -35.163  -6.446 -12.022  0.00  0.00     0.009 C 
HETATM   13  C           1     -34.911  -7.047  -9.623  0.00  0.00     0.009 C 
ENDBRANCH  10  11
ENDBRANCH   5  10
ENDBRANCH   2   5
BRANCH   1  14
HETATM   14  C           1     -35.659  -0.736 -11.864  0.00  0.00     0.185 C 
BRANCH  14  15
HETATM   15  C           1     -36.268  -0.151 -13.131  0.00  0.00     0.039 C 
BRANCH  15  16
HETATM   16 Se           1     -34.898   0.820 -14.122  0.00  0.00     0.000 Se
HETATM   17  H           1     -35.613   2.105 -14.079  0.00  0.00     0.000 HD
ENDBRANCH  15  16
ENDBRANCH  14  15
BRANCH  14  18
HETATM   18  C           1     -36.662  -0.654 -10.739  0.00  0.00     0.196 C 
HETATM   19  O           1     -36.314  -0.217  -9.621  0.00  0.00    -0.646 OA
HETATM   20  O           1     -37.842  -1.024 -10.925  0.00  0.00    -0.646 OA
ENDBRANCH  14  18
ENDBRANCH   1  14
TORSDOF 8
ENDMDL
MODEL 5
REMARK VINA RESULT:      -5.4     13.729     15.694
REMARK  8 active torsions:
REMARK  status: ('A' for Active; 'I' for Inactive)
REMARK    1  A    between atoms: N_2  and  C_7 
REMARK       I    between atoms: N_2  and  C_3 
REMARK    2  A    between atoms: C_3  and  C_14 
REMARK    3  A    between atoms: Se_4  and  C_5 
REMARK    4  A    between atoms: C_5  and  C_7 
REMARK    5  A    between atoms: C_7  and  C_20 
REMARK    6  A    between atoms: N_11  and  C_14 
REMARK    7  A    between atoms: C_14  and  C_19 
REMARK    8  A    between atoms: C_17  and  C_19 
ROOT
HETATM    1  N           1     -22.244  -5.580  -7.091  0.00  0.00    -0.345 N 
HETATM    2  C           1     -22.303  -4.378  -7.744  0.00  0.00     0.249 C 
HETATM    3  O           1     -21.685  -3.431  -7.322  0.00  0.00    -0.271 OA
HETATM    4  H           1     -22.762  -6.374  -7.445  0.00  0.00     0.163 HD
ENDROOT
BRANCH   2   5
HETATM    5  C           1     -23.140  -4.238  -8.992  0.00  0.00     0.275 C 
BRANCH   5   6
HETATM    6  N           1     -24.470  -3.643  -8.636  0.00  0.00    -0.066 N 
HETATM    7  H           1     -24.671  -3.816  -7.625  0.00  0.00     0.275 HD
HETATM    8  H           1     -24.452  -2.614  -8.817  0.00  0.00     0.275 HD
HETATM    9  H           1     -25.216  -4.085  -9.221  0.00  0.00     0.275 HD
ENDBRANCH   5   6
BRANCH   5  10
HETATM   10  C           1     -22.427  -3.329  -9.983  0.00  0.00     0.046 C 
BRANCH  10  11
HETATM   11  C           1     -21.876  -4.162 -11.132  0.00  0.00    -0.020 C 
HETATM   12  C           1     -20.364  -4.280 -10.993  0.00  0.00     0.009 C 
HETATM   13  C           1     -22.212  -3.488 -12.456  0.00  0.00     0.009 C 
ENDBRANCH  10  11
ENDBRANCH   5  10
ENDBRANCH   2   5
BRANCH   1  14
HETATM   14  C           1     -21.440  -5.715  -5.892  0.00  0.00     0.185 C 
BRANCH  14  15
HETATM   15  C           1     -22.160  -6.617  -4.897  0.00  0.00     0.039 C 
BRANCH  15  16
HETATM   16 Se           1     -21.509  -6.250  -3.097  0.00  0.00     0.000 Se
HETATM   17  H           1     -22.565  -7.028  -2.431  0.00  0.00     0.000 HD
ENDBRANCH  15  16
ENDBRANCH  14  15
BRANCH  14  18
HETATM   18  C           1     -20.106  -6.324  -6.248  0.00  0.00     0.196 C 
HETATM   19  O           1     -19.867  -7.517  -5.965  0.00  0.00    -0.646 OA
HETATM   20  O           1     -19.239  -5.634  -6.828  0.00  0.00    -0.646 OA
ENDBRANCH  14  18
ENDBRANCH   1  14
TORSDOF 8
ENDMDL
MODEL 6
REMARK VINA RESULT:      -5.3      4.237      5.691
REMARK  8 active torsions:
REMARK  status: ('A' for Active; 'I' for Inactive)
REMARK    1  A    between atoms: N_2  and  C_7 
REMARK       I    between atoms: N_2  and  C_3 
REMARK    2  A    between atoms: C_3  and  C_14 
REMARK    3  A    between atoms: Se_4  and  C_5 
REMARK    4  A    between atoms: C_5  and  C_7 
REMARK    5  A    between atoms: C_7  and  C_20 
REMARK    6  A    between atoms: N_11  and  C_14 
REMARK    7  A    between atoms: C_14  and  C_19 
REMARK    8  A    between atoms: C_17  and  C_19 
ROOT
HETATM    1  N           1     -33.343  -4.018 -14.252  0.00  0.00    -0.345 N 
HETATM    2  C           1     -33.864  -4.509 -15.419  0.00  0.00     0.249 C 
HETATM    3  O           1     -34.997  -4.925 -15.446  0.00  0.00    -0.271 OA
HETATM    4  H           1     -32.394  -3.669 -14.229  0.00  0.00     0.163 HD
ENDROOT
BRANCH   2   5
HETATM    5  C           1     -33.022  -4.529 -16.671  0.00  0.00     0.275 C 
BRANCH   5   6
HETATM    6  N           1     -33.155  -3.215 -17.383  0.00  0.00    -0.066 N 
HETATM    7  H           1     -32.993  -3.354 -18.405  0.00  0.00     0.275 HD
HETATM    8  H           1     -34.116  -2.832 -17.231  0.00  0.00     0.275 HD
HETATM    9  H           1     -32.450  -2.543 -17.005  0.00  0.00     0.275 HD
ENDBRANCH   5   6
BRANCH   5  10
HETATM   10  C           1     -31.564  -4.758 -16.299  0.00  0.00     0.046 C 
BRANCH  10  11
HETATM   11  C           1     -30.941  -5.751 -17.271  0.00  0.00    -0.020 C 
HETATM   12  C           1     -31.944  -6.856 -17.577  0.00  0.00     0.009 C 
HETATM   13  C           1     -29.692  -6.358 -16.648  0.00  0.00     0.009 C 
ENDBRANCH  10  11
ENDBRANCH   5  10
ENDBRANCH   2   5
BRANCH   1  14
HETATM   14  C           1     -34.152  -3.999 -13.048  0.00  0.00     0.185 C 
BRANCH  14  15
HETATM   15  C           1     -33.323  -4.502 -11.873  0.00  0.00     0.039 C 
BRANCH  15  16
HETATM   16 Se           1     -34.293  -5.921 -10.954  0.00  0.00     0.000 Se
HETATM   17  H           1     -33.271  -6.103  -9.910  0.00  0.00     0.000 HD
ENDBRANCH  15  16
ENDBRANCH  14  15
BRANCH  14  18
HETATM   18  C           1     -34.610  -2.588 -12.774  0.00  0.00     0.196 C 
HETATM   19  O           1     -34.972  -1.854 -13.718  0.00  0.00    -0.646 OA
HETATM   20  O           1     -34.628  -2.153 -11.602  0.00  0.00    -0.646 OA
ENDBRANCH  14  18
ENDBRANCH   1  14
TORSDOF 8
ENDMDL
MODEL 7
REMARK VINA RESULT:      -5.3     11.362     12.809
REMARK  8 active torsions:
REMARK  status: ('A' for Active; 'I' for Inactive)
REMARK    1  A    between atoms: N_2  and  C_7 
REMARK       I    between atoms: N_2  and  C_3 
REMARK    2  A    between atoms: C_3  and  C_14 
REMARK    3  A    between atoms: Se_4  and  C_5 
REMARK    4  A    between atoms: C_5  and  C_7 
REMARK    5  A    between atoms: C_7  and  C_20 
REMARK    6  A    between atoms: N_11  and  C_14 
REMARK    7  A    between atoms: C_14  and  C_19 
REMARK    8  A    between atoms: C_17  and  C_19 
ROOT
HETATM    1  N           1     -22.253  -3.355 -12.660  0.00  0.00    -0.345 N 
HETATM    2  C           1     -22.246  -3.511 -11.299  0.00  0.00     0.249 C 
HETATM    3  O           1     -23.108  -2.996 -10.629  0.00  0.00    -0.271 OA
HETATM    4  H           1     -21.532  -3.788 -13.222  0.00  0.00     0.163 HD
ENDROOT
BRANCH   2   5
HETATM    5  C           1     -21.162  -4.327 -10.639  0.00  0.00     0.275 C 
BRANCH   5   6
HETATM    6  N           1     -19.862  -4.099 -11.352  0.00  0.00    -0.066 N 
HETATM    7  H           1     -19.876  -3.160 -11.809  0.00  0.00     0.275 HD
HETATM    8  H           1     -19.076  -4.141 -10.664  0.00  0.00     0.275 HD
HETATM    9  H           1     -19.729  -4.839 -12.077  0.00  0.00     0.275 HD
ENDBRANCH   5   6
BRANCH   5  10
HETATM   10  C           1     -21.023  -3.904  -9.183  0.00  0.00     0.046 C 
BRANCH  10  11
HETATM   11  C           1     -21.517  -5.026  -8.279  0.00  0.00    -0.020 C 
HETATM   12  C           1     -22.537  -4.469  -7.294  0.00  0.00     0.009 C 
HETATM   13  C           1     -20.341  -5.615  -7.511  0.00  0.00     0.009 C 
ENDBRANCH  10  11
ENDBRANCH   5  10
ENDBRANCH   2   5
BRANCH   1  14
HETATM   14  C           1     -23.295  -2.571 -13.295  0.00  0.00     0.185 C 
BRANCH  14  15
HETATM   15  C           1     -22.896  -2.269 -14.734  0.00  0.00     0.039 C 
BRANCH  15  16
HETATM   16 Se           1     -23.818  -0.663 -15.340  0.00  0.00     0.000 Se
HETATM   17  H           1     -25.034  -0.922 -14.552  0.00  0.00     0.000 HD
ENDBRANCH  15  16
ENDBRANCH  14  15
BRANCH  14  18
HETATM   18  C           1     -24.587  -3.350 -13.282  0.00  0.00     0.196 C 
HETATM   19  O           1     -24.658  -4.453 -13.865  0.00  0.00    -0.646 OA
HETATM   20  O           1     -25.588  -2.891 -12.690  0.00  0.00    -0.646 OA
ENDBRANCH  14  18
ENDBRANCH   1  14
TORSDOF 8
ENDMDL
MODEL 8
REMARK VINA RESULT:      -5.2     14.829     17.204
REMARK  8 active torsions:
REMARK  status: ('A' for Active; 'I' for Inactive)
REMARK    1  A    between atoms: N_2  and  C_7 
REMARK       I    between atoms: N_2  and  C_3 
REMARK    2  A    between atoms: C_3  and  C_14 
REMARK    3  A    between atoms: Se_4  and  C_5 
REMARK    4  A    between atoms: C_5  and  C_7 
REMARK    5  A    between atoms: C_7  and  C_20 
REMARK    6  A    between atoms: N_11  and  C_14 
REMARK    7  A    between atoms: C_14  and  C_19 
REMARK    8  A    between atoms: C_17  and  C_19 
ROOT
HETATM    1  N           1     -21.004  -6.473  -4.900  0.00  0.00    -0.345 N 
HETATM    2  C           1     -21.655  -5.618  -5.749  0.00  0.00     0.249 C 
HETATM    3  O           1     -22.862  -5.591  -5.768  0.00  0.00    -0.271 OA
HETATM    4  H           1     -19.992  -6.495  -4.883  0.00  0.00     0.163 HD
ENDROOT
BRANCH   2   5
HETATM    5  C           1     -20.865  -4.711  -6.659  0.00  0.00     0.275 C 
BRANCH   5   6
HETATM    6  N           1     -19.431  -4.688  -6.219  0.00  0.00    -0.066 N 
HETATM    7  H           1     -19.093  -5.667  -6.082  0.00  0.00     0.275 HD
HETATM    8  H           1     -18.850  -4.218  -6.949  0.00  0.00     0.275 HD
HETATM    9  H           1     -19.352  -4.162  -5.320  0.00  0.00     0.275 HD
ENDBRANCH   5   6
BRANCH   5  10
HETATM   10  C           1     -20.948  -5.228  -8.089  0.00  0.00     0.046 C 
BRANCH  10  11
HETATM   11  C           1     -21.328  -4.086  -9.021  0.00  0.00    -0.020 C 
HETATM   12  C           1     -22.833  -4.106  -9.258  0.00  0.00     0.009 C 
HETATM   13  C           1     -20.604  -4.252 -10.350  0.00  0.00     0.009 C 
ENDBRANCH  10  11
ENDBRANCH   5  10
ENDBRANCH   2   5
BRANCH   1  14
HETATM   14  C           1     -21.763  -7.345  -4.025  0.00  0.00     0.185 C 
BRANCH  14  15
HETATM   15  C           1     -21.201  -8.758  -4.106  0.00  0.00     0.039 C 
BRANCH  15  16
HETATM   16 Se           1     -19.464  -8.717  -4.990  0.00  0.00     0.000 Se
HETATM   17  H           1     -19.870  -7.724  -5.997  0.00  0.00     0.000 HD
ENDBRANCH  15  16
ENDBRANCH  14  15
BRANCH  14  18
HETATM   18  C           1     -21.661  -6.843  -2.605  0.00  0.00     0.196 C 
HETATM   19  O           1     -20.887  -7.403  -1.799  0.00  0.00    -0.646 OA
HETATM   20  O           1     -22.350  -5.868  -2.235  0.00  0.00    -0.646 OA
ENDBRANCH  14  18
ENDBRANCH   1  14
TORSDOF 8
ENDMDL
MODEL 9
REMARK VINA RESULT:      -5.1     14.838     17.003
REMARK  8 active torsions:
REMARK  status: ('A' for Active; 'I' for Inactive)
REMARK    1  A    between atoms: N_2  and  C_7 
REMARK       I    between atoms: N_2  and  C_3 
REMARK    2  A    between atoms: C_3  and  C_14 
REMARK    3  A    between atoms: Se_4  and  C_5 
REMARK    4  A    between atoms: C_5  and  C_7 
REMARK    5  A    between atoms: C_7  and  C_20 
REMARK    6  A    between atoms: N_11  and  C_14 
REMARK    7  A    between atoms: C_14  and  C_19 
REMARK    8  A    between atoms: C_17  and  C_19 
ROOT
HETATM    1  N           1     -21.331  -6.665  -5.756  0.00  0.00    -0.345 N 
HETATM    2  C           1     -21.048  -5.355  -6.036  0.00  0.00     0.249 C 
HETATM    3  O           1     -20.274  -4.743  -5.339  0.00  0.00    -0.271 OA
HETATM    4  H           1     -21.979  -7.178  -6.340  0.00  0.00     0.163 HD
ENDROOT
BRANCH   2   5
HETATM    5  C           1     -21.702  -4.676  -7.214  0.00  0.00     0.275 C 
BRANCH   5   6
HETATM    6  N           1     -21.606  -3.189  -7.050  0.00  0.00    -0.066 N 
HETATM    7  H           1     -22.523  -2.815  -6.717  0.00  0.00     0.275 HD
HETATM    8  H           1     -20.862  -2.962  -6.352  0.00  0.00     0.275 HD
HETATM    9  H           1     -21.365  -2.753  -7.969  0.00  0.00     0.275 HD
ENDBRANCH   5   6
BRANCH   5  10
HETATM   10  C           1     -20.994  -5.091  -8.497  0.00  0.00     0.046 C 
BRANCH  10  11
HETATM   11  C           1     -21.464  -4.209  -9.645  0.00  0.00    -0.020 C 
HETATM   12  C           1     -22.830  -4.684 -10.122  0.00  0.00     0.009 C 
HETATM   13  C           1     -20.468  -4.296 -10.794  0.00  0.00     0.009 C 
ENDBRANCH  10  11
ENDBRANCH   5  10
ENDBRANCH   2   5
BRANCH   1  14
HETATM   14  C           1     -20.703  -7.318  -4.624  0.00  0.00     0.185 C 
BRANCH  14  15
HETATM   15  C           1     -21.764  -7.674  -3.592  0.00  0.00     0.039 C 
BRANCH  15  16
HETATM   16 Se           1     -21.890  -6.248  -2.270  0.00  0.00     0.000 Se
HETATM   17  H           1     -23.301  -5.945  -2.560  0.00  0.00     0.000 HD
ENDBRANCH  15  16
ENDBRANCH  14  15
BRANCH  14  18
HETATM   18  C           1     -20.011  -8.575  -5.090  0.00  0.00     0.196 C 
HETATM   19  O           1     -20.621  -9.395  -5.809  0.00  0.00    -0.646 OA
HETATM   20  O           1     -18.826  -8.797  -4.757  0.00  0.00    -0.646 OA
ENDBRANCH  14  18
ENDBRANCH   1  14
TORSDOF 8
ENDMDL
