MODEL 1
REMARK VINA RESULT:      -7.0      0.000      0.000
REMARK  7 active torsions:
REMARK  status: ('A' for Active; 'I' for Inactive)
REMARK    1  A    between atoms: C_10  and  C_12 
REMARK       I    between atoms: N_13  and  C_14 
REMARK    2  A    between atoms: C_14  and  C_15 
REMARK    3  A    between atoms: C_15  and  C_16 
REMARK    4  A    between atoms: C_15  and  N_22 
REMARK    5  A    between atoms: C_16  and  O_17 
REMARK    6  A    between atoms: O_17  and  P_18 
REMARK    7  A    between atoms: P_18  and  O_20 
ROOT
HETATM    1  C           1     -21.788  -3.225 -10.741  0.00  0.00     0.298 C 
ENDROOT
BRANCH   1   2
HETATM    2  C           1     -22.024  -4.407  -9.833  0.00  0.00     0.253 C 
HETATM    3  O           1     -22.848  -5.240 -10.127  0.00  0.00    -0.271 OA
HETATM    4  N           1     -21.303  -4.536  -8.676  0.00  0.00    -0.336 N 
HETATM    5  C           1     -20.274  -3.636  -8.164  0.00  0.00     0.127 C 
HETATM    6  C           1     -21.395  -5.604  -7.685  0.00  0.00     0.188 C 
HETATM    7  C           1     -19.213  -4.573  -7.613  0.00  0.00     0.022 C 
HETATM    8  C           1     -19.950  -5.870  -7.302  0.00  0.00     0.038 C 
BRANCH   6   9
HETATM    9  C           1     -22.195  -5.157  -6.486  0.00  0.00     0.196 C 
HETATM   10  O           1     -21.758  -5.359  -5.332  0.00  0.00    -0.646 OA
HETATM   11  O           1     -23.295  -4.585  -6.646  0.00  0.00    -0.646 OA
ENDBRANCH   6   9
ENDBRANCH   1   2
BRANCH   1  12
HETATM   12  C           1     -23.016  -3.001 -11.613  0.00  0.00     0.224 C 
BRANCH  12  13
HETATM   13  O           1     -22.663  -2.232 -12.730  0.00  0.00    -0.287 OA
BRANCH  13  14
HETATM   14  P           1     -23.370  -2.642 -14.123  0.00  0.00     0.406 P 
HETATM   15  O           1     -24.169  -1.503 -14.627  0.00  0.00    -0.624 OA
HETATM   16  O           1     -24.256  -3.807 -13.903  0.00  0.00    -0.624 OA
BRANCH  14  17
HETATM   17  O           1     -22.237  -3.025 -15.209  0.00  0.00    -0.300 OA
HETATM   18  H           1     -21.464  -3.207 -14.701  0.00  0.00     0.223 HD
ENDBRANCH  14  17
ENDBRANCH  13  14
ENDBRANCH  12  13
ENDBRANCH   1  12
BRANCH   1  19
HETATM   19  N           1     -20.598  -3.496 -11.614  0.00  0.00    -0.064 N 
HETATM   20  H           1     -19.951  -2.676 -11.586  0.00  0.00     0.275 HD
HETATM   21  H           1     -20.098  -4.345 -11.267  0.00  0.00     0.275 HD
HETATM   22  H           1     -20.916  -3.655 -12.596  0.00  0.00     0.275 HD
ENDBRANCH   1  19
TORSDOF 7
ENDMDL
MODEL 2
REMARK VINA RESULT:      -6.2      3.110      6.739
REMARK  7 active torsions:
REMARK  status: ('A' for Active; 'I' for Inactive)
REMARK    1  A    between atoms: C_10  and  C_12 
REMARK       I    between atoms: N_13  and  C_14 
REMARK    2  A    between atoms: C_14  and  C_15 
REMARK    3  A    between atoms: C_15  and  C_16 
REMARK    4  A    between atoms: C_15  and  N_22 
REMARK    5  A    between atoms: C_16  and  O_17 
REMARK    6  A    between atoms: O_17  and  P_18 
REMARK    7  A    between atoms: P_18  and  O_20 
ROOT
HETATM    1  C           1     -20.315  -5.329  -7.627  0.00  0.00     0.298 C 
ENDROOT
BRANCH   1   2
HETATM    2  C           1     -21.466  -4.555  -8.222  0.00  0.00     0.253 C 
HETATM    3  O           1     -22.351  -4.146  -7.509  0.00  0.00    -0.271 OA
HETATM    4  N           1     -21.507  -4.316  -9.569  0.00  0.00    -0.336 N 
HETATM    5  C           1     -20.534  -4.730 -10.576  0.00  0.00     0.127 C 
HETATM    6  C           1     -22.534  -3.593 -10.313  0.00  0.00     0.188 C 
HETATM    7  C           1     -20.429  -3.526 -11.496  0.00  0.00     0.022 C 
HETATM    8  C           1     -21.744  -2.775 -11.320  0.00  0.00     0.038 C 
BRANCH   6   9
HETATM    9  C           1     -23.466  -4.550 -11.013  0.00  0.00     0.196 C 
HETATM   10  O           1     -24.021  -5.467 -10.369  0.00  0.00    -0.646 OA
HETATM   11  O           1     -23.684  -4.428 -12.239  0.00  0.00    -0.646 OA
ENDBRANCH   6   9
ENDBRANCH   1   2
BRANCH   1  12
HETATM   12  C           1     -20.852  -6.531  -6.862  0.00  0.00     0.224 C 
BRANCH  12  13
HETATM   13  O           1     -20.514  -6.413  -5.507  0.00  0.00    -0.287 OA
BRANCH  13  14
HETATM   14  P           1     -21.728  -6.591  -4.457  0.00  0.00     0.406 P 
HETATM   15  O           1     -21.457  -5.784  -3.246  0.00  0.00    -0.624 OA
HETATM   16  O           1     -21.850  -8.017  -4.082  0.00  0.00    -0.624 OA
BRANCH  14  17
HETATM   17  O           1     -23.106  -6.093  -5.138  0.00  0.00    -0.300 OA
HETATM   18  H           1     -22.935  -6.099  -6.064  0.00  0.00     0.223 HD
ENDBRANCH  14  17
ENDBRANCH  13  14
ENDBRANCH  12  13
ENDBRANCH   1  12
BRANCH   1  19
HETATM   19  N           1     -19.549  -4.442  -6.690  0.00  0.00    -0.064 N 
HETATM   20  H           1     -18.662  -4.917  -6.408  0.00  0.00     0.275 HD
HETATM   21  H           1     -19.324  -3.541  -7.169  0.00  0.00     0.275 HD
HETATM   22  H           1     -20.127  -4.252  -5.841  0.00  0.00     0.275 HD
ENDBRANCH   1  19
TORSDOF 7
ENDMDL
MODEL 3
REMARK VINA RESULT:      -5.9      3.188      6.875
REMARK  7 active torsions:
REMARK  status: ('A' for Active; 'I' for Inactive)
REMARK    1  A    between atoms: C_10  and  C_12 
REMARK       I    between atoms: N_13  and  C_14 
REMARK    2  A    between atoms: C_14  and  C_15 
REMARK    3  A    between atoms: C_15  and  C_16 
REMARK    4  A    between atoms: C_15  and  N_22 
REMARK    5  A    between atoms: C_16  and  O_17 
REMARK    6  A    between atoms: O_17  and  P_18 
REMARK    7  A    between atoms: P_18  and  O_20 
ROOT
HETATM    1  C           1     -21.571  -4.330  -6.849  0.00  0.00     0.298 C 
ENDROOT
BRANCH   1   2
HETATM    2  C           1     -21.325  -4.623  -8.308  0.00  0.00     0.253 C 
HETATM    3  O           1     -20.317  -5.197  -8.648  0.00  0.00    -0.271 OA
HETATM    4  N           1     -22.245  -4.241  -9.247  0.00  0.00    -0.336 N 
HETATM    5  C           1     -23.509  -3.546  -9.023  0.00  0.00     0.127 C 
HETATM    6  C           1     -22.176  -4.440 -10.692  0.00  0.00     0.188 C 
HETATM    7  C           1     -24.473  -4.228  -9.978  0.00  0.00     0.022 C 
HETATM    8  C           1     -23.595  -4.820 -11.074  0.00  0.00     0.038 C 
BRANCH   6   9
HETATM    9  C           1     -21.754  -3.170 -11.390  0.00  0.00     0.196 C 
HETATM   10  O           1     -22.576  -2.537 -12.088  0.00  0.00    -0.646 OA
HETATM   11  O           1     -20.582  -2.751 -11.271  0.00  0.00    -0.646 OA
ENDBRANCH   6   9
ENDBRANCH   1   2
BRANCH   1  12
HETATM   12  C           1     -20.384  -4.815  -6.026  0.00  0.00     0.224 C 
BRANCH  12  13
HETATM   13  O           1     -20.816  -5.779  -5.105  0.00  0.00    -0.287 OA
BRANCH  13  14
HETATM   14  P           1     -20.412  -7.306  -5.436  0.00  0.00     0.406 P 
HETATM   15  O           1     -19.288  -7.323  -6.399  0.00  0.00    -0.624 OA
HETATM   16  O           1     -21.575  -8.008  -6.024  0.00  0.00    -0.624 OA
BRANCH  14  17
HETATM   17  O           1     -19.965  -8.052  -4.075  0.00  0.00    -0.300 OA
HETATM   18  H           1     -19.138  -8.457  -4.279  0.00  0.00     0.223 HD
ENDBRANCH  14  17
ENDBRANCH  13  14
ENDBRANCH  12  13
ENDBRANCH   1  12
BRANCH   1  19
HETATM   19  N           1     -22.813  -5.040  -6.399  0.00  0.00    -0.064 N 
HETATM   20  H           1     -22.575  -6.021  -6.129  0.00  0.00     0.275 HD
HETATM   21  H           1     -23.220  -4.542  -5.575  0.00  0.00     0.275 HD
HETATM   22  H           1     -23.509  -5.053  -7.178  0.00  0.00     0.275 HD
ENDBRANCH   1  19
TORSDOF 7
ENDMDL
MODEL 4
REMARK VINA RESULT:      -5.5      6.104      8.586
REMARK  7 active torsions:
REMARK  status: ('A' for Active; 'I' for Inactive)
REMARK    1  A    between atoms: C_10  and  C_12 
REMARK       I    between atoms: N_13  and  C_14 
REMARK    2  A    between atoms: C_14  and  C_15 
REMARK    3  A    between atoms: C_15  and  C_16 
REMARK    4  A    between atoms: C_15  and  N_22 
REMARK    5  A    between atoms: C_16  and  O_17 
REMARK    6  A    between atoms: O_17  and  P_18 
REMARK    7  A    between atoms: P_18  and  O_20 
ROOT
HETATM    1  C           1     -21.923  -6.864  -3.151  0.00  0.00     0.298 C 
ENDROOT
BRANCH   1   2
HETATM    2  C           1     -21.193  -7.994  -2.467  0.00  0.00     0.253 C 
HETATM    3  O           1     -20.254  -8.524  -3.012  0.00  0.00    -0.271 OA
HETATM    4  N           1     -21.595  -8.417  -1.229  0.00  0.00    -0.336 N 
HETATM    5  C           1     -22.699  -7.899  -0.426  0.00  0.00     0.127 C 
HETATM    6  C           1     -21.014  -9.487  -0.423  0.00  0.00     0.188 C 
HETATM    7  C           1     -22.145  -7.886   0.988  0.00  0.00     0.022 C 
HETATM    8  C           1     -21.033  -8.929   0.989  0.00  0.00     0.038 C 
BRANCH   6   9
HETATM    9  C           1     -21.846 -10.743  -0.515  0.00  0.00     0.196 C 
HETATM   10  O           1     -22.016 -11.455   0.498  0.00  0.00    -0.646 OA
HETATM   11  O           1     -22.365 -11.071  -1.605  0.00  0.00    -0.646 OA
ENDBRANCH   6   9
ENDBRANCH   1   2
BRANCH   1  12
HETATM   12  C           1     -21.879  -7.070  -4.660  0.00  0.00     0.224 C 
BRANCH  12  13
HETATM   13  O           1     -22.475  -5.975  -5.300  0.00  0.00    -0.287 OA
BRANCH  13  14
HETATM   14  P           1     -21.576  -5.234  -6.418  0.00  0.00     0.406 P 
HETATM   15  O           1     -21.041  -6.236  -7.366  0.00  0.00    -0.624 OA
HETATM   16  O           1     -20.453  -4.529  -5.760  0.00  0.00    -0.624 OA
BRANCH  14  17
HETATM   17  O           1     -22.486  -4.167  -7.219  0.00  0.00    -0.300 OA
HETATM   18  H           1     -22.715  -3.513  -6.581  0.00  0.00     0.223 HD
ENDBRANCH  14  17
ENDBRANCH  13  14
ENDBRANCH  12  13
ENDBRANCH   1  12
BRANCH   1  19
HETATM   19  N           1     -21.261  -5.562  -2.807  0.00  0.00    -0.064 N 
HETATM   20  H           1     -21.773  -5.110  -2.015  0.00  0.00     0.275 HD
HETATM   21  H           1     -20.271  -5.739  -2.525  0.00  0.00     0.275 HD
HETATM   22  H           1     -21.280  -4.931  -3.639  0.00  0.00     0.275 HD
ENDBRANCH   1  19
TORSDOF 7
ENDMDL
MODEL 5
REMARK VINA RESULT:      -5.3      7.323      9.783
REMARK  7 active torsions:
REMARK  status: ('A' for Active; 'I' for Inactive)
REMARK    1  A    between atoms: C_10  and  C_12 
REMARK       I    between atoms: N_13  and  C_14 
REMARK    2  A    between atoms: C_14  and  C_15 
REMARK    3  A    between atoms: C_15  and  C_16 
REMARK    4  A    between atoms: C_15  and  N_22 
REMARK    5  A    between atoms: C_16  and  O_17 
REMARK    6  A    between atoms: O_17  and  P_18 
REMARK    7  A    between atoms: P_18  and  O_20 
ROOT
HETATM    1  C           1     -22.102  -7.472  -2.224  0.00  0.00     0.298 C 
ENDROOT
BRANCH   1   2
HETATM    2  C           1     -21.973  -8.262  -0.945  0.00  0.00     0.253 C 
HETATM    3  O           1     -21.589  -7.720   0.064  0.00  0.00    -0.271 OA
HETATM    4  N           1     -22.292  -9.594  -0.929  0.00  0.00    -0.336 N 
HETATM    5  C           1     -22.768 -10.408  -2.043  0.00  0.00     0.127 C 
HETATM    6  C           1     -22.229 -10.509   0.207  0.00  0.00     0.188 C 
HETATM    7  C           1     -23.837 -11.289  -1.418  0.00  0.00     0.022 C 
HETATM    8  C           1     -23.484 -11.352   0.063  0.00  0.00     0.038 C 
BRANCH   6   9
HETATM    9  C           1     -20.992 -11.371   0.135  0.00  0.00     0.196 C 
HETATM   10  O           1     -19.891 -10.861  -0.163  0.00  0.00    -0.646 OA
HETATM   11  O           1     -21.070 -12.597   0.373  0.00  0.00    -0.646 OA
ENDBRANCH   6   9
ENDBRANCH   1   2
BRANCH   1  12
HETATM   12  C           1     -20.820  -7.605  -3.035  0.00  0.00     0.224 C 
BRANCH  12  13
HETATM   13  O           1     -21.138  -7.805  -4.385  0.00  0.00    -0.287 OA
BRANCH  13  14
HETATM   14  P           1     -21.456  -6.474  -5.243  0.00  0.00     0.406 P 
HETATM   15  O           1     -20.679  -5.338  -4.698  0.00  0.00    -0.624 OA
HETATM   16  O           1     -22.901  -6.168  -5.161  0.00  0.00    -0.624 OA
BRANCH  14  17
HETATM   17  O           1     -21.043  -6.717  -6.785  0.00  0.00    -0.300 OA
HETATM   18  H           1     -21.072  -7.652  -6.901  0.00  0.00     0.223 HD
ENDBRANCH  14  17
ENDBRANCH  13  14
ENDBRANCH  12  13
ENDBRANCH   1  12
BRANCH   1  19
HETATM   19  N           1     -22.336  -6.026  -1.895  0.00  0.00    -0.064 N 
HETATM   20  H           1     -23.003  -5.616  -2.588  0.00  0.00     0.275 HD
HETATM   21  H           1     -22.741  -5.949  -0.935  0.00  0.00     0.275 HD
HETATM   22  H           1     -21.430  -5.508  -1.935  0.00  0.00     0.275 HD
ENDBRANCH   1  19
TORSDOF 7
ENDMDL
MODEL 6
REMARK VINA RESULT:      -5.1      1.799      2.349
REMARK  7 active torsions:
REMARK  status: ('A' for Active; 'I' for Inactive)
REMARK    1  A    between atoms: C_10  and  C_12 
REMARK       I    between atoms: N_13  and  C_14 
REMARK    2  A    between atoms: C_14  and  C_15 
REMARK    3  A    between atoms: C_15  and  C_16 
REMARK    4  A    between atoms: C_15  and  N_22 
REMARK    5  A    between atoms: C_16  and  O_17 
REMARK    6  A    between atoms: O_17  and  P_18 
REMARK    7  A    between atoms: P_18  and  O_20 
ROOT
HETATM    1  C           1     -21.447  -3.740 -10.179  0.00  0.00     0.298 C 
ENDROOT
BRANCH   1   2
HETATM    2  C           1     -20.482  -4.601  -9.402  0.00  0.00     0.253 C 
HETATM    3  O           1     -19.602  -5.195  -9.979  0.00  0.00    -0.271 OA
HETATM    4  N           1     -20.604  -4.709  -8.042  0.00  0.00    -0.336 N 
HETATM    5  C           1     -21.597  -4.069  -7.184  0.00  0.00     0.127 C 
HETATM    6  C           1     -19.768  -5.489  -7.134  0.00  0.00     0.188 C 
HETATM    7  C           1     -20.802  -3.649  -5.960  0.00  0.00     0.022 C 
HETATM    8  C           1     -19.596  -4.581  -5.929  0.00  0.00     0.038 C 
BRANCH   6   9
HETATM    9  C           1     -20.454  -6.775  -6.743  0.00  0.00     0.196 C 
HETATM   10  O           1     -21.636  -6.984  -7.091  0.00  0.00    -0.646 OA
HETATM   11  O           1     -19.840  -7.632  -6.071  0.00  0.00    -0.646 OA
ENDBRANCH   6   9
ENDBRANCH   1   2
BRANCH   1  12
HETATM   12  C           1     -22.642  -4.580 -10.612  0.00  0.00     0.224 C 
BRANCH  12  13
HETATM   13  O           1     -22.843  -4.434 -11.991  0.00  0.00    -0.287 OA
BRANCH  13  14
HETATM   14  P           1     -23.986  -3.383 -12.433  0.00  0.00     0.406 P 
HETATM   15  O           1     -24.953  -3.211 -11.327  0.00  0.00    -0.624 OA
HETATM   16  O           1     -24.691  -3.896 -13.629  0.00  0.00    -0.624 OA
BRANCH  14  17
HETATM   17  O           1     -23.304  -1.960 -12.778  0.00  0.00    -0.300 OA
HETATM   18  H           1     -22.837  -2.103 -13.584  0.00  0.00     0.223 HD
ENDBRANCH  14  17
ENDBRANCH  13  14
ENDBRANCH  12  13
ENDBRANCH   1  12
BRANCH   1  19
HETATM   19  N           1     -20.759  -3.190 -11.394  0.00  0.00    -0.064 N 
HETATM   20  H           1     -21.118  -2.229 -11.592  0.00  0.00     0.275 HD
HETATM   21  H           1     -19.729  -3.148 -11.220  0.00  0.00     0.275 HD
HETATM   22  H           1     -20.949  -3.810 -12.213  0.00  0.00     0.275 HD
ENDBRANCH   1  19
TORSDOF 7
ENDMDL
MODEL 7
REMARK VINA RESULT:      -5.0      4.827      7.006
REMARK  7 active torsions:
REMARK  status: ('A' for Active; 'I' for Inactive)
REMARK    1  A    between atoms: C_10  and  C_12 
REMARK       I    between atoms: N_13  and  C_14 
REMARK    2  A    between atoms: C_14  and  C_15 
REMARK    3  A    between atoms: C_15  and  C_16 
REMARK    4  A    between atoms: C_15  and  N_22 
REMARK    5  A    between atoms: C_16  and  O_17 
REMARK    6  A    between atoms: O_17  and  P_18 
REMARK    7  A    between atoms: P_18  and  O_20 
ROOT
HETATM    1  C           1     -20.434  -6.835  -4.958  0.00  0.00     0.298 C 
ENDROOT
BRANCH   1   2
HETATM    2  C           1     -21.508  -7.345  -4.029  0.00  0.00     0.253 C 
HETATM    3  O           1     -22.673  -7.164  -4.294  0.00  0.00    -0.271 OA
HETATM    4  N           1     -21.162  -8.015  -2.886  0.00  0.00    -0.336 N 
HETATM    5  C           1     -19.818  -8.324  -2.408  0.00  0.00     0.127 C 
HETATM    6  C           1     -22.058  -8.575  -1.878  0.00  0.00     0.188 C 
HETATM    7  C           1     -19.941  -9.738  -1.866  0.00  0.00     0.022 C 
HETATM    8  C           1     -21.417  -9.904  -1.521  0.00  0.00     0.038 C 
BRANCH   6   9
HETATM    9  C           1     -22.137  -7.675  -0.669  0.00  0.00     0.196 C 
HETATM   10  O           1     -22.493  -6.484  -0.798  0.00  0.00    -0.646 OA
HETATM   11  O           1     -21.845  -8.121   0.462  0.00  0.00    -0.646 OA
ENDBRANCH   6   9
ENDBRANCH   1   2
BRANCH   1  12
HETATM   12  C           1     -20.688  -5.367  -5.271  0.00  0.00     0.224 C 
BRANCH  12  13
HETATM   13  O           1     -20.635  -5.166  -6.657  0.00  0.00    -0.287 OA
BRANCH  13  14
HETATM   14  P           1     -21.927  -4.461  -7.320  0.00  0.00     0.406 P 
HETATM   15  O           1     -23.131  -4.788  -6.525  0.00  0.00    -0.624 OA
HETATM   16  O           1     -22.101  -4.953  -8.705  0.00  0.00    -0.624 OA
BRANCH  14  17
HETATM   17  O           1     -21.714  -2.860  -7.340  0.00  0.00    -0.300 OA
HETATM   18  H           1     -20.926  -2.724  -7.838  0.00  0.00     0.223 HD
ENDBRANCH  14  17
ENDBRANCH  13  14
ENDBRANCH  12  13
ENDBRANCH   1  12
BRANCH   1  19
HETATM   19  N           1     -20.459  -7.628  -6.232  0.00  0.00    -0.064 N 
HETATM   20  H           1     -20.159  -7.018  -7.027  0.00  0.00     0.275 HD
HETATM   21  H           1     -19.804  -8.438  -6.150  0.00  0.00     0.275 HD
HETATM   22  H           1     -21.427  -7.977  -6.407  0.00  0.00     0.275 HD
ENDBRANCH   1  19
TORSDOF 7
ENDMDL
MODEL 8
REMARK VINA RESULT:      -5.0      7.249      9.237
REMARK  7 active torsions:
REMARK  status: ('A' for Active; 'I' for Inactive)
REMARK    1  A    between atoms: C_10  and  C_12 
REMARK       I    between atoms: N_13  and  C_14 
REMARK    2  A    between atoms: C_14  and  C_15 
REMARK    3  A    between atoms: C_15  and  C_16 
REMARK    4  A    between atoms: C_15  and  N_22 
REMARK    5  A    between atoms: C_16  and  O_17 
REMARK    6  A    between atoms: O_17  and  P_18 
REMARK    7  A    between atoms: P_18  and  O_20 
ROOT
HETATM    1  C           1     -19.409  -8.850  -3.253  0.00  0.00     0.298 C 
ENDROOT
BRANCH   1   2
HETATM    2  C           1     -20.013  -9.644  -2.120  0.00  0.00     0.253 C 
HETATM    3  O           1     -19.543 -10.715  -1.815  0.00  0.00    -0.271 OA
HETATM    4  N           1     -21.093  -9.151  -1.438  0.00  0.00    -0.336 N 
HETATM    5  C           1     -21.787  -7.886  -1.666  0.00  0.00     0.127 C 
HETATM    6  C           1     -21.802  -9.774  -0.325  0.00  0.00     0.188 C 
HETATM    7  C           1     -22.080  -7.376  -0.266  0.00  0.00     0.022 C 
HETATM    8  C           1     -22.086  -8.618   0.618  0.00  0.00     0.038 C 
BRANCH   6   9
HETATM    9  C           1     -23.087 -10.411  -0.795  0.00  0.00     0.196 C 
HETATM   10  O           1     -23.138 -10.963  -1.915  0.00  0.00    -0.646 OA
HETATM   11  O           1     -24.101 -10.386  -0.064  0.00  0.00    -0.646 OA
ENDBRANCH   6   9
ENDBRANCH   1   2
BRANCH   1  12
HETATM   12  C           1     -20.180  -9.129  -4.536  0.00  0.00     0.224 C 
BRANCH  12  13
HETATM   13  O           1     -19.871  -8.151  -5.490  0.00  0.00    -0.287 OA
BRANCH  13  14
HETATM   14  P           1     -20.945  -6.955  -5.650  0.00  0.00     0.406 P 
HETATM   15  O           1     -22.249  -7.385  -5.100  0.00  0.00    -0.624 OA
HETATM   16  O           1     -21.099  -6.619  -7.083  0.00  0.00    -0.624 OA
BRANCH  14  17
HETATM   17  O           1     -20.424  -5.654  -4.846  0.00  0.00    -0.300 OA
HETATM   18  H           1     -19.687  -5.340  -5.342  0.00  0.00     0.223 HD
ENDBRANCH  14  17
ENDBRANCH  13  14
ENDBRANCH  12  13
ENDBRANCH   1  12
BRANCH   1  19
HETATM   19  N           1     -17.975  -9.253  -3.435  0.00  0.00    -0.064 N 
HETATM   20  H           1     -17.896  -9.897  -4.254  0.00  0.00     0.275 HD
HETATM   21  H           1     -17.394  -8.402  -3.605  0.00  0.00     0.275 HD
HETATM   22  H           1     -17.638  -9.740  -2.574  0.00  0.00     0.275 HD
ENDBRANCH   1  19
TORSDOF 7
ENDMDL
MODEL 9
REMARK VINA RESULT:      -5.0      2.176      2.756
REMARK  7 active torsions:
REMARK  status: ('A' for Active; 'I' for Inactive)
REMARK    1  A    between atoms: C_10  and  C_12 
REMARK       I    between atoms: N_13  and  C_14 
REMARK    2  A    between atoms: C_14  and  C_15 
REMARK    3  A    between atoms: C_15  and  C_16 
REMARK    4  A    between atoms: C_15  and  N_22 
REMARK    5  A    between atoms: C_16  and  O_17 
REMARK    6  A    between atoms: O_17  and  P_18 
REMARK    7  A    between atoms: P_18  and  O_20 
ROOT
HETATM    1  C           1     -21.467  -3.442 -10.498  0.00  0.00     0.298 C 
ENDROOT
BRANCH   1   2
HETATM    2  C           1     -21.522  -4.633  -9.574  0.00  0.00     0.253 C 
HETATM    3  O           1     -22.210  -5.585  -9.855  0.00  0.00    -0.271 OA
HETATM    4  N           1     -20.790  -4.636  -8.417  0.00  0.00    -0.336 N 
HETATM    5  C           1     -19.909  -3.584  -7.919  0.00  0.00     0.127 C 
HETATM    6  C           1     -20.720  -5.692  -7.411  0.00  0.00     0.188 C 
HETATM    7  C           1     -18.719  -4.342  -7.357  0.00  0.00     0.022 C 
HETATM    8  C           1     -19.251  -5.731  -7.027  0.00  0.00     0.038 C 
BRANCH   6   9
HETATM    9  C           1     -21.579  -5.355  -6.217  0.00  0.00     0.196 C 
HETATM   10  O           1     -21.117  -5.474  -5.061  0.00  0.00    -0.646 OA
HETATM   11  O           1     -22.752  -4.957  -6.383  0.00  0.00    -0.646 OA
ENDBRANCH   6   9
ENDBRANCH   1   2
BRANCH   1  12
HETATM   12  C           1     -22.737  -3.391 -11.336  0.00  0.00     0.224 C 
BRANCH  12  13
HETATM   13  O           1     -23.726  -2.676 -10.646  0.00  0.00    -0.287 OA
BRANCH  13  14
HETATM   14  P           1     -24.760  -3.559  -9.775  0.00  0.00     0.406 P 
HETATM   15  O           1     -24.868  -4.914 -10.361  0.00  0.00    -0.624 OA
HETATM   16  O           1     -26.090  -2.911  -9.781  0.00  0.00    -0.624 OA
BRANCH  14  17
HETATM   17  O           1     -24.223  -3.673  -8.256  0.00  0.00    -0.300 OA
HETATM   18  H           1     -24.995  -3.611  -7.719  0.00  0.00     0.223 HD
ENDBRANCH  14  17
ENDBRANCH  13  14
ENDBRANCH  12  13
ENDBRANCH   1  12
BRANCH   1  19
HETATM   19  N           1     -20.277  -3.567 -11.404  0.00  0.00    -0.064 N 
HETATM   20  H           1     -19.927  -4.552 -11.384  0.00  0.00     0.275 HD
HETATM   21  H           1     -20.554  -3.317 -12.379  0.00  0.00     0.275 HD
HETATM   22  H           1     -19.522  -2.923 -11.079  0.00  0.00     0.275 HD
ENDBRANCH   1  19
TORSDOF 7
ENDMDL
