MODEL 1
REMARK VINA RESULT:      -8.1      0.000      0.000
REMARK  8 active torsions:
REMARK  status: ('A' for Active; 'I' for Inactive)
REMARK    1  A    between atoms: C_3  and  C_12 
REMARK    2  A    between atoms: C_3  and  C_20 
REMARK    3  A    between atoms: C_9  and  C_11 
REMARK    4  A    between atoms: C_10  and  C_14 
REMARK    5  A    between atoms: C_10  and  C_11 
REMARK    6  A    between atoms: C_11  and  N_22 
REMARK    7  A    between atoms: C_12  and  C_13 
REMARK    8  A    between atoms: C_12  and  N_16 
REMARK       I    between atoms: C_13  and  N_22 
ROOT
HETATM    1  C           1     -21.076  -5.395  -6.559  0.00  0.00     0.278 C 
ENDROOT
BRANCH   1   2
HETATM    2  C           1     -22.210  -5.904  -5.680  0.00  0.00     0.083 C 
BRANCH   2   3
HETATM    3  C           1     -21.714  -7.031  -4.828  0.00  0.00    -0.028 A 
HETATM    4  C           1     -21.768  -7.097  -3.408  0.00  0.00    -0.002 A 
HETATM    5  C           1     -21.200  -8.313  -3.031  0.00  0.00     0.042 A 
HETATM    6  C           1     -22.248  -6.233  -2.405  0.00  0.00     0.014 A 
HETATM    7  C           1     -21.087  -8.712  -1.694  0.00  0.00     0.030 A 
HETATM    8  N           1     -20.817  -8.957  -4.186  0.00  0.00    -0.365 N 
HETATM    9  C           1     -21.570  -7.838  -0.715  0.00  0.00     0.002 A 
HETATM   10  C           1     -22.143  -6.617  -1.063  0.00  0.00     0.001 A 
HETATM   11  C           1     -21.124  -8.190  -5.280  0.00  0.00     0.096 A 
HETATM   12  H           1     -20.356  -9.900  -4.225  0.00  0.00     0.165 HD
ENDBRANCH   2   3
ENDBRANCH   1   2
BRANCH   1  13
HETATM   13  C           1     -21.612  -4.368  -7.526  0.00  0.00     0.249 C 
HETATM   14  O           1     -21.494  -3.190  -7.285  0.00  0.00    -0.271 OA
HETATM   15  N           1     -22.232  -4.771  -8.679  0.00  0.00    -0.344 N 
HETATM   16  H           1     -22.331  -5.757  -8.882  0.00  0.00     0.163 HD
BRANCH  15  17
HETATM   17  C           1     -22.746  -3.784  -9.608  0.00  0.00     0.195 C 
BRANCH  17  18
HETATM   18  C           1     -24.253  -3.863  -9.642  0.00  0.00     0.197 C 
HETATM   19  O           1     -24.938  -2.832  -9.468  0.00  0.00    -0.646 OA
HETATM   20  O           1     -24.817  -4.960  -9.844  0.00  0.00    -0.646 OA
ENDBRANCH  17  18
BRANCH  17  21
HETATM   21  C           1     -22.193  -4.060 -11.001  0.00  0.00     0.149 C 
BRANCH  21  22
HETATM   22  C           1     -20.699  -3.848 -11.000  0.00  0.00     0.175 C 
HETATM   23  O           1     -19.935  -4.789 -10.694  0.00  0.00    -0.648 OA
HETATM   24  O           1     -20.226  -2.732 -11.305  0.00  0.00    -0.648 OA
ENDBRANCH  21  22
ENDBRANCH  17  21
ENDBRANCH  15  17
ENDBRANCH   1  13
BRANCH   1  25
HETATM   25  N           1     -20.020  -4.767  -5.699  0.00  0.00    -0.066 N 
HETATM   26  H           1     -20.009  -3.735  -5.858  0.00  0.00     0.275 HD
HETATM   27  H           1     -19.087  -5.167  -5.944  0.00  0.00     0.275 HD
HETATM   28  H           1     -20.229  -4.963  -4.693  0.00  0.00     0.275 HD
ENDBRANCH   1  25
TORSDOF 8
ENDMDL
MODEL 2
REMARK VINA RESULT:      -7.8      3.161      7.915
REMARK  8 active torsions:
REMARK  status: ('A' for Active; 'I' for Inactive)
REMARK    1  A    between atoms: C_3  and  C_12 
REMARK    2  A    between atoms: C_3  and  C_20 
REMARK    3  A    between atoms: C_9  and  C_11 
REMARK    4  A    between atoms: C_10  and  C_14 
REMARK    5  A    between atoms: C_10  and  C_11 
REMARK    6  A    between atoms: C_11  and  N_22 
REMARK    7  A    between atoms: C_12  and  C_13 
REMARK    8  A    between atoms: C_12  and  N_16 
REMARK       I    between atoms: C_13  and  N_22 
ROOT
HETATM    1  C           1     -22.140  -5.173  -6.768  0.00  0.00     0.278 C 
ENDROOT
BRANCH   1   2
HETATM    2  C           1     -21.549  -3.876  -7.303  0.00  0.00     0.083 C 
BRANCH   2   3
HETATM    3  C           1     -21.334  -3.997  -8.780  0.00  0.00    -0.028 A 
HETATM    4  C           1     -22.318  -3.804  -9.790  0.00  0.00    -0.002 A 
HETATM    5  C           1     -21.692  -4.014 -11.018  0.00  0.00     0.042 A 
HETATM    6  C           1     -23.685  -3.471  -9.774  0.00  0.00     0.014 A 
HETATM    7  C           1     -22.369  -3.906 -12.239  0.00  0.00     0.030 A 
HETATM    8  N           1     -20.376  -4.322 -10.755  0.00  0.00    -0.365 N 
HETATM    9  C           1     -23.726  -3.573 -12.198  0.00  0.00     0.002 A 
HETATM   10  C           1     -24.377  -3.358 -10.986  0.00  0.00     0.001 A 
HETATM   11  C           1     -20.149  -4.315  -9.403  0.00  0.00     0.096 A 
HETATM   12  H           1     -19.650  -4.533 -11.484  0.00  0.00     0.165 HD
ENDBRANCH   2   3
ENDBRANCH   1   2
BRANCH   1  13
HETATM   13  C           1     -21.319  -5.655  -5.597  0.00  0.00     0.249 C 
HETATM   14  O           1     -20.399  -4.987  -5.188  0.00  0.00    -0.271 OA
HETATM   15  N           1     -21.618  -6.848  -4.996  0.00  0.00    -0.344 N 
HETATM   16  H           1     -22.388  -7.408  -5.338  0.00  0.00     0.163 HD
BRANCH  15  17
HETATM   17  C           1     -20.829  -7.311  -3.871  0.00  0.00     0.195 C 
BRANCH  17  18
HETATM   18  C           1     -19.918  -8.428  -4.321  0.00  0.00     0.197 C 
HETATM   19  O           1     -19.920  -8.793  -5.516  0.00  0.00    -0.646 OA
HETATM   20  O           1     -19.162  -8.987  -3.498  0.00  0.00    -0.646 OA
ENDBRANCH  17  18
BRANCH  17  21
HETATM   21  C           1     -21.757  -7.824  -2.776  0.00  0.00     0.149 C 
BRANCH  21  22
HETATM   22  C           1     -22.143  -6.682  -1.868  0.00  0.00     0.175 C 
HETATM   23  O           1     -22.704  -6.915  -0.775  0.00  0.00    -0.648 OA
HETATM   24  O           1     -21.903  -5.504  -2.209  0.00  0.00    -0.648 OA
ENDBRANCH  21  22
ENDBRANCH  17  21
ENDBRANCH  15  17
ENDBRANCH   1  13
BRANCH   1  25
HETATM   25  N           1     -23.552  -4.932  -6.323  0.00  0.00    -0.066 N 
HETATM   26  H           1     -23.609  -4.013  -5.828  0.00  0.00     0.275 HD
HETATM   27  H           1     -23.848  -5.695  -5.675  0.00  0.00     0.275 HD
HETATM   28  H           1     -24.182  -4.919  -7.157  0.00  0.00     0.275 HD
ENDBRANCH   1  25
TORSDOF 8
ENDMDL
MODEL 3
REMARK VINA RESULT:      -7.5      3.791      7.914
REMARK  8 active torsions:
REMARK  status: ('A' for Active; 'I' for Inactive)
REMARK    1  A    between atoms: C_3  and  C_12 
REMARK    2  A    between atoms: C_3  and  C_20 
REMARK    3  A    between atoms: C_9  and  C_11 
REMARK    4  A    between atoms: C_10  and  C_14 
REMARK    5  A    between atoms: C_10  and  C_11 
REMARK    6  A    between atoms: C_11  and  N_22 
REMARK    7  A    between atoms: C_12  and  C_13 
REMARK    8  A    between atoms: C_12  and  N_16 
REMARK       I    between atoms: C_13  and  N_22 
ROOT
HETATM    1  C           1     -21.557  -6.353  -5.605  0.00  0.00     0.278 C 
ENDROOT
BRANCH   1   2
HETATM    2  C           1     -20.967  -5.136  -6.303  0.00  0.00     0.083 C 
BRANCH   2   3
HETATM    3  C           1     -21.914  -4.657  -7.359  0.00  0.00    -0.028 A 
HETATM    4  C           1     -21.582  -4.353  -8.708  0.00  0.00    -0.002 A 
HETATM    5  C           1     -22.758  -3.944  -9.338  0.00  0.00     0.042 A 
HETATM    6  C           1     -20.389  -4.386  -9.455  0.00  0.00     0.014 A 
HETATM    7  C           1     -22.801  -3.565 -10.685  0.00  0.00     0.030 A 
HETATM    8  N           1     -23.762  -4.001  -8.398  0.00  0.00    -0.365 N 
HETATM    9  C           1     -21.604  -3.607 -11.407  0.00  0.00     0.002 A 
HETATM   10  C           1     -20.415  -4.010 -10.803  0.00  0.00     0.001 A 
HETATM   11  C           1     -23.262  -4.431  -7.196  0.00  0.00     0.096 A 
HETATM   12  H           1     -24.766  -3.752  -8.575  0.00  0.00     0.165 HD
ENDBRANCH   2   3
ENDBRANCH   1   2
BRANCH   1  13
HETATM   13  C           1     -20.517  -7.445  -5.530  0.00  0.00     0.249 C 
HETATM   14  O           1     -19.563  -7.422  -6.270  0.00  0.00    -0.271 OA
HETATM   15  N           1     -20.655  -8.460  -4.622  0.00  0.00    -0.344 N 
HETATM   16  H           1     -21.454  -8.479  -4.001  0.00  0.00     0.163 HD
BRANCH  15  17
HETATM   17  C           1     -19.656  -9.508  -4.549  0.00  0.00     0.195 C 
BRANCH  17  18
HETATM   18  C           1     -20.224 -10.784  -5.122  0.00  0.00     0.197 C 
HETATM   19  O           1     -20.666 -10.802  -6.291  0.00  0.00    -0.646 OA
HETATM   20  O           1     -20.252 -11.822  -4.427  0.00  0.00    -0.646 OA
ENDBRANCH  17  18
BRANCH  17  21
HETATM   21  C           1     -19.262  -9.737  -3.095  0.00  0.00     0.149 C 
BRANCH  21  22
HETATM   22  C           1     -20.286  -9.096  -2.190  0.00  0.00     0.175 C 
HETATM   23  O           1     -21.326  -9.718  -1.885  0.00  0.00    -0.648 OA
HETATM   24  O           1     -20.094  -7.943  -1.747  0.00  0.00    -0.648 OA
ENDBRANCH  21  22
ENDBRANCH  17  21
ENDBRANCH  15  17
ENDBRANCH   1  13
BRANCH   1  25
HETATM   25  N           1     -21.984  -5.975  -4.218  0.00  0.00    -0.066 N 
HETATM   26  H           1     -22.031  -4.934  -4.140  0.00  0.00     0.275 HD
HETATM   27  H           1     -21.294  -6.345  -3.527  0.00  0.00     0.275 HD
HETATM   28  H           1     -22.927  -6.382  -4.021  0.00  0.00     0.275 HD
ENDBRANCH   1  25
TORSDOF 8
ENDMDL
MODEL 4
REMARK VINA RESULT:      -7.3      1.120      2.540
REMARK  8 active torsions:
REMARK  status: ('A' for Active; 'I' for Inactive)
REMARK    1  A    between atoms: C_3  and  C_12 
REMARK    2  A    between atoms: C_3  and  C_20 
REMARK    3  A    between atoms: C_9  and  C_11 
REMARK    4  A    between atoms: C_10  and  C_14 
REMARK    5  A    between atoms: C_10  and  C_11 
REMARK    6  A    between atoms: C_11  and  N_22 
REMARK    7  A    between atoms: C_12  and  C_13 
REMARK    8  A    between atoms: C_12  and  N_16 
REMARK       I    between atoms: C_13  and  N_22 
ROOT
HETATM    1  C           1     -20.040  -5.521  -6.624  0.00  0.00     0.278 C 
ENDROOT
BRANCH   1   2
HETATM    2  C           1     -20.815  -5.385  -5.320  0.00  0.00     0.083 C 
BRANCH   2   3
HETATM    3  C           1     -20.779  -6.686  -4.580  0.00  0.00    -0.028 A 
HETATM    4  C           1     -21.295  -6.923  -3.275  0.00  0.00    -0.002 A 
HETATM    5  C           1     -21.051  -8.263  -2.975  0.00  0.00     0.042 A 
HETATM    6  C           1     -21.947  -6.122  -2.319  0.00  0.00     0.014 A 
HETATM    7  C           1     -21.429  -8.845  -1.759  0.00  0.00     0.030 A 
HETATM    8  N           1     -20.410  -8.812  -4.062  0.00  0.00    -0.365 N 
HETATM    9  C           1     -22.077  -8.031  -0.826  0.00  0.00     0.002 A 
HETATM   10  C           1     -22.333  -6.689  -1.099  0.00  0.00     0.001 A 
HETATM   11  C           1     -20.240  -7.866  -5.040  0.00  0.00     0.096 A 
HETATM   12  H           1     -20.096  -9.811  -4.134  0.00  0.00     0.165 HD
ENDBRANCH   2   3
ENDBRANCH   1   2
BRANCH   1  13
HETATM   13  C           1     -20.995  -5.428  -7.789  0.00  0.00     0.249 C 
HETATM   14  O           1     -21.824  -6.289  -7.962  0.00  0.00    -0.271 OA
HETATM   15  N           1     -20.922  -4.366  -8.650  0.00  0.00    -0.344 N 
HETATM   16  H           1     -20.229  -3.644  -8.506  0.00  0.00     0.163 HD
BRANCH  15  17
HETATM   17  C           1     -21.840  -4.277  -9.769  0.00  0.00     0.195 C 
BRANCH  17  18
HETATM   18  C           1     -21.121  -3.697 -10.964  0.00  0.00     0.197 C 
HETATM   19  O           1     -21.602  -2.715 -11.568  0.00  0.00    -0.646 OA
HETATM   20  O           1     -20.043  -4.201 -11.349  0.00  0.00    -0.646 OA
ENDBRANCH  17  18
BRANCH  17  21
HETATM   21  C           1     -23.010  -3.375  -9.397  0.00  0.00     0.149 C 
BRANCH  21  22
HETATM   22  C           1     -24.270  -3.892 -10.047  0.00  0.00     0.175 C 
HETATM   23  O           1     -24.949  -3.140 -10.779  0.00  0.00    -0.648 OA
HETATM   24  O           1     -24.635  -5.072  -9.853  0.00  0.00    -0.648 OA
ENDBRANCH  21  22
ENDBRANCH  17  21
ENDBRANCH  15  17
ENDBRANCH   1  13
BRANCH   1  25
HETATM   25  N           1     -19.027  -4.419  -6.719  0.00  0.00    -0.066 N 
HETATM   26  H           1     -18.660  -4.367  -7.696  0.00  0.00     0.275 HD
HETATM   27  H           1     -18.239  -4.612  -6.061  0.00  0.00     0.275 HD
HETATM   28  H           1     -19.476  -3.510  -6.467  0.00  0.00     0.275 HD
ENDBRANCH   1  25
TORSDOF 8
ENDMDL
MODEL 5
REMARK VINA RESULT:      -7.2      3.168      7.494
REMARK  8 active torsions:
REMARK  status: ('A' for Active; 'I' for Inactive)
REMARK    1  A    between atoms: C_3  and  C_12 
REMARK    2  A    between atoms: C_3  and  C_20 
REMARK    3  A    between atoms: C_9  and  C_11 
REMARK    4  A    between atoms: C_10  and  C_14 
REMARK    5  A    between atoms: C_10  and  C_11 
REMARK    6  A    between atoms: C_11  and  N_22 
REMARK    7  A    between atoms: C_12  and  C_13 
REMARK    8  A    between atoms: C_12  and  N_16 
REMARK       I    between atoms: C_13  and  N_22 
ROOT
HETATM    1  C           1     -20.453  -5.206  -6.420  0.00  0.00     0.278 C 
ENDROOT
BRANCH   1   2
HETATM    2  C           1     -21.157  -3.959  -6.936  0.00  0.00     0.083 C 
BRANCH   2   3
HETATM    3  C           1     -21.155  -3.967  -8.433  0.00  0.00    -0.028 A 
HETATM    4  C           1     -22.296  -3.842  -9.274  0.00  0.00    -0.002 A 
HETATM    5  C           1     -21.843  -3.902 -10.592  0.00  0.00     0.042 A 
HETATM    6  C           1     -23.674  -3.684  -9.038  0.00  0.00     0.014 A 
HETATM    7  C           1     -22.704  -3.810 -11.692  0.00  0.00     0.030 A 
HETATM    8  N           1     -20.476  -4.057 -10.544  0.00  0.00    -0.365 N 
HETATM    9  C           1     -24.069  -3.653 -11.433  0.00  0.00     0.002 A 
HETATM   10  C           1     -24.549  -3.591 -10.127  0.00  0.00     0.001 A 
HETATM   11  C           1     -20.049  -4.099  -9.242  0.00  0.00     0.096 A 
HETATM   12  H           1     -19.849  -4.134 -11.383  0.00  0.00     0.165 HD
ENDBRANCH   2   3
ENDBRANCH   1   2
BRANCH   1  13
HETATM   13  C           1     -21.369  -5.948  -5.477  0.00  0.00     0.249 C 
HETATM   14  O           1     -22.560  -5.754  -5.514  0.00  0.00    -0.271 OA
HETATM   15  N           1     -20.849  -6.841  -4.579  0.00  0.00    -0.344 N 
HETATM   16  H           1     -19.851  -7.004  -4.547  0.00  0.00     0.163 HD
BRANCH  15  17
HETATM   17  C           1     -21.729  -7.554  -3.674  0.00  0.00     0.195 C 
BRANCH  17  18
HETATM   18  C           1     -21.640  -6.938  -2.298  0.00  0.00     0.197 C 
HETATM   19  O           1     -22.241  -5.870  -2.051  0.00  0.00    -0.646 OA
HETATM   20  O           1     -20.965  -7.495  -1.407  0.00  0.00    -0.646 OA
ENDBRANCH  17  18
BRANCH  17  21
HETATM   21  C           1     -21.309  -9.016  -3.602  0.00  0.00     0.149 C 
BRANCH  21  22
HETATM   22  C           1     -20.083  -9.231  -4.456  0.00  0.00     0.175 C 
HETATM   23  O           1     -20.207  -9.564  -5.654  0.00  0.00    -0.648 OA
HETATM   24  O           1     -18.944  -9.076  -3.964  0.00  0.00    -0.648 OA
ENDBRANCH  21  22
ENDBRANCH  17  21
ENDBRANCH  15  17
ENDBRANCH   1  13
BRANCH   1  25
HETATM   25  N           1     -20.100  -6.095  -7.575  0.00  0.00    -0.066 N 
HETATM   26  H           1     -20.488  -7.051  -7.410  0.00  0.00     0.275 HD
HETATM   27  H           1     -19.060  -6.151  -7.667  0.00  0.00     0.275 HD
HETATM   28  H           1     -20.505  -5.700  -8.454  0.00  0.00     0.275 HD
ENDBRANCH   1  25
TORSDOF 8
ENDMDL
MODEL 6
REMARK VINA RESULT:      -7.1     13.268     15.316
REMARK  8 active torsions:
REMARK  status: ('A' for Active; 'I' for Inactive)
REMARK    1  A    between atoms: C_3  and  C_12 
REMARK    2  A    between atoms: C_3  and  C_20 
REMARK    3  A    between atoms: C_9  and  C_11 
REMARK    4  A    between atoms: C_10  and  C_14 
REMARK    5  A    between atoms: C_10  and  C_11 
REMARK    6  A    between atoms: C_11  and  N_22 
REMARK    7  A    between atoms: C_12  and  C_13 
REMARK    8  A    between atoms: C_12  and  N_16 
REMARK       I    between atoms: C_13  and  N_22 
ROOT
HETATM    1  C           1     -35.321  -1.474 -11.269  0.00  0.00     0.278 C 
ENDROOT
BRANCH   1   2
HETATM    2  C           1     -35.770  -2.894 -10.955  0.00  0.00     0.083 C 
BRANCH   2   3
HETATM    3  C           1     -34.636  -3.842 -11.193  0.00  0.00    -0.028 A 
HETATM    4  C           1     -34.549  -5.181 -10.722  0.00  0.00    -0.002 A 
HETATM    5  C           1     -33.332  -5.696 -11.170  0.00  0.00     0.042 A 
HETATM    6  C           1     -35.392  -6.007  -9.955  0.00  0.00     0.014 A 
HETATM    7  C           1     -32.915  -7.002 -10.887  0.00  0.00     0.030 A 
HETATM    8  N           1     -32.710  -4.698 -11.885  0.00  0.00    -0.365 N 
HETATM    9  C           1     -33.769  -7.803 -10.124  0.00  0.00     0.002 A 
HETATM   10  C           1     -34.990  -7.315  -9.663  0.00  0.00     0.001 A 
HETATM   11  C           1     -33.490  -3.572 -11.906  0.00  0.00     0.096 A 
HETATM   12  H           1     -31.771  -4.787 -12.350  0.00  0.00     0.165 HD
ENDBRANCH   2   3
ENDBRANCH   1   2
BRANCH   1  13
HETATM   13  C           1     -35.935  -1.028 -12.574  0.00  0.00     0.249 C 
HETATM   14  O           1     -37.100  -0.712 -12.617  0.00  0.00    -0.271 OA
HETATM   15  N           1     -35.170  -0.981 -13.709  0.00  0.00    -0.344 N 
HETATM   16  H           1     -34.195  -1.246 -13.674  0.00  0.00     0.163 HD
BRANCH  15  17
HETATM   17  C           1     -35.760  -0.553 -14.962  0.00  0.00     0.195 C 
BRANCH  17  18
HETATM   18  C           1     -35.374  -1.519 -16.056  0.00  0.00     0.197 C 
HETATM   19  O           1     -35.709  -1.292 -17.239  0.00  0.00    -0.646 OA
HETATM   20  O           1     -34.718  -2.546 -15.779  0.00  0.00    -0.646 OA
ENDBRANCH  17  18
BRANCH  17  21
HETATM   21  C           1     -35.252   0.840 -15.314  0.00  0.00     0.149 C 
BRANCH  21  22
HETATM   22  C           1     -36.362   1.633 -15.959  0.00  0.00     0.175 C 
HETATM   23  O           1     -37.535   1.202 -15.931  0.00  0.00    -0.648 OA
HETATM   24  O           1     -36.108   2.720 -16.521  0.00  0.00    -0.648 OA
ENDBRANCH  21  22
ENDBRANCH  17  21
ENDBRANCH  15  17
ENDBRANCH   1  13
BRANCH   1  25
HETATM   25  N           1     -35.763  -0.556 -10.170  0.00  0.00    -0.066 N 
HETATM   26  H           1     -36.483   0.107 -10.537  0.00  0.00     0.275 HD
HETATM   27  H           1     -34.942  -0.016  -9.814  0.00  0.00     0.275 HD
HETATM   28  H           1     -36.173  -1.118  -9.390  0.00  0.00     0.275 HD
ENDBRANCH   1  25
TORSDOF 8
ENDMDL
MODEL 7
REMARK VINA RESULT:      -7.1      3.519      7.643
REMARK  8 active torsions:
REMARK  status: ('A' for Active; 'I' for Inactive)
REMARK    1  A    between atoms: C_3  and  C_12 
REMARK    2  A    between atoms: C_3  and  C_20 
REMARK    3  A    between atoms: C_9  and  C_11 
REMARK    4  A    between atoms: C_10  and  C_14 
REMARK    5  A    between atoms: C_10  and  C_11 
REMARK    6  A    between atoms: C_11  and  N_22 
REMARK    7  A    between atoms: C_12  and  C_13 
REMARK    8  A    between atoms: C_12  and  N_16 
REMARK       I    between atoms: C_13  and  N_22 
ROOT
HETATM    1  C           1     -20.201  -5.798  -6.036  0.00  0.00     0.278 C 
ENDROOT
BRANCH   1   2
HETATM    2  C           1     -20.684  -4.362  -6.182  0.00  0.00     0.083 C 
BRANCH   2   3
HETATM    3  C           1     -21.717  -4.289  -7.263  0.00  0.00    -0.028 A 
HETATM    4  C           1     -21.467  -4.120  -8.653  0.00  0.00    -0.002 A 
HETATM    5  C           1     -22.706  -4.106  -9.294  0.00  0.00     0.042 A 
HETATM    6  C           1     -20.301  -3.977  -9.428  0.00  0.00     0.014 A 
HETATM    7  C           1     -22.837  -3.956 -10.680  0.00  0.00     0.030 A 
HETATM    8  N           1     -23.667  -4.261  -8.321  0.00  0.00    -0.365 N 
HETATM    9  C           1     -21.665  -3.816 -11.429  0.00  0.00     0.002 A 
HETATM   10  C           1     -20.414  -3.826 -10.815  0.00  0.00     0.001 A 
HETATM   11  C           1     -23.080  -4.372  -7.088  0.00  0.00     0.096 A 
HETATM   12  H           1     -24.702  -4.290  -8.498  0.00  0.00     0.165 HD
ENDBRANCH   2   3
ENDBRANCH   1   2
BRANCH   1  13
HETATM   13  C           1     -20.897  -6.447  -4.865  0.00  0.00     0.249 C 
HETATM   14  O           1     -21.708  -5.824  -4.223  0.00  0.00    -0.271 OA
HETATM   15  N           1     -20.609  -7.744  -4.531  0.00  0.00    -0.344 N 
HETATM   16  H           1     -19.930  -8.266  -5.069  0.00  0.00     0.163 HD
BRANCH  15  17
HETATM   17  C           1     -21.279  -8.368  -3.407  0.00  0.00     0.195 C 
BRANCH  17  18
HETATM   18  C           1     -20.352  -8.380  -2.215  0.00  0.00     0.197 C 
HETATM   19  O           1     -19.187  -8.818  -2.333  0.00  0.00    -0.646 OA
HETATM   20  O           1     -20.750  -7.953  -1.110  0.00  0.00    -0.646 OA
ENDBRANCH  17  18
BRANCH  17  21
HETATM   21  C           1     -21.657  -9.798  -3.769  0.00  0.00     0.149 C 
BRANCH  21  22
HETATM   22  C           1     -20.853 -10.243  -4.966  0.00  0.00     0.175 C 
HETATM   23  O           1     -21.282 -10.031  -6.121  0.00  0.00    -0.648 OA
HETATM   24  O           1     -19.758 -10.825  -4.803  0.00  0.00    -0.648 OA
ENDBRANCH  21  22
ENDBRANCH  17  21
ENDBRANCH  15  17
ENDBRANCH   1  13
BRANCH   1  25
HETATM   25  N           1     -20.515  -6.560  -7.289  0.00  0.00    -0.066 N 
HETATM   26  H           1     -20.832  -5.895  -8.030  0.00  0.00     0.275 HD
HETATM   27  H           1     -21.272  -7.253  -7.095  0.00  0.00     0.275 HD
HETATM   28  H           1     -19.658  -7.063  -7.615  0.00  0.00     0.275 HD
ENDBRANCH   1  25
TORSDOF 8
ENDMDL
MODEL 8
REMARK VINA RESULT:      -6.9      2.108      3.030
REMARK  8 active torsions:
REMARK  status: ('A' for Active; 'I' for Inactive)
REMARK    1  A    between atoms: C_3  and  C_12 
REMARK    2  A    between atoms: C_3  and  C_20 
REMARK    3  A    between atoms: C_9  and  C_11 
REMARK    4  A    between atoms: C_10  and  C_14 
REMARK    5  A    between atoms: C_10  and  C_11 
REMARK    6  A    between atoms: C_11  and  N_22 
REMARK    7  A    between atoms: C_12  and  C_13 
REMARK    8  A    between atoms: C_12  and  N_16 
REMARK       I    between atoms: C_13  and  N_22 
ROOT
HETATM    1  C           1     -20.606  -7.802  -5.042  0.00  0.00     0.278 C 
ENDROOT
BRANCH   1   2
HETATM    2  C           1     -20.091  -8.001  -3.623  0.00  0.00     0.083 C 
BRANCH   2   3
HETATM    3  C           1     -20.968  -8.979  -2.905  0.00  0.00    -0.028 A 
HETATM    4  C           1     -21.733  -8.718  -1.734  0.00  0.00    -0.002 A 
HETATM    5  C           1     -22.397  -9.900  -1.405  0.00  0.00     0.042 A 
HETATM    6  C           1     -21.924  -7.585  -0.921  0.00  0.00     0.014 A 
HETATM    7  C           1     -23.246 -10.005  -0.298  0.00  0.00     0.030 A 
HETATM    8  N           1     -22.042 -10.839  -2.347  0.00  0.00    -0.365 N 
HETATM    9  C           1     -23.421  -8.867   0.494  0.00  0.00     0.002 A 
HETATM   10  C           1     -22.771  -7.673   0.190  0.00  0.00     0.001 A 
HETATM   11  C           1     -21.177 -10.292  -3.259  0.00  0.00     0.096 A 
HETATM   12  H           1     -22.384 -11.832  -2.365  0.00  0.00     0.165 HD
ENDBRANCH   2   3
ENDBRANCH   1   2
BRANCH   1  13
HETATM   13  C           1     -21.171  -6.410  -5.182  0.00  0.00     0.249 C 
HETATM   14  O           1     -21.635  -5.846  -4.220  0.00  0.00    -0.271 OA
HETATM   15  N           1     -21.156  -5.785  -6.400  0.00  0.00    -0.344 N 
HETATM   16  H           1     -20.767  -6.256  -7.206  0.00  0.00     0.163 HD
BRANCH  15  17
HETATM   17  C           1     -21.698  -4.447  -6.534  0.00  0.00     0.195 C 
BRANCH  17  18
HETATM   18  C           1     -23.077  -4.522  -7.143  0.00  0.00     0.197 C 
HETATM   19  O           1     -23.228  -4.354  -8.373  0.00  0.00    -0.646 OA
HETATM   20  O           1     -24.068  -4.752  -6.418  0.00  0.00    -0.646 OA
ENDBRANCH  17  18
BRANCH  17  21
HETATM   21  C           1     -20.791  -3.618  -7.436  0.00  0.00     0.149 C 
BRANCH  21  22
HETATM   22  C           1     -19.698  -4.497  -7.993  0.00  0.00     0.175 C 
HETATM   23  O           1     -18.608  -4.597  -7.389  0.00  0.00    -0.648 OA
HETATM   24  O           1     -19.881  -5.122  -9.060  0.00  0.00    -0.648 OA
ENDBRANCH  21  22
ENDBRANCH  17  21
ENDBRANCH  15  17
ENDBRANCH   1  13
BRANCH   1  25
HETATM   25  N           1     -19.478  -7.984  -6.013  0.00  0.00    -0.066 N 
HETATM   26  H           1     -18.662  -8.415  -5.522  0.00  0.00     0.275 HD
HETATM   27  H           1     -19.199  -7.055  -6.402  0.00  0.00     0.275 HD
HETATM   28  H           1     -19.786  -8.609  -6.792  0.00  0.00     0.275 HD
ENDBRANCH   1  25
TORSDOF 8
ENDMDL
MODEL 9
REMARK VINA RESULT:      -6.9      1.231      2.252
REMARK  8 active torsions:
REMARK  status: ('A' for Active; 'I' for Inactive)
REMARK    1  A    between atoms: C_3  and  C_12 
REMARK    2  A    between atoms: C_3  and  C_20 
REMARK    3  A    between atoms: C_9  and  C_11 
REMARK    4  A    between atoms: C_10  and  C_14 
REMARK    5  A    between atoms: C_10  and  C_11 
REMARK    6  A    between atoms: C_11  and  N_22 
REMARK    7  A    between atoms: C_12  and  C_13 
REMARK    8  A    between atoms: C_12  and  N_16 
REMARK       I    between atoms: C_13  and  N_22 
ROOT
HETATM    1  C           1     -21.111  -5.784  -6.841  0.00  0.00     0.278 C 
ENDROOT
BRANCH   1   2
HETATM    2  C           1     -20.682  -5.291  -5.466  0.00  0.00     0.083 C 
BRANCH   2   3
HETATM    3  C           1     -21.016  -6.326  -4.437  0.00  0.00    -0.028 A 
HETATM    4  C           1     -20.452  -7.629  -4.345  0.00  0.00    -0.002 A 
HETATM    5  C           1     -21.043  -8.255  -3.247  0.00  0.00     0.042 A 
HETATM    6  C           1     -19.492  -8.336  -5.093  0.00  0.00     0.014 A 
HETATM    7  C           1     -20.720  -9.560  -2.859  0.00  0.00     0.030 A 
HETATM    8  N           1     -21.932  -7.358  -2.700  0.00  0.00    -0.365 N 
HETATM    9  C           1     -19.764 -10.243  -3.616  0.00  0.00     0.002 A 
HETATM   10  C           1     -19.157  -9.642  -4.717  0.00  0.00     0.001 A 
HETATM   11  C           1     -21.924  -6.187  -3.413  0.00  0.00     0.096 A 
HETATM   12  H           1     -22.531  -7.544  -1.857  0.00  0.00     0.165 HD
ENDBRANCH   2   3
ENDBRANCH   1   2
BRANCH   1  13
HETATM   13  C           1     -21.676  -4.632  -7.635  0.00  0.00     0.249 C 
HETATM   14  O           1     -21.622  -3.508  -7.194  0.00  0.00    -0.271 OA
HETATM   15  N           1     -22.251  -4.860  -8.857  0.00  0.00    -0.344 N 
HETATM   16  H           1     -22.297  -5.800  -9.228  0.00  0.00     0.163 HD
BRANCH  15  17
HETATM   17  C           1     -22.794  -3.753  -9.620  0.00  0.00     0.195 C 
BRANCH  17  18
HETATM   18  C           1     -24.301  -3.847  -9.640  0.00  0.00     0.197 C 
HETATM   19  O           1     -24.855  -4.947  -9.853  0.00  0.00    -0.646 OA
HETATM   20  O           1     -24.993  -2.826  -9.444  0.00  0.00    -0.646 OA
ENDBRANCH  17  18
BRANCH  17  21
HETATM   21  C           1     -22.264  -3.810 -11.047  0.00  0.00     0.149 C 
BRANCH  21  22
HETATM   22  C           1     -20.761  -3.681 -11.032  0.00  0.00     0.175 C 
HETATM   23  O           1     -20.226  -2.573 -11.256  0.00  0.00    -0.648 OA
HETATM   24  O           1     -20.050  -4.682 -10.796  0.00  0.00    -0.648 OA
ENDBRANCH  21  22
ENDBRANCH  17  21
ENDBRANCH  15  17
ENDBRANCH   1  13
BRANCH   1  25
HETATM   25  N           1     -19.923  -6.351  -7.561  0.00  0.00    -0.066 N 
HETATM   26  H           1     -19.185  -6.605  -6.867  0.00  0.00     0.275 HD
HETATM   27  H           1     -19.546  -5.639  -8.226  0.00  0.00     0.275 HD
HETATM   28  H           1     -20.212  -7.204  -8.091  0.00  0.00     0.275 HD
ENDBRANCH   1  25
TORSDOF 8
ENDMDL
