MODEL 1
REMARK VINA RESULT:      -5.8      0.000      0.000
REMARK  8 active torsions:
REMARK  status: ('A' for Active; 'I' for Inactive)
REMARK    1  A    between atoms: N_2  and  C_11 
REMARK       I    between atoms: N_2  and  C_14 
REMARK       I    between atoms: N_5  and  C_18 
REMARK    2  A    between atoms: C_6  and  C_18 
REMARK    3  A    between atoms: C_6  and  C_11 
REMARK    4  A    between atoms: O_7  and  C_12 
REMARK    5  A    between atoms: N_9  and  C_13 
REMARK    6  A    between atoms: C_11  and  C_20 
REMARK    7  A    between atoms: C_12  and  C_13 
REMARK    8  A    between atoms: C_13  and  C_14 
ROOT
HETATM    1  N           1     -35.919  -1.160 -13.259  0.00  0.00    -0.344 N 
HETATM    2  O           1     -34.498   0.366 -14.059  0.00  0.00    -0.271 OA
HETATM    3  C           1     -35.546  -0.222 -14.184  0.00  0.00     0.251 C 
HETATM    4  H           1     -36.797  -1.652 -13.364  0.00  0.00     0.163 HD
ENDROOT
BRANCH   1   5
HETATM    5  C           1     -35.056  -1.447 -12.130  0.00  0.00     0.194 C 
BRANCH   5   6
HETATM    6  C           1     -35.908  -1.700 -10.892  0.00  0.00     0.138 C 
BRANCH   6   7
HETATM    7  C           1     -36.952  -0.619 -10.769  0.00  0.00     0.217 C 
HETATM    8  O           1     -38.075  -0.814 -11.170  0.00  0.00    -0.274 OA
HETATM    9  N           1     -36.627   0.585 -10.203  0.00  0.00    -0.370 N 
HETATM   10  H           1     -35.687   0.748  -9.867  0.00  0.00     0.159 HD
HETATM   11  H           1     -37.327   1.311 -10.120  0.00  0.00     0.159 HD
ENDBRANCH   6   7
ENDBRANCH   5   6
BRANCH   5  12
HETATM   12  C           1     -34.227  -2.672 -12.430  0.00  0.00     0.197 C 
HETATM   13  O           1     -34.402  -3.299 -13.497  0.00  0.00    -0.646 OA
HETATM   14  O           1     -33.366  -3.059 -11.611  0.00  0.00    -0.646 OA
ENDBRANCH   5  12
ENDBRANCH   1   5
BRANCH   3  15
HETATM   15  C           1     -36.443   0.078 -15.359  0.00  0.00     0.297 C 
BRANCH  15  16
HETATM   16  N           1     -36.233   1.497 -15.799  0.00  0.00    -0.064 N 
HETATM   17  H           1     -37.033   2.084 -15.472  0.00  0.00     0.275 HD
HETATM   18  H           1     -35.344   1.861 -15.389  0.00  0.00     0.275 HD
HETATM   19  H           1     -36.177   1.533 -16.842  0.00  0.00     0.275 HD
ENDBRANCH  15  16
BRANCH  15  20
HETATM   20  C           1     -36.108  -0.863 -16.508  0.00  0.00     0.206 C 
BRANCH  20  21
HETATM   21  O           1     -35.192  -1.830 -16.069  0.00  0.00    -0.398 OA
HETATM   22  H           1     -34.518  -1.887 -16.725  0.00  0.00     0.209 HD
ENDBRANCH  20  21
ENDBRANCH  15  20
ENDBRANCH   3  15
TORSDOF 8
ENDMDL
MODEL 2
REMARK VINA RESULT:      -5.5     12.802     15.064
REMARK  8 active torsions:
REMARK  status: ('A' for Active; 'I' for Inactive)
REMARK    1  A    between atoms: N_2  and  C_11 
REMARK       I    between atoms: N_2  and  C_14 
REMARK       I    between atoms: N_5  and  C_18 
REMARK    2  A    between atoms: C_6  and  C_18 
REMARK    3  A    between atoms: C_6  and  C_11 
REMARK    4  A    between atoms: O_7  and  C_12 
REMARK    5  A    between atoms: N_9  and  C_13 
REMARK    6  A    between atoms: C_11  and  C_20 
REMARK    7  A    between atoms: C_12  and  C_13 
REMARK    8  A    between atoms: C_13  and  C_14 
ROOT
HETATM    1  N           1     -23.060  -4.363  -8.813  0.00  0.00    -0.344 N 
HETATM    2  O           1     -21.389  -3.201  -7.895  0.00  0.00    -0.271 OA
HETATM    3  C           1     -22.208  -4.081  -7.780  0.00  0.00     0.251 C 
HETATM    4  H           1     -23.745  -5.101  -8.717  0.00  0.00     0.163 HD
ENDROOT
BRANCH   1   5
HETATM    5  C           1     -22.979  -3.604 -10.046  0.00  0.00     0.194 C 
BRANCH   5   6
HETATM    6  C           1     -22.256  -4.429 -11.103  0.00  0.00     0.138 C 
BRANCH   6   7
HETATM    7  C           1     -20.783  -4.102 -11.076  0.00  0.00     0.217 C 
HETATM    8  O           1     -19.998  -4.892 -10.607  0.00  0.00    -0.274 OA
HETATM    9  N           1     -20.337  -2.910 -11.581  0.00  0.00    -0.370 N 
HETATM   10  H           1     -20.996  -2.249 -11.973  0.00  0.00     0.159 HD
HETATM   11  H           1     -19.350  -2.691 -11.563  0.00  0.00     0.159 HD
ENDBRANCH   6   7
ENDBRANCH   5   6
BRANCH   5  12
HETATM   12  C           1     -24.372  -3.279 -10.527  0.00  0.00     0.197 C 
HETATM   13  O           1     -24.571  -3.012 -11.732  0.00  0.00    -0.646 OA
HETATM   14  O           1     -25.327  -3.278  -9.721  0.00  0.00    -0.646 OA
ENDBRANCH   5  12
ENDBRANCH   1   5
BRANCH   3  15
HETATM   15  C           1     -22.291  -4.870  -6.496  0.00  0.00     0.297 C 
BRANCH  15  16
HETATM   16  N           1     -23.720  -5.244  -6.232  0.00  0.00    -0.064 N 
HETATM   17  H           1     -24.343  -4.725  -6.889  0.00  0.00     0.275 HD
HETATM   18  H           1     -23.842  -6.272  -6.374  0.00  0.00     0.275 HD
HETATM   19  H           1     -23.966  -4.996  -5.246  0.00  0.00     0.275 HD
ENDBRANCH  15  16
BRANCH  15  20
HETATM   20  C           1     -21.451  -6.134  -6.620  0.00  0.00     0.206 C 
BRANCH  20  21
HETATM   21  O           1     -20.599  -6.023  -7.728  0.00  0.00    -0.398 OA
HETATM   22  H           1     -20.472  -5.102  -7.885  0.00  0.00     0.209 HD
ENDBRANCH  20  21
ENDBRANCH  15  20
ENDBRANCH   3  15
TORSDOF 8
ENDMDL
MODEL 3
REMARK VINA RESULT:      -5.4     12.104     13.551
REMARK  8 active torsions:
REMARK  status: ('A' for Active; 'I' for Inactive)
REMARK    1  A    between atoms: N_2  and  C_11 
REMARK       I    between atoms: N_2  and  C_14 
REMARK       I    between atoms: N_5  and  C_18 
REMARK    2  A    between atoms: C_6  and  C_18 
REMARK    3  A    between atoms: C_6  and  C_11 
REMARK    4  A    between atoms: O_7  and  C_12 
REMARK    5  A    between atoms: N_9  and  C_13 
REMARK    6  A    between atoms: C_11  and  C_20 
REMARK    7  A    between atoms: C_12  and  C_13 
REMARK    8  A    between atoms: C_13  and  C_14 
ROOT
HETATM    1  N           1     -22.137  -4.115 -11.373  0.00  0.00    -0.344 N 
HETATM    2  O           1     -22.290  -1.946 -11.880  0.00  0.00    -0.271 OA
HETATM    3  C           1     -22.424  -3.092 -12.236  0.00  0.00     0.251 C 
HETATM    4  H           1     -22.249  -5.075 -11.671  0.00  0.00     0.163 HD
ENDROOT
BRANCH   1   5
HETATM    5  C           1     -21.673  -3.822 -10.031  0.00  0.00     0.194 C 
BRANCH   5   6
HETATM    6  C           1     -22.652  -4.401  -9.017  0.00  0.00     0.138 C 
BRANCH   6   7
HETATM    7  C           1     -24.065  -4.187  -9.502  0.00  0.00     0.217 C 
HETATM    8  O           1     -24.568  -4.977 -10.265  0.00  0.00    -0.274 OA
HETATM    9  N           1     -24.776  -3.096  -9.077  0.00  0.00    -0.370 N 
HETATM   10  H           1     -24.354  -2.435  -8.438  0.00  0.00     0.159 HD
HETATM   11  H           1     -25.723  -2.952  -9.402  0.00  0.00     0.159 HD
ENDBRANCH   6   7
ENDBRANCH   5   6
BRANCH   5  12
HETATM   12  C           1     -20.311  -4.439  -9.824  0.00  0.00     0.197 C 
HETATM   13  O           1     -19.667  -4.874 -10.803  0.00  0.00    -0.646 OA
HETATM   14  O           1     -19.828  -4.515  -8.674  0.00  0.00    -0.646 OA
ENDBRANCH   5  12
ENDBRANCH   1   5
BRANCH   3  15
HETATM   15  C           1     -22.906  -3.396 -13.633  0.00  0.00     0.297 C 
BRANCH  15  16
HETATM   16  N           1     -24.071  -4.341 -13.564  0.00  0.00    -0.064 N 
HETATM   17  H           1     -24.791  -3.959 -12.912  0.00  0.00     0.275 HD
HETATM   18  H           1     -24.486  -4.451 -14.517  0.00  0.00     0.275 HD
HETATM   19  H           1     -23.743  -5.271 -13.217  0.00  0.00     0.275 HD
ENDBRANCH  15  16
BRANCH  15  20
HETATM   20  C           1     -23.340  -2.106 -14.314  0.00  0.00     0.206 C 
BRANCH  20  21
HETATM   21  O           1     -24.580  -1.700 -13.800  0.00  0.00    -0.398 OA
HETATM   22  H           1     -25.244  -2.105 -14.333  0.00  0.00     0.209 HD
ENDBRANCH  20  21
ENDBRANCH  15  20
ENDBRANCH   3  15
TORSDOF 8
ENDMDL
MODEL 4
REMARK VINA RESULT:      -5.3      1.888      4.552
REMARK  8 active torsions:
REMARK  status: ('A' for Active; 'I' for Inactive)
REMARK    1  A    between atoms: N_2  and  C_11 
REMARK       I    between atoms: N_2  and  C_14 
REMARK       I    between atoms: N_5  and  C_18 
REMARK    2  A    between atoms: C_6  and  C_18 
REMARK    3  A    between atoms: C_6  and  C_11 
REMARK    4  A    between atoms: O_7  and  C_12 
REMARK    5  A    between atoms: N_9  and  C_13 
REMARK    6  A    between atoms: C_11  and  C_20 
REMARK    7  A    between atoms: C_12  and  C_13 
REMARK    8  A    between atoms: C_13  and  C_14 
ROOT
HETATM    1  N           1     -35.323  -1.829 -12.420  0.00  0.00    -0.344 N 
HETATM    2  O           1     -33.516  -2.258 -11.181  0.00  0.00    -0.271 OA
HETATM    3  C           1     -34.336  -2.664 -11.970  0.00  0.00     0.251 C 
HETATM    4  H           1     -36.010  -2.169 -13.081  0.00  0.00     0.163 HD
ENDROOT
BRANCH   1   5
HETATM    5  C           1     -35.383  -0.458 -11.952  0.00  0.00     0.194 C 
BRANCH   5   6
HETATM    6  C           1     -35.451   0.484 -13.147  0.00  0.00     0.138 C 
BRANCH   6   7
HETATM    7  C           1     -35.874  -0.287 -14.373  0.00  0.00     0.217 C 
HETATM    8  O           1     -36.996  -0.726 -14.454  0.00  0.00    -0.274 OA
HETATM    9  N           1     -34.984  -0.489 -15.394  0.00  0.00    -0.370 N 
HETATM   10  H           1     -34.044  -0.121 -15.326  0.00  0.00     0.159 HD
HETATM   11  H           1     -35.267  -1.006 -16.216  0.00  0.00     0.159 HD
ENDBRANCH   6   7
ENDBRANCH   5   6
BRANCH   5  12
HETATM   12  C           1     -36.611  -0.274 -11.095  0.00  0.00     0.197 C 
HETATM   13  O           1     -37.586  -1.045 -11.225  0.00  0.00    -0.646 OA
HETATM   14  O           1     -36.654   0.650 -10.254  0.00  0.00    -0.646 OA
ENDBRANCH   5  12
ENDBRANCH   1   5
BRANCH   3  15
HETATM   15  C           1     -34.273  -4.090 -12.456  0.00  0.00     0.297 C 
BRANCH  15  16
HETATM   16  N           1     -33.864  -4.108 -13.900  0.00  0.00    -0.064 N 
HETATM   17  H           1     -33.793  -3.128 -14.254  0.00  0.00     0.275 HD
HETATM   18  H           1     -32.938  -4.581 -13.994  0.00  0.00     0.275 HD
HETATM   19  H           1     -34.580  -4.628 -14.457  0.00  0.00     0.275 HD
ENDBRANCH  15  16
BRANCH  15  20
HETATM   20  C           1     -33.255  -4.865 -11.632  0.00  0.00     0.206 C 
BRANCH  20  21
HETATM   21  O           1     -32.005  -4.816 -12.266  0.00  0.00    -0.398 OA
HETATM   22  H           1     -31.388  -5.232 -11.688  0.00  0.00     0.209 HD
ENDBRANCH  20  21
ENDBRANCH  15  20
ENDBRANCH   3  15
TORSDOF 8
ENDMDL
MODEL 5
REMARK VINA RESULT:      -5.2     12.774     15.072
REMARK  8 active torsions:
REMARK  status: ('A' for Active; 'I' for Inactive)
REMARK    1  A    between atoms: N_2  and  C_11 
REMARK       I    between atoms: N_2  and  C_14 
REMARK       I    between atoms: N_5  and  C_18 
REMARK    2  A    between atoms: C_6  and  C_18 
REMARK    3  A    between atoms: C_6  and  C_11 
REMARK    4  A    between atoms: O_7  and  C_12 
REMARK    5  A    between atoms: N_9  and  C_13 
REMARK    6  A    between atoms: C_11  and  C_20 
REMARK    7  A    between atoms: C_12  and  C_13 
REMARK    8  A    between atoms: C_13  and  C_14 
ROOT
HETATM    1  N           1     -22.465  -4.600  -8.937  0.00  0.00    -0.344 N 
HETATM    2  O           1     -21.551  -3.379  -7.306  0.00  0.00    -0.271 OA
HETATM    3  C           1     -21.656  -4.456  -7.843  0.00  0.00     0.251 C 
HETATM    4  H           1     -22.553  -5.502  -9.386  0.00  0.00     0.163 HD
ENDROOT
BRANCH   1   5
HETATM    5  C           1     -23.196  -3.459  -9.453  0.00  0.00     0.194 C 
BRANCH   5   6
HETATM    6  C           1     -22.579  -3.015 -10.773  0.00  0.00     0.138 C 
BRANCH   6   7
HETATM    7  C           1     -22.235  -4.228 -11.601  0.00  0.00     0.217 C 
HETATM    8  O           1     -21.115  -4.680 -11.575  0.00  0.00    -0.274 OA
HETATM    9  N           1     -23.193  -4.816 -12.384  0.00  0.00    -0.370 N 
HETATM   10  H           1     -24.131  -4.437 -12.406  0.00  0.00     0.159 HD
HETATM   11  H           1     -22.963  -5.629 -12.939  0.00  0.00     0.159 HD
ENDBRANCH   6   7
ENDBRANCH   5   6
BRANCH   5  12
HETATM   12  C           1     -24.638  -3.846  -9.677  0.00  0.00     0.197 C 
HETATM   13  O           1     -25.515  -2.960  -9.773  0.00  0.00    -0.646 OA
HETATM   14  O           1     -24.955  -5.051  -9.765  0.00  0.00    -0.646 OA
ENDBRANCH   5  12
ENDBRANCH   1   5
BRANCH   3  15
HETATM   15  C           1     -20.895  -5.643  -7.306  0.00  0.00     0.297 C 
BRANCH  15  16
HETATM   16  N           1     -19.453  -5.271  -7.123  0.00  0.00    -0.064 N 
HETATM   17  H           1     -19.012  -5.117  -8.057  0.00  0.00     0.275 HD
HETATM   18  H           1     -19.389  -4.394  -6.558  0.00  0.00     0.275 HD
HETATM   19  H           1     -18.955  -6.044  -6.625  0.00  0.00     0.275 HD
ENDBRANCH  15  16
BRANCH  15  20
HETATM   20  C           1     -21.484  -6.062  -5.966  0.00  0.00     0.206 C 
BRANCH  20  21
HETATM   21  O           1     -22.765  -5.510  -5.825  0.00  0.00    -0.398 OA
HETATM   22  H           1     -23.208  -5.632  -6.648  0.00  0.00     0.209 HD
ENDBRANCH  20  21
ENDBRANCH  15  20
ENDBRANCH   3  15
TORSDOF 8
ENDMDL
MODEL 6
REMARK VINA RESULT:      -5.1     13.177     14.843
REMARK  8 active torsions:
REMARK  status: ('A' for Active; 'I' for Inactive)
REMARK    1  A    between atoms: N_2  and  C_11 
REMARK       I    between atoms: N_2  and  C_14 
REMARK       I    between atoms: N_5  and  C_18 
REMARK    2  A    between atoms: C_6  and  C_18 
REMARK    3  A    between atoms: C_6  and  C_11 
REMARK    4  A    between atoms: O_7  and  C_12 
REMARK    5  A    between atoms: N_9  and  C_13 
REMARK    6  A    between atoms: C_11  and  C_20 
REMARK    7  A    between atoms: C_12  and  C_13 
REMARK    8  A    between atoms: C_13  and  C_14 
ROOT
HETATM    1  N           1     -21.696  -3.833 -10.000  0.00  0.00    -0.344 N 
HETATM    2  O           1     -23.587  -4.835 -10.636  0.00  0.00    -0.271 OA
HETATM    3  C           1     -22.755  -3.987 -10.853  0.00  0.00     0.251 C 
HETATM    4  H           1     -20.999  -3.122 -10.181  0.00  0.00     0.163 HD
ENDROOT
BRANCH   1   5
HETATM    5  C           1     -21.572  -4.689  -8.836  0.00  0.00     0.194 C 
BRANCH   5   6
HETATM    6  C           1     -20.098  -4.947  -8.550  0.00  0.00     0.138 C 
BRANCH   6   7
HETATM    7  C           1     -19.954  -5.598  -7.196  0.00  0.00     0.217 C 
HETATM    8  O           1     -20.216  -6.769  -7.057  0.00  0.00    -0.274 OA
HETATM    9  N           1     -19.527  -4.859  -6.125  0.00  0.00    -0.370 N 
HETATM   10  H           1     -19.308  -3.878  -6.241  0.00  0.00     0.159 HD
HETATM   11  H           1     -19.430  -5.295  -5.217  0.00  0.00     0.159 HD
ENDBRANCH   6   7
ENDBRANCH   5   6
BRANCH   5  12
HETATM   12  C           1     -22.205  -4.011  -7.645  0.00  0.00     0.197 C 
HETATM   13  O           1     -21.678  -2.990  -7.154  0.00  0.00    -0.646 OA
HETATM   14  O           1     -23.255  -4.472  -7.149  0.00  0.00    -0.646 OA
ENDBRANCH   5  12
ENDBRANCH   1   5
BRANCH   3  15
HETATM   15  C           1     -22.884  -3.097 -12.064  0.00  0.00     0.297 C 
BRANCH  15  16
HETATM   16  N           1     -21.841  -3.474 -13.075  0.00  0.00    -0.064 N 
HETATM   17  H           1     -21.478  -4.430 -12.861  0.00  0.00     0.275 HD
HETATM   18  H           1     -22.263  -3.467 -14.030  0.00  0.00     0.275 HD
HETATM   19  H           1     -21.055  -2.786 -13.035  0.00  0.00     0.275 HD
ENDBRANCH  15  16
BRANCH  15  20
HETATM   20  C           1     -24.267  -3.267 -12.676  0.00  0.00     0.206 C 
BRANCH  20  21
HETATM   21  O           1     -24.218  -4.245 -13.679  0.00  0.00    -0.398 OA
HETATM   22  H           1     -25.084  -4.609 -13.750  0.00  0.00     0.209 HD
ENDBRANCH  20  21
ENDBRANCH  15  20
ENDBRANCH   3  15
TORSDOF 8
ENDMDL
MODEL 7
REMARK VINA RESULT:      -4.9     12.527     13.952
REMARK  8 active torsions:
REMARK  status: ('A' for Active; 'I' for Inactive)
REMARK    1  A    between atoms: N_2  and  C_11 
REMARK       I    between atoms: N_2  and  C_14 
REMARK       I    between atoms: N_5  and  C_18 
REMARK    2  A    between atoms: C_6  and  C_18 
REMARK    3  A    between atoms: C_6  and  C_11 
REMARK    4  A    between atoms: O_7  and  C_12 
REMARK    5  A    between atoms: N_9  and  C_13 
REMARK    6  A    between atoms: C_11  and  C_20 
REMARK    7  A    between atoms: C_12  and  C_13 
REMARK    8  A    between atoms: C_13  and  C_14 
ROOT
HETATM    1  N           1     -22.659  -4.267 -11.096  0.00  0.00    -0.344 N 
HETATM    2  O           1     -22.493  -2.101 -11.611  0.00  0.00    -0.271 OA
HETATM    3  C           1     -22.922  -3.192 -11.901  0.00  0.00     0.251 C 
HETATM    4  H           1     -23.018  -5.181 -11.338  0.00  0.00     0.163 HD
ENDROOT
BRANCH   1   5
HETATM    5  C           1     -21.866  -4.096  -9.894  0.00  0.00     0.194 C 
BRANCH   5   6
HETATM    6  C           1     -22.383  -5.029  -8.807  0.00  0.00     0.138 C 
BRANCH   6   7
HETATM    7  C           1     -22.504  -4.271  -7.508  0.00  0.00     0.217 C 
HETATM    8  O           1     -23.344  -4.587  -6.700  0.00  0.00    -0.274 OA
HETATM    9  N           1     -21.661  -3.224  -7.246  0.00  0.00    -0.370 N 
HETATM   10  H           1     -20.957  -2.959  -7.924  0.00  0.00     0.159 HD
HETATM   11  H           1     -21.742  -2.715  -6.376  0.00  0.00     0.159 HD
ENDBRANCH   6   7
ENDBRANCH   5   6
BRANCH   5  12
HETATM   12  C           1     -20.423  -4.422 -10.194  0.00  0.00     0.197 C 
HETATM   13  O           1     -19.671  -4.826  -9.280  0.00  0.00    -0.646 OA
HETATM   14  O           1     -19.980  -4.288 -11.354  0.00  0.00    -0.646 OA
ENDBRANCH   5  12
ENDBRANCH   1   5
BRANCH   3  15
HETATM   15  C           1     -23.747  -3.370 -13.152  0.00  0.00     0.297 C 
BRANCH  15  16
HETATM   16  N           1     -25.188  -3.085 -12.844  0.00  0.00    -0.064 N 
HETATM   17  H           1     -25.525  -3.747 -12.111  0.00  0.00     0.275 HD
HETATM   18  H           1     -25.282  -2.103 -12.498  0.00  0.00     0.275 HD
HETATM   19  H           1     -25.758  -3.204 -13.712  0.00  0.00     0.275 HD
ENDBRANCH  15  16
BRANCH  15  20
HETATM   20  C           1     -23.258  -2.409 -14.226  0.00  0.00     0.206 C 
BRANCH  20  21
HETATM   21  O           1     -22.412  -3.089 -15.112  0.00  0.00    -0.398 OA
HETATM   22  H           1     -22.755  -3.962 -15.203  0.00  0.00     0.209 HD
ENDBRANCH  20  21
ENDBRANCH  15  20
ENDBRANCH   3  15
TORSDOF 8
ENDMDL
MODEL 8
REMARK VINA RESULT:      -4.9     13.091     15.191
REMARK  8 active torsions:
REMARK  status: ('A' for Active; 'I' for Inactive)
REMARK    1  A    between atoms: N_2  and  C_11 
REMARK       I    between atoms: N_2  and  C_14 
REMARK       I    between atoms: N_5  and  C_18 
REMARK    2  A    between atoms: C_6  and  C_18 
REMARK    3  A    between atoms: C_6  and  C_11 
REMARK    4  A    between atoms: O_7  and  C_12 
REMARK    5  A    between atoms: N_9  and  C_13 
REMARK    6  A    between atoms: C_11  and  C_20 
REMARK    7  A    between atoms: C_12  and  C_13 
REMARK    8  A    between atoms: C_13  and  C_14 
ROOT
HETATM    1  N           1     -21.405  -4.416  -8.821  0.00  0.00    -0.344 N 
HETATM    2  O           1     -23.211  -4.572  -7.517  0.00  0.00    -0.271 OA
HETATM    3  C           1     -22.006  -4.535  -7.597  0.00  0.00     0.251 C 
HETATM    4  H           1     -20.396  -4.385  -8.888  0.00  0.00     0.163 HD
ENDROOT
BRANCH   1   5
HETATM    5  C           1     -22.214  -4.332 -10.021  0.00  0.00     0.194 C 
BRANCH   5   6
HETATM    6  C           1     -23.104  -3.098  -9.948  0.00  0.00     0.138 C 
BRANCH   6   7
HETATM    7  C           1     -24.501  -3.458 -10.391  0.00  0.00     0.217 C 
HETATM    8  O           1     -24.905  -3.097 -11.470  0.00  0.00    -0.274 OA
HETATM    9  N           1     -25.311  -4.194  -9.567  0.00  0.00    -0.370 N 
HETATM   10  H           1     -24.972  -4.496  -8.662  0.00  0.00     0.159 HD
HETATM   11  H           1     -26.247  -4.436  -9.863  0.00  0.00     0.159 HD
ENDBRANCH   6   7
ENDBRANCH   5   6
BRANCH   5  12
HETATM   12  C           1     -21.313  -4.232 -11.228  0.00  0.00     0.197 C 
HETATM   13  O           1     -20.081  -4.397 -11.103  0.00  0.00    -0.646 OA
HETATM   14  O           1     -21.800  -3.984 -12.352  0.00  0.00    -0.646 OA
ENDBRANCH   5  12
ENDBRANCH   1   5
BRANCH   3  15
HETATM   15  C           1     -21.165  -4.623  -6.348  0.00  0.00     0.297 C 
BRANCH  15  16
HETATM   16  N           1     -21.771  -5.621  -5.406  0.00  0.00    -0.064 N 
HETATM   17  H           1     -21.237  -6.517  -5.457  0.00  0.00     0.275 HD
HETATM   18  H           1     -21.733  -5.248  -4.431  0.00  0.00     0.275 HD
HETATM   19  H           1     -22.766  -5.793  -5.675  0.00  0.00     0.275 HD
ENDBRANCH  15  16
BRANCH  15  20
HETATM   20  C           1     -19.754  -5.062  -6.714  0.00  0.00     0.206 C 
BRANCH  20  21
HETATM   21  O           1     -19.770  -6.409  -7.102  0.00  0.00    -0.398 OA
HETATM   22  H           1     -19.277  -6.887  -6.456  0.00  0.00     0.209 HD
ENDBRANCH  20  21
ENDBRANCH  15  20
ENDBRANCH   3  15
TORSDOF 8
ENDMDL
MODEL 9
REMARK VINA RESULT:      -4.9     13.447     15.129
REMARK  8 active torsions:
REMARK  status: ('A' for Active; 'I' for Inactive)
REMARK    1  A    between atoms: N_2  and  C_11 
REMARK       I    between atoms: N_2  and  C_14 
REMARK       I    between atoms: N_5  and  C_18 
REMARK    2  A    between atoms: C_6  and  C_18 
REMARK    3  A    between atoms: C_6  and  C_11 
REMARK    4  A    between atoms: O_7  and  C_12 
REMARK    5  A    between atoms: N_9  and  C_13 
REMARK    6  A    between atoms: C_11  and  C_20 
REMARK    7  A    between atoms: C_12  and  C_13 
REMARK    8  A    between atoms: C_13  and  C_14 
ROOT
HETATM    1  N           1     -22.225  -5.276  -8.553  0.00  0.00    -0.344 N 
HETATM    2  O           1     -22.988  -3.178  -8.553  0.00  0.00    -0.271 OA
HETATM    3  C           1     -23.097  -4.307  -8.969  0.00  0.00     0.251 C 
HETATM    4  H           1     -22.317  -6.222  -8.901  0.00  0.00     0.163 HD
ENDROOT
BRANCH   1   5
HETATM    5  C           1     -21.170  -4.949  -7.614  0.00  0.00     0.194 C 
BRANCH   5   6
HETATM    6  C           1     -20.938  -6.129  -6.679  0.00  0.00     0.138 C 
BRANCH   6   7
HETATM    7  C           1     -21.775  -5.958  -5.436  0.00  0.00     0.217 C 
HETATM    8  O           1     -22.967  -5.784  -5.528  0.00  0.00    -0.274 OA
HETATM    9  N           1     -21.183  -6.001  -4.201  0.00  0.00    -0.370 N 
HETATM   10  H           1     -20.184  -6.147  -4.124  0.00  0.00     0.159 HD
HETATM   11  H           1     -21.744  -5.886  -3.367  0.00  0.00     0.159 HD
ENDBRANCH   6   7
ENDBRANCH   5   6
BRANCH   5  12
HETATM   12  C           1     -19.899  -4.649  -8.371  0.00  0.00     0.197 C 
HETATM   13  O           1     -19.865  -4.783  -9.613  0.00  0.00    -0.646 OA
HETATM   14  O           1     -18.881  -4.267  -7.756  0.00  0.00    -0.646 OA
ENDBRANCH   5  12
ENDBRANCH   1   5
BRANCH   3  15
HETATM   15  C           1     -24.195  -4.647  -9.946  0.00  0.00     0.297 C 
BRANCH  15  16
HETATM   16  N           1     -25.281  -3.616  -9.856  0.00  0.00    -0.064 N 
HETATM   17  H           1     -25.266  -3.018 -10.712  0.00  0.00     0.275 HD
HETATM   18  H           1     -26.208  -4.092  -9.779  0.00  0.00     0.275 HD
HETATM   19  H           1     -25.125  -3.020  -9.011  0.00  0.00     0.275 HD
ENDBRANCH  15  16
BRANCH  15  20
HETATM   20  C           1     -23.631  -4.666 -11.359  0.00  0.00     0.206 C 
BRANCH  20  21
HETATM   21  O           1     -22.277  -4.301 -11.328  0.00  0.00    -0.398 OA
HETATM   22  H           1     -22.135  -3.844 -10.516  0.00  0.00     0.209 HD
ENDBRANCH  20  21
ENDBRANCH  15  20
ENDBRANCH   3  15
TORSDOF 8
ENDMDL
