MODEL 1
REMARK VINA RESULT:      -6.7      0.000      0.000
REMARK  12 active torsions:
REMARK  status: ('A' for Active; 'I' for Inactive)
REMARK    1  A    between atoms: N_1  and  C_15 
REMARK    2  A    between atoms: C_2  and  C_14 
REMARK    3  A    between atoms: C_2  and  C_3 
REMARK    4  A    between atoms: C_2  and  N_8 
REMARK    5  A    between atoms: C_3  and  C_4 
REMARK    6  A    between atoms: C_4  and  C_5 
REMARK       I    between atoms: C_5  and  N_6 
REMARK    7  A    between atoms: N_10  and  C_22 
REMARK       I    between atoms: N_10  and  C_14 
REMARK    8  A    between atoms: C_15  and  C_16 
REMARK    9  A    between atoms: C_16  and  C_28 
REMARK   10  A    between atoms: C_17  and  C_22 
REMARK   11  A    between atoms: C_18  and  C_28 
REMARK   12  A    between atoms: C_18  and  C_22 
ROOT
HETATM    1  N           1     -35.202  -2.106 -12.322  0.00  0.00    -0.345 N 
HETATM    2  C           1     -34.060  -2.772 -11.966  0.00  0.00     0.249 C 
HETATM    3  H           1     -35.864  -2.539 -12.954  0.00  0.00     0.163 HD
HETATM    4  O           1     -33.271  -2.255 -11.212  0.00  0.00    -0.271 OA
ENDROOT
BRANCH   1   5
HETATM    5  C           1     -35.464  -0.781 -11.795  0.00  0.00     0.185 C 
BRANCH   5   6
HETATM    6  C           1     -36.479  -0.875 -10.683  0.00  0.00     0.196 C 
HETATM    7  O           1     -36.149  -0.596  -9.509  0.00  0.00    -0.646 OA
HETATM    8  O           1     -37.651  -1.233 -10.934  0.00  0.00    -0.646 OA
ENDBRANCH   5   6
BRANCH   5   9
HETATM    9  C           1     -36.007   0.108 -12.907  0.00  0.00     0.036 C 
BRANCH   9  10
HETATM   10  C           1     -34.847   0.698 -13.696  0.00  0.00     0.004 C 
BRANCH  10  11
HETATM   11  C           1     -35.205   0.734 -15.177  0.00  0.00     0.027 C 
BRANCH  11  12
HETATM   12  C           1     -35.922  -0.555 -15.558  0.00  0.00     0.229 C 
BRANCH  12  13
HETATM   13  N           1     -36.245  -0.534 -17.023  0.00  0.00    -0.079 N 
HETATM   14  H           1     -36.952  -1.273 -17.235  0.00  0.00     0.274 HD
HETATM   15  H           1     -36.632   0.403 -17.280  0.00  0.00     0.274 HD
HETATM   16  H           1     -35.375  -0.714 -17.573  0.00  0.00     0.274 HD
ENDBRANCH  12  13
ENDBRANCH  11  12
ENDBRANCH  10  11
ENDBRANCH   9  10
ENDBRANCH   5   9
ENDBRANCH   1   5
BRANCH   2  17
HETATM   17  C           1     -33.787  -4.151 -12.515  0.00  0.00     0.275 C 
BRANCH  17  18
HETATM   18  C           1     -34.759  -5.146 -11.894  0.00  0.00     0.052 C 
BRANCH  18  19
HETATM   19  C           1     -34.293  -5.502 -10.489  0.00  0.00     0.105 C 
BRANCH  19  20
HETATM   20  C           1     -34.640  -6.941 -10.194  0.00  0.00     0.215 C 
HETATM   21  N           1     -34.989  -7.784 -11.215  0.00  0.00    -0.370 N 
HETATM   22  H           1     -35.221  -8.749 -11.017  0.00  0.00     0.159 HD
HETATM   23  H           1     -35.014  -7.442 -12.167  0.00  0.00     0.159 HD
HETATM   24  O           1     -34.609  -7.349  -9.058  0.00  0.00    -0.274 OA
ENDBRANCH  19  20
ENDBRANCH  18  19
ENDBRANCH  17  18
BRANCH  17  25
HETATM   25  N           1     -32.381  -4.551 -12.182  0.00  0.00    -0.066 N 
HETATM   26  H           1     -32.157  -5.458 -12.650  0.00  0.00     0.275 HD
HETATM   27  H           1     -31.721  -3.814 -12.517  0.00  0.00     0.275 HD
HETATM   28  H           1     -32.286  -4.661 -11.147  0.00  0.00     0.275 HD
ENDBRANCH  17  25
ENDBRANCH   2  17
TORSDOF 12
ENDMDL
MODEL 2
REMARK VINA RESULT:      -6.6      2.458      3.771
REMARK  12 active torsions:
REMARK  status: ('A' for Active; 'I' for Inactive)
REMARK    1  A    between atoms: N_1  and  C_15 
REMARK    2  A    between atoms: C_2  and  C_14 
REMARK    3  A    between atoms: C_2  and  C_3 
REMARK    4  A    between atoms: C_2  and  N_8 
REMARK    5  A    between atoms: C_3  and  C_4 
REMARK    6  A    between atoms: C_4  and  C_5 
REMARK       I    between atoms: C_5  and  N_6 
REMARK    7  A    between atoms: N_10  and  C_22 
REMARK       I    between atoms: N_10  and  C_14 
REMARK    8  A    between atoms: C_15  and  C_16 
REMARK    9  A    between atoms: C_16  and  C_28 
REMARK   10  A    between atoms: C_17  and  C_22 
REMARK   11  A    between atoms: C_18  and  C_28 
REMARK   12  A    between atoms: C_18  and  C_22 
ROOT
HETATM    1  N           1     -34.927  -1.200 -12.413  0.00  0.00    -0.345 N 
HETATM    2  C           1     -34.307  -2.418 -12.485  0.00  0.00     0.249 C 
HETATM    3  H           1     -34.709  -0.566 -11.654  0.00  0.00     0.163 HD
HETATM    4  O           1     -34.567  -3.175 -13.390  0.00  0.00    -0.271 OA
ENDROOT
BRANCH   1   5
HETATM    5  C           1     -35.895  -0.817 -13.422  0.00  0.00     0.185 C 
BRANCH   5   6
HETATM    6  C           1     -35.248   0.126 -14.406  0.00  0.00     0.196 C 
HETATM    7  O           1     -34.881  -0.293 -15.525  0.00  0.00    -0.646 OA
HETATM    8  O           1     -35.078   1.327 -14.101  0.00  0.00    -0.646 OA
ENDBRANCH   5   6
BRANCH   5   9
HETATM    9  C           1     -37.076  -0.126 -12.754  0.00  0.00     0.036 C 
BRANCH   9  10
HETATM   10  C           1     -36.773   0.080 -11.275  0.00  0.00     0.004 C 
BRANCH  10  11
HETATM   11  C           1     -38.075   0.066 -10.483  0.00  0.00     0.027 C 
BRANCH  11  12
HETATM   12  C           1     -37.965   1.030  -9.309  0.00  0.00     0.229 C 
BRANCH  12  13
HETATM   13  N           1     -36.521   1.346  -9.054  0.00  0.00    -0.079 N 
HETATM   14  H           1     -36.451   2.111  -8.346  0.00  0.00     0.274 HD
HETATM   15  H           1     -36.037   0.492  -8.693  0.00  0.00     0.274 HD
HETATM   16  H           1     -36.070   1.652  -9.945  0.00  0.00     0.274 HD
ENDBRANCH  12  13
ENDBRANCH  11  12
ENDBRANCH  10  11
ENDBRANCH   9  10
ENDBRANCH   5   9
ENDBRANCH   1   5
BRANCH   2  17
HETATM   17  C           1     -33.300  -2.817 -11.434  0.00  0.00     0.275 C 
BRANCH  17  18
HETATM   18  C           1     -33.035  -4.314 -11.526  0.00  0.00     0.052 C 
BRANCH  18  19
HETATM   19  C           1     -33.917  -5.049 -10.526  0.00  0.00     0.105 C 
BRANCH  19  20
HETATM   20  C           1     -34.577  -6.224 -11.205  0.00  0.00     0.215 C 
HETATM   21  N           1     -34.947  -6.135 -12.520  0.00  0.00    -0.370 N 
HETATM   22  H           1     -35.389  -6.924 -12.975  0.00  0.00     0.159 HD
HETATM   23  H           1     -34.777  -5.282 -13.036  0.00  0.00     0.159 HD
HETATM   24  O           1     -34.778  -7.243 -10.588  0.00  0.00    -0.274 OA
ENDBRANCH  19  20
ENDBRANCH  18  19
ENDBRANCH  17  18
BRANCH  17  25
HETATM   25  N           1     -33.840  -2.488 -10.075  0.00  0.00    -0.066 N 
HETATM   26  H           1     -34.854  -2.738 -10.032  0.00  0.00     0.275 HD
HETATM   27  H           1     -33.318  -3.032  -9.352  0.00  0.00     0.275 HD
HETATM   28  H           1     -33.726  -1.465  -9.892  0.00  0.00     0.275 HD
ENDBRANCH  17  25
ENDBRANCH   2  17
TORSDOF 12
ENDMDL
MODEL 3
REMARK VINA RESULT:      -6.6      3.908      6.390
REMARK  12 active torsions:
REMARK  status: ('A' for Active; 'I' for Inactive)
REMARK    1  A    between atoms: N_1  and  C_15 
REMARK    2  A    between atoms: C_2  and  C_14 
REMARK    3  A    between atoms: C_2  and  C_3 
REMARK    4  A    between atoms: C_2  and  N_8 
REMARK    5  A    between atoms: C_3  and  C_4 
REMARK    6  A    between atoms: C_4  and  C_5 
REMARK       I    between atoms: C_5  and  N_6 
REMARK    7  A    between atoms: N_10  and  C_22 
REMARK       I    between atoms: N_10  and  C_14 
REMARK    8  A    between atoms: C_15  and  C_16 
REMARK    9  A    between atoms: C_16  and  C_28 
REMARK   10  A    between atoms: C_17  and  C_22 
REMARK   11  A    between atoms: C_18  and  C_28 
REMARK   12  A    between atoms: C_18  and  C_22 
ROOT
HETATM    1  N           1     -33.350  -4.016 -14.308  0.00  0.00    -0.345 N 
HETATM    2  C           1     -33.902  -4.535 -15.448  0.00  0.00     0.249 C 
HETATM    3  H           1     -32.428  -3.598 -14.338  0.00  0.00     0.163 HD
HETATM    4  O           1     -35.002  -5.034 -15.412  0.00  0.00    -0.271 OA
ENDROOT
BRANCH   1   5
HETATM    5  C           1     -34.083  -4.067 -13.059  0.00  0.00     0.185 C 
BRANCH   5   6
HETATM    6  C           1     -34.843  -2.778 -12.870  0.00  0.00     0.196 C 
HETATM    7  O           1     -34.813  -1.898 -13.759  0.00  0.00    -0.646 OA
HETATM    8  O           1     -35.503  -2.588 -11.825  0.00  0.00    -0.646 OA
ENDBRANCH   5   6
BRANCH   5   9
HETATM    9  C           1     -33.105  -4.255 -11.905  0.00  0.00     0.036 C 
BRANCH   9  10
HETATM   10  C           1     -33.296  -5.639 -11.300  0.00  0.00     0.004 C 
BRANCH  10  11
HETATM   11  C           1     -34.453  -5.604 -10.308  0.00  0.00     0.027 C 
BRANCH  11  12
HETATM   12  C           1     -34.871  -7.028  -9.965  0.00  0.00     0.229 C 
BRANCH  12  13
HETATM   13  N           1     -33.858  -7.992 -10.507  0.00  0.00    -0.079 N 
HETATM   14  H           1     -33.145  -8.199  -9.772  0.00  0.00     0.274 HD
HETATM   15  H           1     -34.336  -8.878 -10.789  0.00  0.00     0.274 HD
HETATM   16  H           1     -33.388  -7.571 -11.340  0.00  0.00     0.274 HD
ENDBRANCH  12  13
ENDBRANCH  11  12
ENDBRANCH  10  11
ENDBRANCH   9  10
ENDBRANCH   5   9
ENDBRANCH   1   5
BRANCH   2  17
HETATM   17  C           1     -33.139  -4.483 -16.749  0.00  0.00     0.275 C 
BRANCH  17  18
HETATM   18  C           1     -31.684  -4.858 -16.500  0.00  0.00     0.052 C 
BRANCH  18  19
HETATM   19  C           1     -31.337  -6.107 -17.298  0.00  0.00     0.105 C 
BRANCH  19  20
HETATM   20  C           1     -29.980  -6.613 -16.875  0.00  0.00     0.215 C 
HETATM   21  N           1     -29.538  -7.834 -17.312  0.00  0.00    -0.370 N 
HETATM   22  H           1     -28.628  -8.173 -17.028  0.00  0.00     0.159 HD
HETATM   23  H           1     -30.122  -8.395 -17.919  0.00  0.00     0.159 HD
HETATM   24  O           1     -29.283  -5.943 -16.152  0.00  0.00    -0.274 OA
ENDBRANCH  19  20
ENDBRANCH  18  19
ENDBRANCH  17  18
BRANCH  17  25
HETATM   25  N           1     -33.208  -3.095 -17.312  0.00  0.00    -0.066 N 
HETATM   26  H           1     -33.068  -3.131 -18.347  0.00  0.00     0.275 HD
HETATM   27  H           1     -34.143  -2.679 -17.102  0.00  0.00     0.275 HD
HETATM   28  H           1     -32.460  -2.506 -16.881  0.00  0.00     0.275 HD
ENDBRANCH  17  25
ENDBRANCH   2  17
TORSDOF 12
ENDMDL
MODEL 4
REMARK VINA RESULT:      -6.5     12.091     13.572
REMARK  12 active torsions:
REMARK  status: ('A' for Active; 'I' for Inactive)
REMARK    1  A    between atoms: N_1  and  C_15 
REMARK    2  A    between atoms: C_2  and  C_14 
REMARK    3  A    between atoms: C_2  and  C_3 
REMARK    4  A    between atoms: C_2  and  N_8 
REMARK    5  A    between atoms: C_3  and  C_4 
REMARK    6  A    between atoms: C_4  and  C_5 
REMARK       I    between atoms: C_5  and  N_6 
REMARK    7  A    between atoms: N_10  and  C_22 
REMARK       I    between atoms: N_10  and  C_14 
REMARK    8  A    between atoms: C_15  and  C_16 
REMARK    9  A    between atoms: C_16  and  C_28 
REMARK   10  A    between atoms: C_17  and  C_22 
REMARK   11  A    between atoms: C_18  and  C_28 
REMARK   12  A    between atoms: C_18  and  C_22 
ROOT
HETATM    1  N           1     -22.242  -4.902  -9.005  0.00  0.00    -0.345 N 
HETATM    2  C           1     -21.717  -4.707  -7.756  0.00  0.00     0.249 C 
HETATM    3  H           1     -22.249  -5.829  -9.412  0.00  0.00     0.163 HD
HETATM    4  O           1     -21.709  -3.601  -7.271  0.00  0.00    -0.271 OA
ENDROOT
BRANCH   1   5
HETATM    5  C           1     -22.787  -3.781  -9.746  0.00  0.00     0.185 C 
BRANCH   5   6
HETATM    6  C           1     -24.293  -3.826  -9.690  0.00  0.00     0.196 C 
HETATM    7  O           1     -24.895  -4.899  -9.914  0.00  0.00    -0.646 OA
HETATM    8  O           1     -24.940  -2.791  -9.420  0.00  0.00    -0.646 OA
ENDBRANCH   5   6
BRANCH   5   9
HETATM    9  C           1     -22.328  -3.863 -11.197  0.00  0.00     0.036 C 
BRANCH   9  10
HETATM   10  C           1     -22.710  -2.579 -11.922  0.00  0.00     0.004 C 
BRANCH  10  11
HETATM   11  C           1     -23.754  -2.888 -12.988  0.00  0.00     0.027 C 
BRANCH  11  12
HETATM   12  C           1     -23.386  -2.176 -14.283  0.00  0.00     0.229 C 
BRANCH  12  13
HETATM   13  N           1     -22.362  -2.983 -15.024  0.00  0.00    -0.079 N 
HETATM   14  H           1     -22.046  -2.455 -15.869  0.00  0.00     0.274 HD
HETATM   15  H           1     -21.543  -3.163 -14.400  0.00  0.00     0.274 HD
HETATM   16  H           1     -22.782  -3.892 -15.319  0.00  0.00     0.274 HD
ENDBRANCH  12  13
ENDBRANCH  11  12
ENDBRANCH  10  11
ENDBRANCH   9  10
ENDBRANCH   5   9
ENDBRANCH   1   5
BRANCH   2  17
HETATM   17  C           1     -21.151  -5.874  -6.985  0.00  0.00     0.275 C 
BRANCH  17  18
HETATM   18  C           1     -21.123  -5.536  -5.500  0.00  0.00     0.052 C 
BRANCH  18  19
HETATM   19  C           1     -22.176  -6.360  -4.771  0.00  0.00     0.105 C 
BRANCH  19  20
HETATM   20  C           1     -21.750  -6.567  -3.338  0.00  0.00     0.215 C 
HETATM   21  N           1     -22.384  -5.891  -2.331  0.00  0.00    -0.370 N 
HETATM   22  H           1     -22.098  -6.030  -1.370  0.00  0.00     0.159 HD
HETATM   23  H           1     -23.139  -5.253  -2.547  0.00  0.00     0.159 HD
HETATM   24  O           1     -20.849  -7.329  -3.080  0.00  0.00    -0.274 OA
ENDBRANCH  19  20
ENDBRANCH  18  19
ENDBRANCH  17  18
BRANCH  17  25
HETATM   25  N           1     -19.756  -6.155  -7.459  0.00  0.00    -0.066 N 
HETATM   26  H           1     -19.234  -5.256  -7.560  0.00  0.00     0.275 HD
HETATM   27  H           1     -19.268  -6.764  -6.764  0.00  0.00     0.275 HD
HETATM   28  H           1     -19.793  -6.641  -8.383  0.00  0.00     0.275 HD
ENDBRANCH  17  25
ENDBRANCH   2  17
TORSDOF 12
ENDMDL
MODEL 5
REMARK VINA RESULT:      -6.0     13.878     16.745
REMARK  12 active torsions:
REMARK  status: ('A' for Active; 'I' for Inactive)
REMARK    1  A    between atoms: N_1  and  C_15 
REMARK    2  A    between atoms: C_2  and  C_14 
REMARK    3  A    between atoms: C_2  and  C_3 
REMARK    4  A    between atoms: C_2  and  N_8 
REMARK    5  A    between atoms: C_3  and  C_4 
REMARK    6  A    between atoms: C_4  and  C_5 
REMARK       I    between atoms: C_5  and  N_6 
REMARK    7  A    between atoms: N_10  and  C_22 
REMARK       I    between atoms: N_10  and  C_14 
REMARK    8  A    between atoms: C_15  and  C_16 
REMARK    9  A    between atoms: C_16  and  C_28 
REMARK   10  A    between atoms: C_17  and  C_22 
REMARK   11  A    between atoms: C_18  and  C_28 
REMARK   12  A    between atoms: C_18  and  C_22 
ROOT
HETATM    1  N           1     -21.450  -6.091  -6.431  0.00  0.00    -0.345 N 
HETATM    2  C           1     -20.858  -5.054  -7.101  0.00  0.00     0.249 C 
HETATM    3  H           1     -22.252  -6.561  -6.833  0.00  0.00     0.163 HD
HETATM    4  O           1     -19.901  -4.494  -6.621  0.00  0.00    -0.271 OA
ENDROOT
BRANCH   1   5
HETATM    5  C           1     -20.930  -6.516  -5.146  0.00  0.00     0.185 C 
BRANCH   5   6
HETATM    6  C           1     -20.498  -7.959  -5.233  0.00  0.00     0.196 C 
HETATM    7  O           1     -21.124  -8.757  -5.963  0.00  0.00    -0.646 OA
HETATM    8  O           1     -19.513  -8.358  -4.572  0.00  0.00    -0.646 OA
ENDBRANCH   5   6
BRANCH   5   9
HETATM    9  C           1     -22.015  -6.372  -4.087  0.00  0.00     0.036 C 
BRANCH   9  10
HETATM   10  C           1     -21.373  -6.054  -2.743  0.00  0.00     0.004 C 
BRANCH  10  11
HETATM   11  C           1     -22.288  -6.524  -1.619  0.00  0.00     0.027 C 
BRANCH  11  12
HETATM   12  C           1     -21.675  -7.742  -0.941  0.00  0.00     0.229 C 
BRANCH  12  13
HETATM   13  N           1     -20.345  -8.046  -1.564  0.00  0.00    -0.079 N 
HETATM   14  H           1     -20.228  -9.081  -1.649  0.00  0.00     0.274 HD
HETATM   15  H           1     -20.299  -7.611  -2.514  0.00  0.00     0.274 HD
HETATM   16  H           1     -19.583  -7.657  -0.965  0.00  0.00     0.274 HD
ENDBRANCH  12  13
ENDBRANCH  11  12
ENDBRANCH  10  11
ENDBRANCH   9  10
ENDBRANCH   5   9
ENDBRANCH   1   5
BRANCH   2  17
HETATM   17  C           1     -21.400  -4.611  -8.438  0.00  0.00     0.275 C 
BRANCH  17  18
HETATM   18  C           1     -20.271  -4.021  -9.273  0.00  0.00     0.052 C 
BRANCH  18  19
HETATM   19  C           1     -20.351  -4.564 -10.693  0.00  0.00     0.105 C 
BRANCH  19  20
HETATM   20  C           1     -21.482  -3.886 -11.428  0.00  0.00     0.215 C 
HETATM   21  N           1     -22.374  -4.634 -12.149  0.00  0.00    -0.370 N 
HETATM   22  H           1     -23.133  -4.180 -12.642  0.00  0.00     0.159 HD
HETATM   23  H           1     -22.275  -5.640 -12.188  0.00  0.00     0.159 HD
HETATM   24  O           1     -21.600  -2.686 -11.380  0.00  0.00    -0.274 OA
ENDBRANCH  19  20
ENDBRANCH  18  19
ENDBRANCH  17  18
BRANCH  17  25
HETATM   25  N           1     -22.461  -3.573  -8.227  0.00  0.00    -0.066 N 
HETATM   26  H           1     -23.213  -3.963  -7.615  0.00  0.00     0.275 HD
HETATM   27  H           1     -22.041  -2.734  -7.769  0.00  0.00     0.275 HD
HETATM   28  H           1     -22.870  -3.300  -9.149  0.00  0.00     0.275 HD
ENDBRANCH  17  25
ENDBRANCH   2  17
TORSDOF 12
ENDMDL
MODEL 6
REMARK VINA RESULT:      -5.9     12.750     15.629
REMARK  12 active torsions:
REMARK  status: ('A' for Active; 'I' for Inactive)
REMARK    1  A    between atoms: N_1  and  C_15 
REMARK    2  A    between atoms: C_2  and  C_14 
REMARK    3  A    between atoms: C_2  and  C_3 
REMARK    4  A    between atoms: C_2  and  N_8 
REMARK    5  A    between atoms: C_3  and  C_4 
REMARK    6  A    between atoms: C_4  and  C_5 
REMARK       I    between atoms: C_5  and  N_6 
REMARK    7  A    between atoms: N_10  and  C_22 
REMARK       I    between atoms: N_10  and  C_14 
REMARK    8  A    between atoms: C_15  and  C_16 
REMARK    9  A    between atoms: C_16  and  C_28 
REMARK   10  A    between atoms: C_17  and  C_22 
REMARK   11  A    between atoms: C_18  and  C_28 
REMARK   12  A    between atoms: C_18  and  C_22 
ROOT
HETATM    1  N           1     -22.251  -5.437  -7.193  0.00  0.00    -0.345 N 
HETATM    2  C           1     -22.418  -4.278  -7.902  0.00  0.00     0.249 C 
HETATM    3  H           1     -22.731  -6.280  -7.482  0.00  0.00     0.163 HD
HETATM    4  O           1     -21.846  -3.272  -7.558  0.00  0.00    -0.271 OA
ENDROOT
BRANCH   1   5
HETATM    5  C           1     -21.386  -5.456  -6.029  0.00  0.00     0.185 C 
BRANCH   5   6
HETATM    6  C           1     -19.999  -5.880  -6.442  0.00  0.00     0.196 C 
HETATM    7  O           1     -19.707  -7.095  -6.499  0.00  0.00    -0.646 OA
HETATM    8  O           1     -19.140  -5.017  -6.726  0.00  0.00    -0.646 OA
ENDBRANCH   5   6
BRANCH   5   9
HETATM    9  C           1     -21.938  -6.442  -5.007  0.00  0.00     0.036 C 
BRANCH   9  10
HETATM   10  C           1     -21.408  -6.086  -3.624  0.00  0.00     0.004 C 
BRANCH  10  11
HETATM   11  C           1     -21.019  -7.360  -2.885  0.00  0.00     0.027 C 
BRANCH  11  12
HETATM   12  C           1     -21.252  -8.564  -3.789  0.00  0.00     0.229 C 
BRANCH  12  13
HETATM   13  N           1     -19.933  -9.178  -4.154  0.00  0.00    -0.079 N 
HETATM   14  H           1     -19.928  -9.415  -5.172  0.00  0.00     0.274 HD
HETATM   15  H           1     -19.164  -8.499  -3.950  0.00  0.00     0.274 HD
HETATM   16  H           1     -19.787 -10.047  -3.593  0.00  0.00     0.274 HD
ENDBRANCH  12  13
ENDBRANCH  11  12
ENDBRANCH  10  11
ENDBRANCH   9  10
ENDBRANCH   5   9
ENDBRANCH   1   5
BRANCH   2  17
HETATM   17  C           1     -23.318  -4.257  -9.114  0.00  0.00     0.275 C 
BRANCH  17  18
HETATM   18  C           1     -22.526  -3.789 -10.327  0.00  0.00     0.052 C 
BRANCH  18  19
HETATM   19  C           1     -22.999  -4.539 -11.565  0.00  0.00     0.105 C 
BRANCH  19  20
HETATM   20  C           1     -23.773  -3.600 -12.457  0.00  0.00     0.215 C 
HETATM   21  N           1     -23.466  -3.513 -13.789  0.00  0.00    -0.370 N 
HETATM   22  H           1     -23.985  -2.883 -14.388  0.00  0.00     0.159 HD
HETATM   23  H           1     -22.722  -4.079 -14.174  0.00  0.00     0.159 HD
HETATM   24  O           1     -24.662  -2.924 -11.997  0.00  0.00    -0.274 OA
ENDBRANCH  19  20
ENDBRANCH  18  19
ENDBRANCH  17  18
BRANCH  17  25
HETATM   25  N           1     -24.461  -3.317  -8.871  0.00  0.00    -0.066 N 
HETATM   26  H           1     -24.729  -2.854  -9.768  0.00  0.00     0.275 HD
HETATM   27  H           1     -25.278  -3.852  -8.499  0.00  0.00     0.275 HD
HETATM   28  H           1     -24.174  -2.591  -8.176  0.00  0.00     0.275 HD
ENDBRANCH  17  25
ENDBRANCH   2  17
TORSDOF 12
ENDMDL
MODEL 7
REMARK VINA RESULT:      -5.6     11.791     14.291
REMARK  12 active torsions:
REMARK  status: ('A' for Active; 'I' for Inactive)
REMARK    1  A    between atoms: N_1  and  C_15 
REMARK    2  A    between atoms: C_2  and  C_14 
REMARK    3  A    between atoms: C_2  and  C_3 
REMARK    4  A    between atoms: C_2  and  N_8 
REMARK    5  A    between atoms: C_3  and  C_4 
REMARK    6  A    between atoms: C_4  and  C_5 
REMARK       I    between atoms: C_5  and  N_6 
REMARK    7  A    between atoms: N_10  and  C_22 
REMARK       I    between atoms: N_10  and  C_14 
REMARK    8  A    between atoms: C_15  and  C_16 
REMARK    9  A    between atoms: C_16  and  C_28 
REMARK   10  A    between atoms: C_17  and  C_22 
REMARK   11  A    between atoms: C_18  and  C_28 
REMARK   12  A    between atoms: C_18  and  C_22 
ROOT
HETATM    1  N           1     -23.341  -4.094  -8.463  0.00  0.00    -0.345 N 
HETATM    2  C           1     -23.281  -4.392  -9.797  0.00  0.00     0.249 C 
HETATM    3  H           1     -24.082  -3.500  -8.110  0.00  0.00     0.163 HD
HETATM    4  O           1     -22.398  -5.101 -10.218  0.00  0.00    -0.271 OA
ENDROOT
BRANCH   1   5
HETATM    5  C           1     -22.346  -4.628  -7.554  0.00  0.00     0.185 C 
BRANCH   5   6
HETATM    6  C           1     -23.023  -5.106  -6.293  0.00  0.00     0.196 C 
HETATM    7  O           1     -24.244  -4.898  -6.121  0.00  0.00    -0.646 OA
HETATM    8  O           1     -22.362  -5.709  -5.419  0.00  0.00    -0.646 OA
ENDBRANCH   5   6
BRANCH   5   9
HETATM    9  C           1     -21.338  -3.539  -7.210  0.00  0.00     0.036 C 
BRANCH   9  10
HETATM   10  C           1     -20.014  -3.837  -7.902  0.00  0.00     0.004 C 
BRANCH  10  11
HETATM   11  C           1     -19.830  -5.345  -8.018  0.00  0.00     0.027 C 
BRANCH  11  12
HETATM   12  C           1     -19.246  -5.888  -6.720  0.00  0.00     0.229 C 
BRANCH  12  13
HETATM   13  N           1     -19.969  -7.143  -6.333  0.00  0.00    -0.079 N 
HETATM   14  H           1     -19.320  -7.959  -6.414  0.00  0.00     0.274 HD
HETATM   15  H           1     -20.303  -7.062  -5.345  0.00  0.00     0.274 HD
HETATM   16  H           1     -20.787  -7.284  -6.967  0.00  0.00     0.274 HD
ENDBRANCH  12  13
ENDBRANCH  11  12
ENDBRANCH  10  11
ENDBRANCH   9  10
ENDBRANCH   5   9
ENDBRANCH   1   5
BRANCH   2  17
HETATM   17  C           1     -24.317  -3.836 -10.743  0.00  0.00     0.275 C 
BRANCH  17  18
HETATM   18  C           1     -23.700  -2.714 -11.569  0.00  0.00     0.052 C 
BRANCH  18  19
HETATM   19  C           1     -22.968  -3.306 -12.766  0.00  0.00     0.105 C 
BRANCH  19  20
HETATM   20  C           1     -23.434  -2.624 -14.028  0.00  0.00     0.215 C 
HETATM   21  N           1     -23.915  -1.343 -13.976  0.00  0.00    -0.370 N 
HETATM   22  H           1     -24.228  -0.885 -14.824  0.00  0.00     0.159 HD
HETATM   23  H           1     -23.957  -0.854 -13.092  0.00  0.00     0.159 HD
HETATM   24  O           1     -23.383  -3.208 -15.084  0.00  0.00    -0.274 OA
ENDBRANCH  19  20
ENDBRANCH  18  19
ENDBRANCH  17  18
BRANCH  17  25
HETATM   25  N           1     -25.474  -3.298  -9.956  0.00  0.00    -0.066 N 
HETATM   26  H           1     -26.255  -3.053 -10.606  0.00  0.00     0.275 HD
HETATM   27  H           1     -25.801  -4.024  -9.279  0.00  0.00     0.275 HD
HETATM   28  H           1     -25.174  -2.444  -9.435  0.00  0.00     0.275 HD
ENDBRANCH  17  25
ENDBRANCH   2  17
TORSDOF 12
ENDMDL
MODEL 8
REMARK VINA RESULT:      -5.5     14.228     17.189
REMARK  12 active torsions:
REMARK  status: ('A' for Active; 'I' for Inactive)
REMARK    1  A    between atoms: N_1  and  C_15 
REMARK    2  A    between atoms: C_2  and  C_14 
REMARK    3  A    between atoms: C_2  and  C_3 
REMARK    4  A    between atoms: C_2  and  N_8 
REMARK    5  A    between atoms: C_3  and  C_4 
REMARK    6  A    between atoms: C_4  and  C_5 
REMARK       I    between atoms: C_5  and  N_6 
REMARK    7  A    between atoms: N_10  and  C_22 
REMARK       I    between atoms: N_10  and  C_14 
REMARK    8  A    between atoms: C_15  and  C_16 
REMARK    9  A    between atoms: C_16  and  C_28 
REMARK   10  A    between atoms: C_17  and  C_22 
REMARK   11  A    between atoms: C_18  and  C_28 
REMARK   12  A    between atoms: C_18  and  C_22 
ROOT
HETATM    1  N           1     -20.563  -7.373  -4.577  0.00  0.00    -0.345 N 
HETATM    2  C           1     -20.092  -6.752  -5.702  0.00  0.00     0.249 C 
HETATM    3  H           1     -21.178  -6.876  -3.945  0.00  0.00     0.163 HD
HETATM    4  O           1     -19.358  -7.345  -6.456  0.00  0.00    -0.271 OA
ENDROOT
BRANCH   1   5
HETATM    5  C           1     -20.182  -8.742  -4.290  0.00  0.00     0.185 C 
BRANCH   5   6
HETATM    6  C           1     -21.232  -9.680  -4.831  0.00  0.00     0.196 C 
HETATM    7  O           1     -21.120 -10.145  -5.986  0.00  0.00    -0.646 OA
HETATM    8  O           1     -22.216  -9.991  -4.124  0.00  0.00    -0.646 OA
ENDBRANCH   5   6
BRANCH   5   9
HETATM    9  C           1     -20.060  -8.928  -2.783  0.00  0.00     0.036 C 
BRANCH   9  10
HETATM   10  C           1     -20.416  -7.624  -2.081  0.00  0.00     0.004 C 
BRANCH  10  11
HETATM   11  C           1     -21.257  -7.926  -0.846  0.00  0.00     0.027 C 
BRANCH  11  12
HETATM   12  C           1     -22.476  -7.013  -0.825  0.00  0.00     0.229 C 
BRANCH  12  13
HETATM   13  N           1     -22.295  -5.914  -1.831  0.00  0.00    -0.079 N 
HETATM   14  H           1     -23.055  -5.968  -2.547  0.00  0.00     0.274 HD
HETATM   15  H           1     -22.338  -4.989  -1.346  0.00  0.00     0.274 HD
HETATM   16  H           1     -21.367  -6.020  -2.299  0.00  0.00     0.274 HD
ENDBRANCH  12  13
ENDBRANCH  11  12
ENDBRANCH  10  11
ENDBRANCH   9  10
ENDBRANCH   5   9
ENDBRANCH   1   5
BRANCH   2  17
HETATM   17  C           1     -20.489  -5.327  -6.000  0.00  0.00     0.275 C 
BRANCH  17  18
HETATM   18  C           1     -21.842  -5.312  -6.700  0.00  0.00     0.052 C 
BRANCH  18  19
HETATM   19  C           1     -22.016  -3.994  -7.443  0.00  0.00     0.105 C 
BRANCH  19  20
HETATM   20  C           1     -22.928  -4.202  -8.627  0.00  0.00     0.215 C 
HETATM   21  N           1     -24.185  -3.660  -8.626  0.00  0.00    -0.370 N 
HETATM   22  H           1     -24.797  -3.799  -9.421  0.00  0.00     0.159 HD
HETATM   23  H           1     -24.503  -3.120  -7.832  0.00  0.00     0.159 HD
HETATM   24  O           1     -22.548  -4.845  -9.576  0.00  0.00    -0.274 OA
ENDBRANCH  19  20
ENDBRANCH  18  19
ENDBRANCH  17  18
BRANCH  17  25
HETATM   25  N           1     -19.459  -4.698  -6.891  0.00  0.00    -0.066 N 
HETATM   26  H           1     -19.175  -5.380  -7.631  0.00  0.00     0.275 HD
HETATM   27  H           1     -19.862  -3.846  -7.341  0.00  0.00     0.275 HD
HETATM   28  H           1     -18.623  -4.431  -6.324  0.00  0.00     0.275 HD
ENDBRANCH  17  25
ENDBRANCH   2  17
TORSDOF 12
ENDMDL
MODEL 9
REMARK VINA RESULT:      -5.4     12.286     15.151
REMARK  12 active torsions:
REMARK  status: ('A' for Active; 'I' for Inactive)
REMARK    1  A    between atoms: N_1  and  C_15 
REMARK    2  A    between atoms: C_2  and  C_14 
REMARK    3  A    between atoms: C_2  and  C_3 
REMARK    4  A    between atoms: C_2  and  N_8 
REMARK    5  A    between atoms: C_3  and  C_4 
REMARK    6  A    between atoms: C_4  and  C_5 
REMARK       I    between atoms: C_5  and  N_6 
REMARK    7  A    between atoms: N_10  and  C_22 
REMARK       I    between atoms: N_10  and  C_14 
REMARK    8  A    between atoms: C_15  and  C_16 
REMARK    9  A    between atoms: C_16  and  C_28 
REMARK   10  A    between atoms: C_17  and  C_22 
REMARK   11  A    between atoms: C_18  and  C_28 
REMARK   12  A    between atoms: C_18  and  C_22 
ROOT
HETATM    1  N           1     -22.437  -5.059  -8.725  0.00  0.00    -0.345 N 
HETATM    2  C           1     -22.994  -4.027  -9.430  0.00  0.00     0.249 C 
HETATM    3  H           1     -22.775  -6.004  -8.860  0.00  0.00     0.163 HD
HETATM    4  O           1     -22.590  -2.900  -9.269  0.00  0.00    -0.271 OA
ENDROOT
BRANCH   1   5
HETATM    5  C           1     -21.363  -4.801  -7.785  0.00  0.00     0.185 C 
BRANCH   5   6
HETATM    6  C           1     -20.087  -4.529  -8.543  0.00  0.00     0.196 C 
HETATM    7  O           1     -19.861  -5.123  -9.620  0.00  0.00    -0.646 OA
HETATM    8  O           1     -19.255  -3.711  -8.094  0.00  0.00    -0.646 OA
ENDBRANCH   5   6
BRANCH   5   9
HETATM    9  C           1     -21.174  -6.016  -6.887  0.00  0.00     0.036 C 
BRANCH   9  10
HETATM   10  C           1     -20.947  -5.556  -5.453  0.00  0.00     0.004 C 
BRANCH  10  11
HETATM   11  C           1     -21.183  -6.722  -4.501  0.00  0.00     0.027 C 
BRANCH  11  12
HETATM   12  C           1     -21.541  -6.187  -3.120  0.00  0.00     0.229 C 
BRANCH  12  13
HETATM   13  N           1     -21.008  -7.117  -2.070  0.00  0.00    -0.079 N 
HETATM   14  H           1     -20.123  -7.556  -2.410  0.00  0.00     0.274 HD
HETATM   15  H           1     -20.817  -6.579  -1.194  0.00  0.00     0.274 HD
HETATM   16  H           1     -21.714  -7.861  -1.875  0.00  0.00     0.274 HD
ENDBRANCH  12  13
ENDBRANCH  11  12
ENDBRANCH  10  11
ENDBRANCH   9  10
ENDBRANCH   5   9
ENDBRANCH   1   5
BRANCH   2  17
HETATM   17  C           1     -24.111  -4.296 -10.408  0.00  0.00     0.275 C 
BRANCH  17  18
HETATM   18  C           1     -24.083  -3.247 -11.513  0.00  0.00     0.052 C 
BRANCH  18  19
HETATM   19  C           1     -23.180  -3.722 -12.643  0.00  0.00     0.105 C 
BRANCH  19  20
HETATM   20  C           1     -23.279  -2.763 -13.803  0.00  0.00     0.215 C 
HETATM   21  N           1     -24.057  -1.641 -13.698  0.00  0.00    -0.370 N 
HETATM   22  H           1     -24.123  -0.997 -14.477  0.00  0.00     0.159 HD
HETATM   23  H           1     -24.563  -1.454 -12.843  0.00  0.00     0.159 HD
HETATM   24  O           1     -22.674  -2.985 -14.824  0.00  0.00    -0.274 OA
ENDBRANCH  19  20
ENDBRANCH  18  19
ENDBRANCH  17  18
BRANCH  17  25
HETATM   25  N           1     -25.427  -4.233  -9.693  0.00  0.00    -0.066 N 
HETATM   26  H           1     -26.082  -3.614 -10.222  0.00  0.00     0.275 HD
HETATM   27  H           1     -25.833  -5.193  -9.625  0.00  0.00     0.275 HD
HETATM   28  H           1     -25.283  -3.846  -8.732  0.00  0.00     0.275 HD
ENDBRANCH  17  25
ENDBRANCH   2  17
TORSDOF 12
ENDMDL
