MODEL 1
REMARK VINA RESULT:      -7.2      0.000      0.000
REMARK  8 active torsions:
REMARK  status: ('A' for Active; 'I' for Inactive)
REMARK    1  A    between atoms: N_1  and  C_17 
REMARK       I    between atoms: N_2  and  C_15 
REMARK       I    between atoms: N_3  and  C_15 
REMARK    2  A    between atoms: N_3  and  C_19 
REMARK    3  A    between atoms: C_8  and  C_19 
REMARK    4  A    between atoms: C_8  and  C_9 
REMARK    5  A    between atoms: C_9  and  C_16 
REMARK    6  A    between atoms: C_16  and  C_25 
REMARK    7  A    between atoms: C_16  and  N_22 
REMARK    8  A    between atoms: C_17  and  C_20 
REMARK       I    between atoms: C_20  and  N_22 
ROOT
HETATM    1  C           1     -22.911  -3.296 -12.317  0.00  0.00     0.185 C 
ENDROOT
BRANCH   1   2
HETATM    2  C           1     -21.728  -2.859 -11.464  0.00  0.00     0.038 C 
BRANCH   2   3
HETATM    3  C           1     -20.860  -4.068 -11.138  0.00  0.00     0.023 C 
BRANCH   3   4
HETATM    4  C           1     -20.704  -4.189  -9.628  0.00  0.00     0.138 C 
BRANCH   4   5
HETATM    5  N           1     -21.998  -4.540  -9.026  0.00  0.00    -0.227 N 
HETATM    6  C           1     -22.339  -4.036  -7.917  0.00  0.00     0.665 C 
HETATM    7  N           1     -21.564  -3.228  -7.325  0.00  0.00    -0.235 N 
HETATM    8  N           1     -23.484  -4.347  -7.385  0.00  0.00    -0.235 N 
HETATM    9  H           1     -20.640  -2.977  -7.755  0.00  0.00     0.174 HD
HETATM   10  H           1     -21.847  -2.809  -6.404  0.00  0.00     0.174 HD
HETATM   11  H           1     -24.122  -5.013  -7.874  0.00  0.00     0.174 HD
HETATM   12  H           1     -23.764  -3.930  -6.469  0.00  0.00     0.174 HD
HETATM   13  H           1     -22.641  -5.211  -9.518  0.00  0.00     0.177 HD
ENDBRANCH   4   5
ENDBRANCH   3   4
ENDBRANCH   2   3
ENDBRANCH   1   2
BRANCH   1  14
HETATM   14  C           1     -23.961  -3.930 -11.437  0.00  0.00     0.196 C 
HETATM   15  O           1     -23.890  -5.147 -11.158  0.00  0.00    -0.646 OA
HETATM   16  O           1     -24.899  -3.239 -10.987  0.00  0.00    -0.646 OA
ENDBRANCH   1  14
BRANCH   1  17
HETATM   17  N           1     -23.476  -2.141 -12.987  0.00  0.00    -0.345 N 
HETATM   18  H           1     -23.874  -1.386 -12.444  0.00  0.00     0.163 HD
HETATM   19  C           1     -23.469  -2.073 -14.354  0.00  0.00     0.243 C 
HETATM   20  O           1     -22.994  -2.974 -15.002  0.00  0.00    -0.272 OA
BRANCH  19  21
HETATM   21  C           1     -24.058  -0.870 -15.052  0.00  0.00     0.332 C 
BRANCH  21  22
HETATM   22  N           1     -23.082  -0.353 -16.067  0.00  0.00    -0.071 N 
HETATM   23  H           1     -23.470  -0.492 -17.026  0.00  0.00     0.274 HD
HETATM   24  H           1     -22.915   0.665 -15.902  0.00  0.00     0.274 HD
HETATM   25  H           1     -22.180  -0.873 -15.978  0.00  0.00     0.274 HD
ENDBRANCH  21  22
ENDBRANCH  19  21
ENDBRANCH   1  17
TORSDOF 8
ENDMDL
MODEL 2
REMARK VINA RESULT:      -6.9      1.960      6.362
REMARK  8 active torsions:
REMARK  status: ('A' for Active; 'I' for Inactive)
REMARK    1  A    between atoms: N_1  and  C_17 
REMARK       I    between atoms: N_2  and  C_15 
REMARK       I    between atoms: N_3  and  C_15 
REMARK    2  A    between atoms: N_3  and  C_19 
REMARK    3  A    between atoms: C_8  and  C_19 
REMARK    4  A    between atoms: C_8  and  C_9 
REMARK    5  A    between atoms: C_9  and  C_16 
REMARK    6  A    between atoms: C_16  and  C_25 
REMARK    7  A    between atoms: C_16  and  N_22 
REMARK    8  A    between atoms: C_17  and  C_20 
REMARK       I    between atoms: C_20  and  N_22 
ROOT
HETATM    1  C           1     -22.771  -3.750  -9.599  0.00  0.00     0.185 C 
ENDROOT
BRANCH   1   2
HETATM    2  C           1     -22.162  -3.952 -10.980  0.00  0.00     0.038 C 
BRANCH   2   3
HETATM    3  C           1     -22.314  -2.674 -11.795  0.00  0.00     0.023 C 
BRANCH   3   4
HETATM    4  C           1     -22.986  -2.996 -13.123  0.00  0.00     0.138 C 
BRANCH   4   5
HETATM    5  N           1     -23.850  -1.875 -13.521  0.00  0.00    -0.227 N 
HETATM    6  C           1     -23.718  -1.350 -14.665  0.00  0.00     0.665 C 
HETATM    7  N           1     -22.843  -1.791 -15.467  0.00  0.00    -0.235 N 
HETATM    8  N           1     -24.482  -0.359 -15.018  0.00  0.00    -0.235 N 
HETATM    9  H           1     -22.227  -2.592 -15.182  0.00  0.00     0.174 HD
HETATM   10  H           1     -22.734  -1.356 -16.417  0.00  0.00     0.174 HD
HETATM   11  H           1     -25.204   0.004 -14.356  0.00  0.00     0.174 HD
HETATM   12  H           1     -24.373   0.074 -15.962  0.00  0.00     0.174 HD
HETATM   13  H           1     -24.576  -1.510 -12.856  0.00  0.00     0.177 HD
ENDBRANCH   4   5
ENDBRANCH   3   4
ENDBRANCH   2   3
ENDBRANCH   1   2
BRANCH   1  14
HETATM   14  C           1     -24.276  -3.796  -9.700  0.00  0.00     0.196 C 
HETATM   15  O           1     -24.946  -2.754  -9.527  0.00  0.00    -0.646 OA
HETATM   16  O           1     -24.853  -4.875  -9.956  0.00  0.00    -0.646 OA
ENDBRANCH   1  14
BRANCH   1  17
HETATM   17  N           1     -22.314  -4.802  -8.712  0.00  0.00    -0.345 N 
HETATM   18  H           1     -22.486  -5.772  -8.946  0.00  0.00     0.163 HD
HETATM   19  C           1     -21.649  -4.484  -7.558  0.00  0.00     0.243 C 
HETATM   20  O           1     -21.444  -3.327  -7.279  0.00  0.00    -0.272 OA
BRANCH  19  21
HETATM   21  C           1     -21.174  -5.579  -6.634  0.00  0.00     0.332 C 
BRANCH  21  22
HETATM   22  N           1     -19.973  -6.251  -7.231  0.00  0.00    -0.071 N 
HETATM   23  H           1     -19.696  -5.755  -8.107  0.00  0.00     0.274 HD
HETATM   24  H           1     -19.182  -6.221  -6.549  0.00  0.00     0.274 HD
HETATM   25  H           1     -20.205  -7.245  -7.453  0.00  0.00     0.274 HD
ENDBRANCH  21  22
ENDBRANCH  19  21
ENDBRANCH   1  17
TORSDOF 8
ENDMDL
MODEL 3
REMARK VINA RESULT:      -6.7     11.415     12.359
REMARK  8 active torsions:
REMARK  status: ('A' for Active; 'I' for Inactive)
REMARK    1  A    between atoms: N_1  and  C_17 
REMARK       I    between atoms: N_2  and  C_15 
REMARK       I    between atoms: N_3  and  C_15 
REMARK    2  A    between atoms: N_3  and  C_19 
REMARK    3  A    between atoms: C_8  and  C_19 
REMARK    4  A    between atoms: C_8  and  C_9 
REMARK    5  A    between atoms: C_9  and  C_16 
REMARK    6  A    between atoms: C_16  and  C_25 
REMARK    7  A    between atoms: C_16  and  N_22 
REMARK    8  A    between atoms: C_17  and  C_20 
REMARK       I    between atoms: C_20  and  N_22 
ROOT
HETATM    1  C           1     -34.779  -2.128 -11.662  0.00  0.00     0.185 C 
ENDROOT
BRANCH   1   2
HETATM    2  C           1     -33.548  -2.538 -10.864  0.00  0.00     0.038 C 
BRANCH   2   3
HETATM    3  C           1     -32.896  -3.748 -11.521  0.00  0.00     0.023 C 
BRANCH   3   4
HETATM    4  C           1     -33.939  -4.840 -11.722  0.00  0.00     0.138 C 
BRANCH   4   5
HETATM    5  N           1     -34.147  -5.560 -10.458  0.00  0.00    -0.227 N 
HETATM    6  C           1     -34.667  -6.713 -10.464  0.00  0.00     0.665 C 
HETATM    7  N           1     -35.008  -7.247 -11.560  0.00  0.00    -0.235 N 
HETATM    8  N           1     -34.852  -7.350  -9.346  0.00  0.00    -0.235 N 
HETATM    9  H           1     -34.859  -6.733 -12.463  0.00  0.00     0.174 HD
HETATM   10  H           1     -35.440  -8.205 -11.566  0.00  0.00     0.174 HD
HETATM   11  H           1     -34.570  -6.909  -8.441  0.00  0.00     0.174 HD
HETATM   12  H           1     -35.281  -8.302  -9.352  0.00  0.00     0.174 HD
HETATM   13  H           1     -33.864  -5.116  -9.548  0.00  0.00     0.177 HD
ENDBRANCH   4   5
ENDBRANCH   3   4
ENDBRANCH   2   3
ENDBRANCH   1   2
BRANCH   1  14
HETATM   14  C           1     -36.007  -2.245 -10.792  0.00  0.00     0.196 C 
HETATM   15  O           1     -36.516  -1.220 -10.289  0.00  0.00    -0.646 OA
HETATM   16  O           1     -36.514  -3.366 -10.574  0.00  0.00    -0.646 OA
ENDBRANCH   1  14
BRANCH   1  17
HETATM   17  N           1     -34.631  -0.755 -12.106  0.00  0.00    -0.345 N 
HETATM   18  H           1     -34.306  -0.047 -11.460  0.00  0.00     0.163 HD
HETATM   19  C           1     -34.930  -0.418 -13.399  0.00  0.00     0.243 C 
HETATM   20  O           1     -35.318  -1.264 -14.169  0.00  0.00    -0.272 OA
BRANCH  19  21
HETATM   21  C           1     -34.776   1.011 -13.861  0.00  0.00     0.332 C 
BRANCH  21  22
HETATM   22  N           1     -35.812   1.314 -14.902  0.00  0.00    -0.071 N 
HETATM   23  H           1     -36.030   0.445 -15.439  0.00  0.00     0.274 HD
HETATM   24  H           1     -36.681   1.663 -14.437  0.00  0.00     0.274 HD
HETATM   25  H           1     -35.448   2.044 -15.554  0.00  0.00     0.274 HD
ENDBRANCH  21  22
ENDBRANCH  19  21
ENDBRANCH   1  17
TORSDOF 8
ENDMDL
MODEL 4
REMARK VINA RESULT:      -6.3      2.506      6.551
REMARK  8 active torsions:
REMARK  status: ('A' for Active; 'I' for Inactive)
REMARK    1  A    between atoms: N_1  and  C_17 
REMARK       I    between atoms: N_2  and  C_15 
REMARK       I    between atoms: N_3  and  C_15 
REMARK    2  A    between atoms: N_3  and  C_19 
REMARK    3  A    between atoms: C_8  and  C_19 
REMARK    4  A    between atoms: C_8  and  C_9 
REMARK    5  A    between atoms: C_9  and  C_16 
REMARK    6  A    between atoms: C_16  and  C_25 
REMARK    7  A    between atoms: C_16  and  N_22 
REMARK    8  A    between atoms: C_17  and  C_20 
REMARK       I    between atoms: C_20  and  N_22 
ROOT
HETATM    1  C           1     -21.646  -4.508  -9.331  0.00  0.00     0.185 C 
ENDROOT
BRANCH   1   2
HETATM    2  C           1     -22.908  -3.718  -9.651  0.00  0.00     0.038 C 
BRANCH   2   3
HETATM    3  C           1     -23.941  -4.643 -10.280  0.00  0.00     0.023 C 
BRANCH   3   4
HETATM    4  C           1     -23.733  -4.687 -11.788  0.00  0.00     0.138 C 
BRANCH   4   5
HETATM    5  N           1     -24.204  -3.429 -12.386  0.00  0.00    -0.227 N 
HETATM    6  C           1     -23.472  -2.808 -13.212  0.00  0.00     0.665 C 
HETATM    7  N           1     -22.336  -3.270 -13.523  0.00  0.00    -0.235 N 
HETATM    8  N           1     -23.889  -1.695 -13.740  0.00  0.00    -0.235 N 
HETATM    9  H           1     -22.000  -4.169 -13.096  0.00  0.00     0.174 HD
HETATM   10  H           1     -21.729  -2.755 -14.208  0.00  0.00     0.174 HD
HETATM   11  H           1     -24.826  -1.314 -13.482  0.00  0.00     0.174 HD
HETATM   12  H           1     -23.285  -1.183 -14.421  0.00  0.00     0.174 HD
HETATM   13  H           1     -25.147  -3.045 -12.127  0.00  0.00     0.177 HD
ENDBRANCH   4   5
ENDBRANCH   3   4
ENDBRANCH   2   3
ENDBRANCH   1   2
BRANCH   1  14
HETATM   14  C           1     -20.584  -4.199 -10.359  0.00  0.00     0.196 C 
HETATM   15  O           1     -20.642  -3.138 -11.018  0.00  0.00    -0.646 OA
HETATM   16  O           1     -19.647  -5.004 -10.551  0.00  0.00    -0.646 OA
ENDBRANCH   1  14
BRANCH   1  17
HETATM   17  N           1     -21.166  -4.137  -8.014  0.00  0.00    -0.345 N 
HETATM   18  H           1     -21.112  -3.162  -7.751  0.00  0.00     0.163 HD
HETATM   19  C           1     -20.785  -5.108  -7.127  0.00  0.00     0.243 C 
HETATM   20  O           1     -20.848  -6.273  -7.441  0.00  0.00    -0.272 OA
BRANCH  19  21
HETATM   21  C           1     -20.285  -4.723  -5.755  0.00  0.00     0.332 C 
BRANCH  21  22
HETATM   22  N           1     -20.938  -5.592  -4.722  0.00  0.00    -0.071 N 
HETATM   23  H           1     -21.598  -5.017  -4.151  0.00  0.00     0.274 HD
HETATM   24  H           1     -21.465  -6.360  -5.195  0.00  0.00     0.274 HD
HETATM   25  H           1     -20.206  -6.002  -4.099  0.00  0.00     0.274 HD
ENDBRANCH  21  22
ENDBRANCH  19  21
ENDBRANCH   1  17
TORSDOF 8
ENDMDL
MODEL 5
REMARK VINA RESULT:      -6.3      2.576      5.190
REMARK  8 active torsions:
REMARK  status: ('A' for Active; 'I' for Inactive)
REMARK    1  A    between atoms: N_1  and  C_17 
REMARK       I    between atoms: N_2  and  C_15 
REMARK       I    between atoms: N_3  and  C_15 
REMARK    2  A    between atoms: N_3  and  C_19 
REMARK    3  A    between atoms: C_8  and  C_19 
REMARK    4  A    between atoms: C_8  and  C_9 
REMARK    5  A    between atoms: C_9  and  C_16 
REMARK    6  A    between atoms: C_16  and  C_25 
REMARK    7  A    between atoms: C_16  and  N_22 
REMARK    8  A    between atoms: C_17  and  C_20 
REMARK       I    between atoms: C_20  and  N_22 
ROOT
HETATM    1  C           1     -21.283  -4.931  -8.602  0.00  0.00     0.185 C 
ENDROOT
BRANCH   1   2
HETATM    2  C           1     -20.103  -4.271  -9.304  0.00  0.00     0.038 C 
BRANCH   2   3
HETATM    3  C           1     -20.211  -4.501 -10.805  0.00  0.00     0.023 C 
BRANCH   3   4
HETATM    4  C           1     -20.828  -3.275 -11.464  0.00  0.00     0.138 C 
BRANCH   4   5
HETATM    5  N           1     -21.554  -3.681 -12.677  0.00  0.00    -0.227 N 
HETATM    6  C           1     -22.647  -3.119 -12.979  0.00  0.00     0.665 C 
HETATM    7  N           1     -23.115  -2.207 -12.237  0.00  0.00    -0.235 N 
HETATM    8  N           1     -23.288  -3.479 -14.051  0.00  0.00    -0.235 N 
HETATM    9  H           1     -22.597  -1.917 -11.371  0.00  0.00     0.174 HD
HETATM   10  H           1     -24.022  -1.740 -12.487  0.00  0.00     0.174 HD
HETATM   11  H           1     -22.901  -4.232 -14.663  0.00  0.00     0.174 HD
HETATM   12  H           1     -24.190  -3.015 -14.300  0.00  0.00     0.174 HD
HETATM   13  H           1     -21.164  -4.439 -13.292  0.00  0.00     0.177 HD
ENDBRANCH   4   5
ENDBRANCH   3   4
ENDBRANCH   2   3
ENDBRANCH   1   2
BRANCH   1  14
HETATM   14  C           1     -20.853  -5.413  -7.238  0.00  0.00     0.196 C 
HETATM   15  O           1     -20.373  -6.559  -7.103  0.00  0.00    -0.646 OA
HETATM   16  O           1     -20.977  -4.666  -6.243  0.00  0.00    -0.646 OA
ENDBRANCH   1  14
BRANCH   1  17
HETATM   17  N           1     -22.358  -3.969  -8.458  0.00  0.00    -0.345 N 
HETATM   18  H           1     -22.272  -3.209  -7.795  0.00  0.00     0.163 HD
HETATM   19  C           1     -23.490  -4.088  -9.219  0.00  0.00     0.243 C 
HETATM   20  O           1     -23.593  -4.996 -10.009  0.00  0.00    -0.272 OA
BRANCH  19  21
HETATM   21  C           1     -24.610  -3.087  -9.069  0.00  0.00     0.332 C 
BRANCH  21  22
HETATM   22  N           1     -25.836  -3.599  -9.765  0.00  0.00    -0.071 N 
HETATM   23  H           1     -26.608  -3.713  -9.071  0.00  0.00     0.274 HD
HETATM   24  H           1     -26.127  -2.919 -10.502  0.00  0.00     0.274 HD
HETATM   25  H           1     -25.625  -4.523 -10.205  0.00  0.00     0.274 HD
ENDBRANCH  21  22
ENDBRANCH  19  21
ENDBRANCH   1  17
TORSDOF 8
ENDMDL
MODEL 6
REMARK VINA RESULT:      -6.2     11.676     13.950
REMARK  8 active torsions:
REMARK  status: ('A' for Active; 'I' for Inactive)
REMARK    1  A    between atoms: N_1  and  C_17 
REMARK       I    between atoms: N_2  and  C_15 
REMARK       I    between atoms: N_3  and  C_15 
REMARK    2  A    between atoms: N_3  and  C_19 
REMARK    3  A    between atoms: C_8  and  C_19 
REMARK    4  A    between atoms: C_8  and  C_9 
REMARK    5  A    between atoms: C_9  and  C_16 
REMARK    6  A    between atoms: C_16  and  C_25 
REMARK    7  A    between atoms: C_16  and  N_22 
REMARK    8  A    between atoms: C_17  and  C_20 
REMARK       I    between atoms: C_20  and  N_22 
ROOT
HETATM    1  C           1     -35.289  -1.742 -11.272  0.00  0.00     0.185 C 
ENDROOT
BRANCH   1   2
HETATM    2  C           1     -35.275  -1.218 -12.703  0.00  0.00     0.038 C 
BRANCH   2   3
HETATM    3  C           1     -35.172   0.301 -12.688  0.00  0.00     0.023 C 
BRANCH   3   4
HETATM    4  C           1     -34.692   0.791 -14.048  0.00  0.00     0.138 C 
BRANCH   4   5
HETATM    5  N           1     -35.131  -0.147 -15.091  0.00  0.00    -0.227 N 
HETATM    6  C           1     -35.977   0.221 -15.958  0.00  0.00     0.665 C 
HETATM    7  N           1     -36.445   1.397 -15.926  0.00  0.00    -0.235 N 
HETATM    8  N           1     -36.366  -0.608 -16.881  0.00  0.00    -0.235 N 
HETATM    9  H           1     -36.131   2.067 -15.181  0.00  0.00     0.174 HD
HETATM   10  H           1     -37.147   1.703 -16.645  0.00  0.00     0.174 HD
HETATM   11  H           1     -35.979  -1.579 -16.906  0.00  0.00     0.174 HD
HETATM   12  H           1     -37.064  -0.304 -17.596  0.00  0.00     0.174 HD
HETATM   13  H           1     -34.743  -1.123 -15.117  0.00  0.00     0.177 HD
ENDBRANCH   4   5
ENDBRANCH   3   4
ENDBRANCH   2   3
ENDBRANCH   1   2
BRANCH   1  14
HETATM   14  C           1     -36.441  -1.122 -10.520  0.00  0.00     0.196 C 
HETATM   15  O           1     -37.611  -1.268 -10.937  0.00  0.00    -0.646 OA
HETATM   16  O           1     -36.227  -0.462  -9.480  0.00  0.00    -0.646 OA
ENDBRANCH   1  14
BRANCH   1  17
HETATM   17  N           1     -35.442  -3.183 -11.287  0.00  0.00    -0.345 N 
HETATM   18  H           1     -36.337  -3.595 -11.520  0.00  0.00     0.163 HD
HETATM   19  C           1     -34.375  -3.988 -10.988  0.00  0.00     0.243 C 
HETATM   20  O           1     -33.308  -3.496 -10.710  0.00  0.00    -0.272 OA
BRANCH  19  21
HETATM   21  C           1     -34.534  -5.489 -11.003  0.00  0.00     0.332 C 
BRANCH  21  22
HETATM   22  N           1     -33.204  -6.130 -11.264  0.00  0.00    -0.071 N 
HETATM   23  H           1     -33.266  -6.726 -12.120  0.00  0.00     0.274 HD
HETATM   24  H           1     -32.482  -5.389 -11.407  0.00  0.00     0.274 HD
HETATM   25  H           1     -32.938  -6.724 -10.446  0.00  0.00     0.274 HD
ENDBRANCH  21  22
ENDBRANCH  19  21
ENDBRANCH   1  17
TORSDOF 8
ENDMDL
MODEL 7
REMARK VINA RESULT:      -6.1      2.775      6.818
REMARK  8 active torsions:
REMARK  status: ('A' for Active; 'I' for Inactive)
REMARK    1  A    between atoms: N_1  and  C_17 
REMARK       I    between atoms: N_2  and  C_15 
REMARK       I    between atoms: N_3  and  C_15 
REMARK    2  A    between atoms: N_3  and  C_19 
REMARK    3  A    between atoms: C_8  and  C_19 
REMARK    4  A    between atoms: C_8  and  C_9 
REMARK    5  A    between atoms: C_9  and  C_16 
REMARK    6  A    between atoms: C_16  and  C_25 
REMARK    7  A    between atoms: C_16  and  N_22 
REMARK    8  A    between atoms: C_17  and  C_20 
REMARK       I    between atoms: C_20  and  N_22 
ROOT
HETATM    1  C           1     -21.721  -4.671  -8.534  0.00  0.00     0.185 C 
ENDROOT
BRANCH   1   2
HETATM    2  C           1     -22.845  -3.736  -8.960  0.00  0.00     0.038 C 
BRANCH   2   3
HETATM    3  C           1     -23.961  -4.544  -9.609  0.00  0.00     0.023 C 
BRANCH   3   4
HETATM    4  C           1     -23.631  -4.778 -11.078  0.00  0.00     0.138 C 
BRANCH   4   5
HETATM    5  N           1     -24.059  -3.615 -11.868  0.00  0.00    -0.227 N 
HETATM    6  C           1     -23.247  -3.056 -12.662  0.00  0.00     0.665 C 
HETATM    7  N           1     -22.066  -3.498 -12.774  0.00  0.00    -0.235 N 
HETATM    8  N           1     -23.625  -2.027 -13.361  0.00  0.00    -0.235 N 
HETATM    9  H           1     -21.761  -4.329 -12.209  0.00  0.00     0.174 HD
HETATM   10  H           1     -21.392  -3.034 -13.433  0.00  0.00     0.174 HD
HETATM   11  H           1     -24.599  -1.662 -13.268  0.00  0.00     0.174 HD
HETATM   12  H           1     -22.954  -1.566 -14.016  0.00  0.00     0.174 HD
HETATM   13  H           1     -25.039  -3.248 -11.775  0.00  0.00     0.177 HD
ENDBRANCH   4   5
ENDBRANCH   3   4
ENDBRANCH   2   3
ENDBRANCH   1   2
BRANCH   1  14
HETATM   14  C           1     -20.429  -4.235  -9.182  0.00  0.00     0.196 C 
HETATM   15  O           1     -20.253  -4.413 -10.407  0.00  0.00    -0.646 OA
HETATM   16  O           1     -19.535  -3.697  -8.494  0.00  0.00    -0.646 OA
ENDBRANCH   1  14
BRANCH   1  17
HETATM   17  N           1     -21.577  -4.627  -7.092  0.00  0.00    -0.345 N 
HETATM   18  H           1     -21.746  -3.763  -6.593  0.00  0.00     0.163 HD
HETATM   19  C           1     -21.213  -5.755  -6.406  0.00  0.00     0.243 C 
HETATM   20  O           1     -21.011  -6.786  -7.002  0.00  0.00    -0.272 OA
BRANCH  19  21
HETATM   21  C           1     -21.063  -5.709  -4.904  0.00  0.00     0.332 C 
BRANCH  21  22
HETATM   22  N           1     -22.307  -6.245  -4.260  0.00  0.00    -0.071 N 
HETATM   23  H           1     -22.222  -6.170  -3.222  0.00  0.00     0.274 HD
HETATM   24  H           1     -23.133  -5.691  -4.583  0.00  0.00     0.274 HD
HETATM   25  H           1     -22.433  -7.247  -4.528  0.00  0.00     0.274 HD
ENDBRANCH  21  22
ENDBRANCH  19  21
ENDBRANCH   1  17
TORSDOF 8
ENDMDL
MODEL 8
REMARK VINA RESULT:      -5.8      4.629      8.230
REMARK  8 active torsions:
REMARK  status: ('A' for Active; 'I' for Inactive)
REMARK    1  A    between atoms: N_1  and  C_17 
REMARK       I    between atoms: N_2  and  C_15 
REMARK       I    between atoms: N_3  and  C_15 
REMARK    2  A    between atoms: N_3  and  C_19 
REMARK    3  A    between atoms: C_8  and  C_19 
REMARK    4  A    between atoms: C_8  and  C_9 
REMARK    5  A    between atoms: C_9  and  C_16 
REMARK    6  A    between atoms: C_16  and  C_25 
REMARK    7  A    between atoms: C_16  and  N_22 
REMARK    8  A    between atoms: C_17  and  C_20 
REMARK       I    between atoms: C_20  and  N_22 
ROOT
HETATM    1  C           1     -21.478  -6.011  -6.073  0.00  0.00     0.185 C 
ENDROOT
BRANCH   1   2
HETATM    2  C           1     -22.274  -4.881  -6.713  0.00  0.00     0.038 C 
BRANCH   2   3
HETATM    3  C           1     -22.034  -4.878  -8.217  0.00  0.00     0.023 C 
BRANCH   3   4
HETATM    4  C           1     -22.573  -3.585  -8.815  0.00  0.00     0.138 C 
BRANCH   4   5
HETATM    5  N           1     -24.039  -3.564  -8.700  0.00  0.00    -0.227 N 
HETATM    6  C           1     -24.753  -3.416  -9.734  0.00  0.00     0.665 C 
HETATM    7  N           1     -24.206  -3.286 -10.867  0.00  0.00    -0.235 N 
HETATM    8  N           1     -26.049  -3.397  -9.631  0.00  0.00    -0.235 N 
HETATM    9  H           1     -23.159  -3.301 -10.950  0.00  0.00     0.174 HD
HETATM   10  H           1     -24.798  -3.163 -11.726  0.00  0.00     0.174 HD
HETATM   11  H           1     -26.500  -3.505  -8.695  0.00  0.00     0.174 HD
HETATM   12  H           1     -26.638  -3.275 -10.485  0.00  0.00     0.174 HD
HETATM   13  H           1     -24.493  -3.672  -7.758  0.00  0.00     0.177 HD
ENDBRANCH   4   5
ENDBRANCH   3   4
ENDBRANCH   2   3
ENDBRANCH   1   2
BRANCH   1  14
HETATM   14  C           1     -20.019  -5.864  -6.427  0.00  0.00     0.196 C 
HETATM   15  O           1     -19.416  -4.801  -6.161  0.00  0.00    -0.646 OA
HETATM   16  O           1     -19.413  -6.803  -6.986  0.00  0.00    -0.646 OA
ENDBRANCH   1  14
BRANCH   1  17
HETATM   17  N           1     -21.634  -5.954  -4.633  0.00  0.00    -0.345 N 
HETATM   18  H           1     -21.786  -5.065  -4.174  0.00  0.00     0.163 HD
HETATM   19  C           1     -21.577  -7.105  -3.892  0.00  0.00     0.243 C 
HETATM   20  O           1     -21.395  -8.167  -4.439  0.00  0.00    -0.272 OA
BRANCH  19  21
HETATM   21  C           1     -21.738  -7.047  -2.392  0.00  0.00     0.332 C 
BRANCH  21  22
HETATM   22  N           1     -22.284  -5.706  -2.000  0.00  0.00    -0.071 N 
HETATM   23  H           1     -21.859  -5.409  -1.093  0.00  0.00     0.274 HD
HETATM   24  H           1     -22.052  -5.005  -2.740  0.00  0.00     0.274 HD
HETATM   25  H           1     -23.321  -5.770  -1.894  0.00  0.00     0.274 HD
ENDBRANCH  21  22
ENDBRANCH  19  21
ENDBRANCH   1  17
TORSDOF 8
ENDMDL
MODEL 9
REMARK VINA RESULT:      -5.6      5.064      8.427
REMARK  8 active torsions:
REMARK  status: ('A' for Active; 'I' for Inactive)
REMARK    1  A    between atoms: N_1  and  C_17 
REMARK       I    between atoms: N_2  and  C_15 
REMARK       I    between atoms: N_3  and  C_15 
REMARK    2  A    between atoms: N_3  and  C_19 
REMARK    3  A    between atoms: C_8  and  C_19 
REMARK    4  A    between atoms: C_8  and  C_9 
REMARK    5  A    between atoms: C_9  and  C_16 
REMARK    6  A    between atoms: C_16  and  C_25 
REMARK    7  A    between atoms: C_16  and  N_22 
REMARK    8  A    between atoms: C_17  and  C_20 
REMARK       I    between atoms: C_20  and  N_22 
ROOT
HETATM    1  C           1     -20.559  -6.799  -5.390  0.00  0.00     0.185 C 
ENDROOT
BRANCH   1   2
HETATM    2  C           1     -20.361  -6.082  -6.719  0.00  0.00     0.038 C 
BRANCH   2   3
HETATM    3  C           1     -19.985  -4.629  -6.462  0.00  0.00     0.023 C 
BRANCH   3   4
HETATM    4  C           1     -20.621  -3.744  -7.526  0.00  0.00     0.138 C 
BRANCH   4   5
HETATM    5  N           1     -22.085  -3.790  -7.393  0.00  0.00    -0.227 N 
HETATM    6  C           1     -22.809  -3.950  -8.418  0.00  0.00     0.665 C 
HETATM    7  N           1     -22.273  -4.070  -9.559  0.00  0.00    -0.235 N 
HETATM    8  N           1     -24.103  -3.990  -8.300  0.00  0.00    -0.235 N 
HETATM    9  H           1     -21.228  -4.038  -9.654  0.00  0.00     0.174 HD
HETATM   10  H           1     -22.874  -4.203 -10.410  0.00  0.00     0.174 HD
HETATM   11  H           1     -24.545  -3.891  -7.359  0.00  0.00     0.174 HD
HETATM   12  H           1     -24.701  -4.122  -9.147  0.00  0.00     0.174 HD
HETATM   13  H           1     -22.529  -3.690  -6.446  0.00  0.00     0.177 HD
ENDBRANCH   4   5
ENDBRANCH   3   4
ENDBRANCH   2   3
ENDBRANCH   1   2
BRANCH   1  14
HETATM   14  C           1     -21.776  -6.242  -4.692  0.00  0.00     0.196 C 
HETATM   15  O           1     -21.730  -5.977  -3.471  0.00  0.00    -0.646 OA
HETATM   16  O           1     -22.830  -6.046  -5.335  0.00  0.00    -0.646 OA
ENDBRANCH   1  14
BRANCH   1  17
HETATM   17  N           1     -20.746  -8.217  -5.629  0.00  0.00    -0.345 N 
HETATM   18  H           1     -21.385  -8.528  -6.350  0.00  0.00     0.163 HD
HETATM   19  C           1     -20.058  -9.134  -4.881  0.00  0.00     0.243 C 
HETATM   20  O           1     -19.296  -8.763  -4.021  0.00  0.00    -0.272 OA
BRANCH  19  21
HETATM   21  C           1     -20.253 -10.610  -5.130  0.00  0.00     0.332 C 
BRANCH  21  22
HETATM   22  N           1     -21.086 -10.804  -6.363  0.00  0.00    -0.071 N 
HETATM   23  H           1     -21.879 -11.449  -6.149  0.00  0.00     0.274 HD
HETATM   24  H           1     -21.463  -9.881  -6.677  0.00  0.00     0.274 HD
HETATM   25  H           1     -20.496 -11.217  -7.120  0.00  0.00     0.274 HD
ENDBRANCH  21  22
ENDBRANCH  19  21
ENDBRANCH   1  17
TORSDOF 8
ENDMDL
