MODEL 1
REMARK VINA RESULT:      -6.0      0.000      0.000
REMARK  11 active torsions:
REMARK  status: ('A' for Active; 'I' for Inactive)
REMARK    1  A    between atoms: S_2  and  C_3 
REMARK    2  A    between atoms: C_3  and  C_4 
REMARK    3  A    between atoms: C_4  and  C_5 
REMARK    4  A    between atoms: C_5  and  C_6 
REMARK    5  A    between atoms: C_5  and  N_9 
REMARK       I    between atoms: N_9  and  C_10 
REMARK    6  A    between atoms: C_10  and  C_11 
REMARK    7  A    between atoms: C_11  and  C_12 
REMARK    8  A    between atoms: C_11  and  N_18 
REMARK    9  A    between atoms: C_12  and  O_13 
REMARK   10  A    between atoms: O_13  and  P_14 
REMARK   11  A    between atoms: P_14  and  O_15 
ROOT
HETATM    1  N           1     -35.449  -2.768 -11.779  0.00  0.00    -0.345 N 
HETATM    2  C           1     -35.420  -1.586 -11.090  0.00  0.00     0.251 C 
HETATM    3  O           1     -34.554  -1.383 -10.274  0.00  0.00    -0.271 OA
HETATM    4  H           1     -36.175  -2.938 -12.463  0.00  0.00     0.163 HD
ENDROOT
BRANCH   2   5
HETATM    5  C           1     -36.472  -0.536 -11.352  0.00  0.00     0.298 C 
BRANCH   5   6
HETATM    6  C           1     -36.194   0.141 -12.688  0.00  0.00     0.224 C 
BRANCH   6   7
HETATM    7  O           1     -36.404  -0.774 -13.730  0.00  0.00    -0.287 OA
BRANCH   7   8
HETATM    8  P           1     -35.659  -0.444 -15.124  0.00  0.00     0.406 P 
HETATM    9  O           1     -34.463   0.387 -14.858  0.00  0.00    -0.624 OA
HETATM   10  O           1     -36.583   0.291 -16.015  0.00  0.00    -0.624 OA
BRANCH   8  11
HETATM   11  O           1     -35.208  -1.823 -15.834  0.00  0.00    -0.300 OA
HETATM   12  H           1     -34.659  -2.254 -15.202  0.00  0.00     0.223 HD
ENDBRANCH   8  11
ENDBRANCH   7   8
ENDBRANCH   6   7
ENDBRANCH   5   6
BRANCH   5  13
HETATM   13  N           1     -36.438   0.490 -10.257  0.00  0.00    -0.064 N 
HETATM   14  H           1     -35.593   0.336  -9.661  0.00  0.00     0.275 HD
HETATM   15  H           1     -36.398   1.445 -10.678  0.00  0.00     0.275 HD
HETATM   16  H           1     -37.298   0.402  -9.671  0.00  0.00     0.275 HD
ENDBRANCH   5  13
ENDBRANCH   2   5
BRANCH   1  17
HETATM   17  C           1     -34.439  -3.778 -11.529  0.00  0.00     0.186 C 
BRANCH  17  18
HETATM   18  C           1     -35.116  -5.103 -11.203  0.00  0.00     0.046 C 
BRANCH  18  19
HETATM   19  C           1     -34.134  -6.009 -10.473  0.00  0.00     0.076 C 
BRANCH  19  20
HETATM   20  S           1     -35.035  -7.381  -9.700  0.00  0.00    -0.173 SA
HETATM   21  C           1     -33.796  -8.659 -10.055  0.00  0.00     0.089 C 
ENDBRANCH  19  20
ENDBRANCH  18  19
ENDBRANCH  17  18
BRANCH  17  22
HETATM   22  C           1     -33.577  -3.940 -12.757  0.00  0.00     0.196 C 
HETATM   23  O           1     -34.054  -3.712 -13.890  0.00  0.00    -0.646 OA
HETATM   24  O           1     -32.386  -4.301 -12.641  0.00  0.00    -0.646 OA
ENDBRANCH  17  22
ENDBRANCH   1  17
TORSDOF 11
ENDMDL
MODEL 2
REMARK VINA RESULT:      -5.7      3.313      5.488
REMARK  11 active torsions:
REMARK  status: ('A' for Active; 'I' for Inactive)
REMARK    1  A    between atoms: S_2  and  C_3 
REMARK    2  A    between atoms: C_3  and  C_4 
REMARK    3  A    between atoms: C_4  and  C_5 
REMARK    4  A    between atoms: C_5  and  C_6 
REMARK    5  A    between atoms: C_5  and  N_9 
REMARK       I    between atoms: N_9  and  C_10 
REMARK    6  A    between atoms: C_10  and  C_11 
REMARK    7  A    between atoms: C_11  and  C_12 
REMARK    8  A    between atoms: C_11  and  N_18 
REMARK    9  A    between atoms: C_12  and  O_13 
REMARK   10  A    between atoms: O_13  and  P_14 
REMARK   11  A    between atoms: P_14  and  O_15 
ROOT
HETATM    1  N           1     -35.180  -1.974 -11.964  0.00  0.00    -0.345 N 
HETATM    2  C           1     -34.073  -2.479 -11.338  0.00  0.00     0.251 C 
HETATM    3  O           1     -33.473  -1.805 -10.537  0.00  0.00    -0.271 OA
HETATM    4  H           1     -35.684  -2.539 -12.636  0.00  0.00     0.163 HD
ENDROOT
BRANCH   2   5
HETATM    5  C           1     -33.603  -3.879 -11.650  0.00  0.00     0.298 C 
BRANCH   5   6
HETATM    6  C           1     -34.216  -4.339 -12.967  0.00  0.00     0.224 C 
BRANCH   6   7
HETATM    7  O           1     -33.578  -3.688 -14.033  0.00  0.00    -0.287 OA
BRANCH   7   8
HETATM    8  P           1     -34.129  -4.040 -15.510  0.00  0.00     0.406 P 
HETATM    9  O           1     -32.984  -4.249 -16.425  0.00  0.00    -0.624 OA
HETATM   10  O           1     -34.961  -2.921 -16.006  0.00  0.00    -0.624 OA
BRANCH   8  11
HETATM   11  O           1     -35.019  -5.386 -15.446  0.00  0.00    -0.300 OA
HETATM   12  H           1     -35.470  -5.341 -14.620  0.00  0.00     0.223 HD
ENDBRANCH   8  11
ENDBRANCH   7   8
ENDBRANCH   6   7
ENDBRANCH   5   6
BRANCH   5  13
HETATM   13  N           1     -34.031  -4.806 -10.551  0.00  0.00    -0.064 N 
HETATM   14  H           1     -33.671  -5.768 -10.746  0.00  0.00     0.275 HD
HETATM   15  H           1     -33.643  -4.467  -9.641  0.00  0.00     0.275 HD
HETATM   16  H           1     -35.073  -4.828 -10.500  0.00  0.00     0.275 HD
ENDBRANCH   5  13
ENDBRANCH   2   5
BRANCH   1  17
HETATM   17  C           1     -35.633  -0.629 -11.665  0.00  0.00     0.186 C 
BRANCH  17  18
HETATM   18  C           1     -36.247  -0.011 -12.914  0.00  0.00     0.046 C 
BRANCH  18  19
HETATM   19  C           1     -35.159   0.218 -13.955  0.00  0.00     0.076 C 
BRANCH  19  20
HETATM   20  S           1     -35.920   0.706 -15.529  0.00  0.00    -0.173 SA
HETATM   21  C           1     -37.546  -0.031 -15.201  0.00  0.00     0.089 C 
ENDBRANCH  19  20
ENDBRANCH  18  19
ENDBRANCH  17  18
BRANCH  17  22
HETATM   22  C           1     -36.667  -0.681 -10.567  0.00  0.00     0.196 C 
HETATM   23  O           1     -37.845  -1.004 -10.833  0.00  0.00    -0.646 OA
HETATM   24  O           1     -36.345  -0.402  -9.392  0.00  0.00    -0.646 OA
ENDBRANCH  17  22
ENDBRANCH   1  17
TORSDOF 11
ENDMDL
MODEL 3
REMARK VINA RESULT:      -5.6     12.135     13.562
REMARK  11 active torsions:
REMARK  status: ('A' for Active; 'I' for Inactive)
REMARK    1  A    between atoms: S_2  and  C_3 
REMARK    2  A    between atoms: C_3  and  C_4 
REMARK    3  A    between atoms: C_4  and  C_5 
REMARK    4  A    between atoms: C_5  and  C_6 
REMARK    5  A    between atoms: C_5  and  N_9 
REMARK       I    between atoms: N_9  and  C_10 
REMARK    6  A    between atoms: C_10  and  C_11 
REMARK    7  A    between atoms: C_11  and  C_12 
REMARK    8  A    between atoms: C_11  and  N_18 
REMARK    9  A    between atoms: C_12  and  O_13 
REMARK   10  A    between atoms: O_13  and  P_14 
REMARK   11  A    between atoms: P_14  and  O_15 
ROOT
HETATM    1  N           1     -21.893  -4.921  -8.402  0.00  0.00    -0.345 N 
HETATM    2  C           1     -23.189  -4.496  -8.507  0.00  0.00     0.251 C 
HETATM    3  O           1     -23.799  -4.167  -7.518  0.00  0.00    -0.271 OA
HETATM    4  H           1     -21.382  -5.197  -9.231  0.00  0.00     0.163 HD
ENDROOT
BRANCH   2   5
HETATM    5  C           1     -23.856  -4.437  -9.859  0.00  0.00     0.298 C 
BRANCH   5   6
HETATM    6  C           1     -23.039  -3.551 -10.791  0.00  0.00     0.224 C 
BRANCH   6   7
HETATM    7  O           1     -23.901  -2.726 -11.528  0.00  0.00    -0.287 OA
BRANCH   7   8
HETATM    8  P           1     -23.835  -2.887 -13.133  0.00  0.00     0.406 P 
HETATM    9  O           1     -24.536  -4.128 -13.533  0.00  0.00    -0.624 OA
HETATM   10  O           1     -22.421  -2.958 -13.564  0.00  0.00    -0.624 OA
BRANCH   8  11
HETATM   11  O           1     -24.548  -1.617 -13.833  0.00  0.00    -0.300 OA
HETATM   12  H           1     -24.764  -1.908 -14.702  0.00  0.00     0.223 HD
ENDBRANCH   8  11
ENDBRANCH   7   8
ENDBRANCH   6   7
ENDBRANCH   5   6
BRANCH   5  13
HETATM   13  N           1     -25.236  -3.867  -9.712  0.00  0.00    -0.064 N 
HETATM   14  H           1     -25.232  -2.863 -10.006  0.00  0.00     0.275 HD
HETATM   15  H           1     -25.900  -4.403 -10.314  0.00  0.00     0.275 HD
HETATM   16  H           1     -25.536  -3.936  -8.714  0.00  0.00     0.275 HD
ENDBRANCH   5  13
ENDBRANCH   2   5
BRANCH   1  17
HETATM   17  C           1     -21.251  -4.978  -7.103  0.00  0.00     0.186 C 
BRANCH  17  18
HETATM   18  C           1     -21.317  -6.402  -6.566  0.00  0.00     0.046 C 
BRANCH  18  19
HETATM   19  C           1     -22.094  -6.415  -5.257  0.00  0.00     0.076 C 
BRANCH  19  20
HETATM   20  S           1     -21.122  -7.271  -3.985  0.00  0.00    -0.173 SA
HETATM   21  C           1     -19.922  -8.020  -5.122  0.00  0.00     0.089 C 
ENDBRANCH  19  20
ENDBRANCH  18  19
ENDBRANCH  17  18
BRANCH  17  22
HETATM   22  C           1     -19.807  -4.557  -7.239  0.00  0.00     0.196 C 
HETATM   23  O           1     -19.016  -4.722  -6.285  0.00  0.00    -0.646 OA
HETATM   24  O           1     -19.403  -4.046  -8.305  0.00  0.00    -0.646 OA
ENDBRANCH  17  22
ENDBRANCH   1  17
TORSDOF 11
ENDMDL
MODEL 4
REMARK VINA RESULT:      -5.5     12.850     15.043
REMARK  11 active torsions:
REMARK  status: ('A' for Active; 'I' for Inactive)
REMARK    1  A    between atoms: S_2  and  C_3 
REMARK    2  A    between atoms: C_3  and  C_4 
REMARK    3  A    between atoms: C_4  and  C_5 
REMARK    4  A    between atoms: C_5  and  C_6 
REMARK    5  A    between atoms: C_5  and  N_9 
REMARK       I    between atoms: N_9  and  C_10 
REMARK    6  A    between atoms: C_10  and  C_11 
REMARK    7  A    between atoms: C_11  and  C_12 
REMARK    8  A    between atoms: C_11  and  N_18 
REMARK    9  A    between atoms: C_12  and  O_13 
REMARK   10  A    between atoms: O_13  and  P_14 
REMARK   11  A    between atoms: P_14  and  O_15 
ROOT
HETATM    1  N           1     -21.968  -4.465  -9.476  0.00  0.00    -0.345 N 
HETATM    2  C           1     -21.521  -4.138  -8.225  0.00  0.00     0.251 C 
HETATM    3  O           1     -21.821  -3.076  -7.735  0.00  0.00    -0.271 OA
HETATM    4  H           1     -21.716  -5.355  -9.887  0.00  0.00     0.163 HD
ENDROOT
BRANCH   2   5
HETATM    5  C           1     -20.652  -5.105  -7.458  0.00  0.00     0.298 C 
BRANCH   5   6
HETATM    6  C           1     -20.795  -4.842  -5.964  0.00  0.00     0.224 C 
BRANCH   6   7
HETATM    7  O           1     -20.573  -6.032  -5.256  0.00  0.00    -0.287 OA
BRANCH   7   8
HETATM    8  P           1     -21.812  -6.574  -4.375  0.00  0.00     0.406 P 
HETATM    9  O           1     -23.084  -6.223  -5.046  0.00  0.00    -0.624 OA
HETATM   10  O           1     -21.773  -5.950  -3.033  0.00  0.00    -0.624 OA
BRANCH   8  11
HETATM   11  O           1     -21.707  -8.179  -4.225  0.00  0.00    -0.300 OA
HETATM   12  H           1     -21.614  -8.500  -5.106  0.00  0.00     0.223 HD
ENDBRANCH   8  11
ENDBRANCH   7   8
ENDBRANCH   6   7
ENDBRANCH   5   6
BRANCH   5  13
HETATM   13  N           1     -19.219  -4.917  -7.862  0.00  0.00    -0.064 N 
HETATM   14  H           1     -18.619  -4.869  -7.007  0.00  0.00     0.275 HD
HETATM   15  H           1     -18.917  -5.724  -8.454  0.00  0.00     0.275 HD
HETATM   16  H           1     -19.123  -4.031  -8.405  0.00  0.00     0.275 HD
ENDBRANCH   5  13
ENDBRANCH   2   5
BRANCH   1  17
HETATM   17  C           1     -22.803  -3.537 -10.214  0.00  0.00     0.186 C 
BRANCH  17  18
HETATM   18  C           1     -22.564  -3.717 -11.707  0.00  0.00     0.046 C 
BRANCH  18  19
HETATM   19  C           1     -23.327  -2.646 -12.475  0.00  0.00     0.076 C 
BRANCH  19  20
HETATM   20  S           1     -23.058  -2.871 -14.256  0.00  0.00    -0.173 SA
HETATM   21  C           1     -23.745  -1.270 -14.765  0.00  0.00     0.089 C 
ENDBRANCH  19  20
ENDBRANCH  18  19
ENDBRANCH  17  18
BRANCH  17  22
HETATM   22  C           1     -24.254  -3.809  -9.899  0.00  0.00     0.196 C 
HETATM   23  O           1     -24.704  -4.972  -9.982  0.00  0.00    -0.646 OA
HETATM   24  O           1     -25.005  -2.871  -9.554  0.00  0.00    -0.646 OA
ENDBRANCH  17  22
ENDBRANCH   1  17
TORSDOF 11
ENDMDL
MODEL 5
REMARK VINA RESULT:      -5.4     13.299     14.963
REMARK  11 active torsions:
REMARK  status: ('A' for Active; 'I' for Inactive)
REMARK    1  A    between atoms: S_2  and  C_3 
REMARK    2  A    between atoms: C_3  and  C_4 
REMARK    3  A    between atoms: C_4  and  C_5 
REMARK    4  A    between atoms: C_5  and  C_6 
REMARK    5  A    between atoms: C_5  and  N_9 
REMARK       I    between atoms: N_9  and  C_10 
REMARK    6  A    between atoms: C_10  and  C_11 
REMARK    7  A    between atoms: C_11  and  C_12 
REMARK    8  A    between atoms: C_11  and  N_18 
REMARK    9  A    between atoms: C_12  and  O_13 
REMARK   10  A    between atoms: O_13  and  P_14 
REMARK   11  A    between atoms: P_14  and  O_15 
ROOT
HETATM    1  N           1     -21.454  -5.756  -6.159  0.00  0.00    -0.345 N 
HETATM    2  C           1     -20.640  -4.863  -6.802  0.00  0.00     0.251 C 
HETATM    3  O           1     -19.532  -4.642  -6.378  0.00  0.00    -0.271 OA
HETATM    4  H           1     -22.384  -5.941  -6.514  0.00  0.00     0.163 HD
ENDROOT
BRANCH   2   5
HETATM    5  C           1     -21.129  -4.156  -8.042  0.00  0.00     0.298 C 
BRANCH   5   6
HETATM    6  C           1     -22.600  -4.483  -8.268  0.00  0.00     0.224 C 
BRANCH   6   7
HETATM    7  O           1     -23.241  -3.381  -8.853  0.00  0.00    -0.287 OA
BRANCH   7   8
HETATM    8  P           1     -24.095  -3.685 -10.189  0.00  0.00     0.406 P 
HETATM    9  O           1     -25.496  -3.253  -9.986  0.00  0.00    -0.624 OA
HETATM   10  O           1     -24.061  -5.136 -10.476  0.00  0.00    -0.624 OA
BRANCH   8  11
HETATM   11  O           1     -23.457  -2.875 -11.432  0.00  0.00    -0.300 OA
HETATM   12  H           1     -23.683  -3.381 -12.194  0.00  0.00     0.223 HD
ENDBRANCH   8  11
ENDBRANCH   7   8
ENDBRANCH   6   7
ENDBRANCH   5   6
BRANCH   5  13
HETATM   13  N           1     -20.330  -4.614  -9.226  0.00  0.00    -0.064 N 
HETATM   14  H           1     -20.931  -5.200  -9.848  0.00  0.00     0.275 HD
HETATM   15  H           1     -19.988  -3.781  -9.757  0.00  0.00     0.275 HD
HETATM   16  H           1     -19.514  -5.177  -8.899  0.00  0.00     0.275 HD
ENDBRANCH   5  13
ENDBRANCH   2   5
BRANCH   1  17
HETATM   17  C           1     -20.986  -6.436  -4.967  0.00  0.00     0.186 C 
BRANCH  17  18
HETATM   18  C           1     -22.127  -6.548  -3.965  0.00  0.00     0.046 C 
BRANCH  18  19
HETATM   19  C           1     -21.596  -6.300  -2.560  0.00  0.00     0.076 C 
BRANCH  19  20
HETATM   20  S           1     -21.482  -7.876  -1.668  0.00  0.00    -0.173 SA
HETATM   21  C           1     -22.535  -7.391  -0.271  0.00  0.00     0.089 C 
ENDBRANCH  19  20
ENDBRANCH  18  19
ENDBRANCH  17  18
BRANCH  17  22
HETATM   22  C           1     -20.501  -7.817  -5.335  0.00  0.00     0.196 C 
HETATM   23  O           1     -21.176  -8.530  -6.110  0.00  0.00    -0.646 OA
HETATM   24  O           1     -19.425  -8.248  -4.867  0.00  0.00    -0.646 OA
ENDBRANCH  17  22
ENDBRANCH   1  17
TORSDOF 11
ENDMDL
MODEL 6
REMARK VINA RESULT:      -5.3     15.077     17.352
REMARK  11 active torsions:
REMARK  status: ('A' for Active; 'I' for Inactive)
REMARK    1  A    between atoms: S_2  and  C_3 
REMARK    2  A    between atoms: C_3  and  C_4 
REMARK    3  A    between atoms: C_4  and  C_5 
REMARK    4  A    between atoms: C_5  and  C_6 
REMARK    5  A    between atoms: C_5  and  N_9 
REMARK       I    between atoms: N_9  and  C_10 
REMARK    6  A    between atoms: C_10  and  C_11 
REMARK    7  A    between atoms: C_11  and  C_12 
REMARK    8  A    between atoms: C_11  and  N_18 
REMARK    9  A    between atoms: C_12  and  O_13 
REMARK   10  A    between atoms: O_13  and  P_14 
REMARK   11  A    between atoms: P_14  and  O_15 
ROOT
HETATM    1  N           1     -21.083  -5.475  -5.065  0.00  0.00    -0.345 N 
HETATM    2  C           1     -21.491  -6.561  -4.340  0.00  0.00     0.251 C 
HETATM    3  O           1     -21.973  -7.515  -4.901  0.00  0.00    -0.271 OA
HETATM    4  H           1     -20.679  -4.675  -4.595  0.00  0.00     0.163 HD
ENDROOT
BRANCH   2   5
HETATM    5  C           1     -21.337  -6.566  -2.838  0.00  0.00     0.298 C 
BRANCH   5   6
HETATM    6  C           1     -21.383  -8.000  -2.327  0.00  0.00     0.224 C 
BRANCH   6   7
HETATM    7  O           1     -20.879  -8.047  -1.019  0.00  0.00    -0.287 OA
BRANCH   7   8
HETATM    8  P           1     -21.923  -8.502   0.126  0.00  0.00     0.406 P 
HETATM    9  O           1     -21.261  -8.440   1.449  0.00  0.00    -0.624 OA
HETATM   10  O           1     -22.372  -9.887  -0.138  0.00  0.00    -0.624 OA
BRANCH   8  11
HETATM   11  O           1     -23.200  -7.511   0.116  0.00  0.00    -0.300 OA
HETATM   12  H           1     -23.687  -7.735   0.891  0.00  0.00     0.223 HD
ENDBRANCH   8  11
ENDBRANCH   7   8
ENDBRANCH   6   7
ENDBRANCH   5   6
BRANCH   5  13
HETATM   13  N           1     -22.455  -5.780  -2.219  0.00  0.00    -0.064 N 
HETATM   14  H           1     -23.168  -5.552  -2.949  0.00  0.00     0.275 HD
HETATM   15  H           1     -22.901  -6.348  -1.463  0.00  0.00     0.275 HD
HETATM   16  H           1     -22.077  -4.896  -1.813  0.00  0.00     0.275 HD
ENDBRANCH   5  13
ENDBRANCH   2   5
BRANCH   1  17
HETATM   17  C           1     -21.230  -5.469  -6.508  0.00  0.00     0.186 C 
BRANCH  17  18
HETATM   18  C           1     -21.767  -4.116  -6.957  0.00  0.00     0.046 C 
BRANCH  18  19
HETATM   19  C           1     -23.096  -4.311  -7.674  0.00  0.00     0.076 C 
BRANCH  19  20
HETATM   20  S           1     -22.860  -4.088  -9.460  0.00  0.00    -0.173 SA
HETATM   21  C           1     -24.513  -3.420  -9.798  0.00  0.00     0.089 C 
ENDBRANCH  19  20
ENDBRANCH  18  19
ENDBRANCH  17  18
BRANCH  17  22
HETATM   22  C           1     -19.887  -5.716  -7.150  0.00  0.00     0.196 C 
HETATM   23  O           1     -19.370  -6.853  -7.099  0.00  0.00    -0.646 OA
HETATM   24  O           1     -19.292  -4.785  -7.734  0.00  0.00    -0.646 OA
ENDBRANCH  17  22
ENDBRANCH   1  17
TORSDOF 11
ENDMDL
MODEL 7
REMARK VINA RESULT:      -4.9     14.289     16.035
REMARK  11 active torsions:
REMARK  status: ('A' for Active; 'I' for Inactive)
REMARK    1  A    between atoms: S_2  and  C_3 
REMARK    2  A    between atoms: C_3  and  C_4 
REMARK    3  A    between atoms: C_4  and  C_5 
REMARK    4  A    between atoms: C_5  and  C_6 
REMARK    5  A    between atoms: C_5  and  N_9 
REMARK       I    between atoms: N_9  and  C_10 
REMARK    6  A    between atoms: C_10  and  C_11 
REMARK    7  A    between atoms: C_11  and  C_12 
REMARK    8  A    between atoms: C_11  and  N_18 
REMARK    9  A    between atoms: C_12  and  O_13 
REMARK   10  A    between atoms: O_13  and  P_14 
REMARK   11  A    between atoms: P_14  and  O_15 
ROOT
HETATM    1  N           1     -20.829  -7.162  -6.091  0.00  0.00    -0.345 N 
HETATM    2  C           1     -20.914  -5.807  -6.262  0.00  0.00     0.251 C 
HETATM    3  O           1     -20.526  -5.062  -5.395  0.00  0.00    -0.271 OA
HETATM    4  H           1     -21.155  -7.786  -6.818  0.00  0.00     0.163 HD
ENDROOT
BRANCH   2   5
HETATM    5  C           1     -21.494  -5.244  -7.537  0.00  0.00     0.298 C 
BRANCH   5   6
HETATM    6  C           1     -20.450  -4.378  -8.232  0.00  0.00     0.224 C 
BRANCH   6   7
HETATM    7  O           1     -21.069  -3.598  -9.219  0.00  0.00    -0.287 OA
BRANCH   7   8
HETATM    8  P           1     -20.766  -4.019 -10.748  0.00  0.00     0.406 P 
HETATM    9  O           1     -21.972  -4.646 -11.334  0.00  0.00    -0.624 OA
HETATM   10  O           1     -19.643  -4.982 -10.780  0.00  0.00    -0.624 OA
BRANCH   8  11
HETATM   11  O           1     -20.373  -2.705 -11.601  0.00  0.00    -0.300 OA
HETATM   12  H           1     -21.121  -2.137 -11.531  0.00  0.00     0.223 HD
ENDBRANCH   8  11
ENDBRANCH   7   8
ENDBRANCH   6   7
ENDBRANCH   5   6
BRANCH   5  13
HETATM   13  N           1     -22.698  -4.409  -7.213  0.00  0.00    -0.064 N 
HETATM   14  H           1     -23.556  -5.004  -7.254  0.00  0.00     0.275 HD
HETATM   15  H           1     -22.596  -4.012  -6.252  0.00  0.00     0.275 HD
HETATM   16  H           1     -22.779  -3.632  -7.905  0.00  0.00     0.275 HD
ENDBRANCH   5  13
ENDBRANCH   2   5
BRANCH   1  17
HETATM   17  C           1     -20.273  -7.704  -4.866  0.00  0.00     0.186 C 
BRANCH  17  18
HETATM   18  C           1     -21.397  -7.977  -3.876  0.00  0.00     0.046 C 
BRANCH  18  19
HETATM   19  C           1     -20.803  -8.402  -2.539  0.00  0.00     0.076 C 
BRANCH  19  20
HETATM   20  S           1     -21.830  -7.758  -1.188  0.00  0.00    -0.173 SA
HETATM   21  C           1     -22.146  -6.135  -1.935  0.00  0.00     0.089 C 
ENDBRANCH  19  20
ENDBRANCH  18  19
ENDBRANCH  17  18
BRANCH  17  22
HETATM   22  C           1     -19.547  -8.991  -5.173  0.00  0.00     0.196 C 
HETATM   23  O           1     -20.147  -9.926  -5.747  0.00  0.00    -0.646 OA
HETATM   24  O           1     -18.345  -9.122  -4.854  0.00  0.00    -0.646 OA
ENDBRANCH  17  22
ENDBRANCH   1  17
TORSDOF 11
ENDMDL
MODEL 8
REMARK VINA RESULT:      -4.9     13.814     15.617
REMARK  11 active torsions:
REMARK  status: ('A' for Active; 'I' for Inactive)
REMARK    1  A    between atoms: S_2  and  C_3 
REMARK    2  A    between atoms: C_3  and  C_4 
REMARK    3  A    between atoms: C_4  and  C_5 
REMARK    4  A    between atoms: C_5  and  C_6 
REMARK    5  A    between atoms: C_5  and  N_9 
REMARK       I    between atoms: N_9  and  C_10 
REMARK    6  A    between atoms: C_10  and  C_11 
REMARK    7  A    between atoms: C_11  and  C_12 
REMARK    8  A    between atoms: C_11  and  N_18 
REMARK    9  A    between atoms: C_12  and  O_13 
REMARK   10  A    between atoms: O_13  and  P_14 
REMARK   11  A    between atoms: P_14  and  O_15 
ROOT
HETATM    1  N           1     -21.048  -6.649  -5.022  0.00  0.00    -0.345 N 
HETATM    2  C           1     -21.724  -5.769  -5.823  0.00  0.00     0.251 C 
HETATM    3  O           1     -22.923  -5.662  -5.726  0.00  0.00    -0.271 OA
HETATM    4  H           1     -20.044  -6.739  -5.102  0.00  0.00     0.163 HD
ENDROOT
BRANCH   2   5
HETATM    5  C           1     -20.969  -4.931  -6.827  0.00  0.00     0.298 C 
BRANCH   5   6
HETATM    6  C           1     -21.958  -4.154  -7.687  0.00  0.00     0.224 C 
BRANCH   6   7
HETATM    7  O           1     -22.048  -4.751  -8.953  0.00  0.00    -0.287 OA
BRANCH   7   8
HETATM    8  P           1     -23.206  -4.183  -9.923  0.00  0.00     0.406 P 
HETATM    9  O           1     -24.209  -3.450  -9.117  0.00  0.00    -0.624 OA
HETATM   10  O           1     -23.862  -5.311 -10.621  0.00  0.00    -0.624 OA
BRANCH   8  11
HETATM   11  O           1     -22.555  -3.182 -11.012  0.00  0.00    -0.300 OA
HETATM   12  H           1     -21.634  -3.379 -11.002  0.00  0.00     0.223 HD
ENDBRANCH   8  11
ENDBRANCH   7   8
ENDBRANCH   6   7
ENDBRANCH   5   6
BRANCH   5  13
HETATM   13  N           1     -20.143  -5.826  -7.702  0.00  0.00    -0.064 N 
HETATM   14  H           1     -20.702  -6.667  -7.969  0.00  0.00     0.275 HD
HETATM   15  H           1     -19.864  -5.306  -8.565  0.00  0.00     0.275 HD
HETATM   16  H           1     -19.287  -6.126  -7.185  0.00  0.00     0.275 HD
ENDBRANCH   5  13
ENDBRANCH   2   5
BRANCH   1  17
HETATM   17  C           1     -21.772  -7.454  -4.057  0.00  0.00     0.186 C 
BRANCH  17  18
HETATM   18  C           1     -21.228  -8.876  -4.073  0.00  0.00     0.046 C 
BRANCH  18  19
HETATM   19  C           1     -20.013  -8.945  -4.989  0.00  0.00     0.076 C 
BRANCH  19  20
HETATM   20  S           1     -18.549  -9.408  -4.021  0.00  0.00    -0.173 SA
HETATM   21  C           1     -17.562 -10.000  -5.424  0.00  0.00     0.089 C 
ENDBRANCH  19  20
ENDBRANCH  18  19
ENDBRANCH  17  18
BRANCH  17  22
HETATM   22  C           1     -21.598  -6.863  -2.679  0.00  0.00     0.196 C 
HETATM   23  O           1     -20.732  -7.325  -1.906  0.00  0.00    -0.646 OA
HETATM   24  O           1     -22.319  -5.910  -2.312  0.00  0.00    -0.646 OA
ENDBRANCH  17  22
ENDBRANCH   1  17
TORSDOF 11
ENDMDL
MODEL 9
REMARK VINA RESULT:      -4.8     12.183     13.663
REMARK  11 active torsions:
REMARK  status: ('A' for Active; 'I' for Inactive)
REMARK    1  A    between atoms: S_2  and  C_3 
REMARK    2  A    between atoms: C_3  and  C_4 
REMARK    3  A    between atoms: C_4  and  C_5 
REMARK    4  A    between atoms: C_5  and  C_6 
REMARK    5  A    between atoms: C_5  and  N_9 
REMARK       I    between atoms: N_9  and  C_10 
REMARK    6  A    between atoms: C_10  and  C_11 
REMARK    7  A    between atoms: C_11  and  C_12 
REMARK    8  A    between atoms: C_11  and  N_18 
REMARK    9  A    between atoms: C_12  and  O_13 
REMARK   10  A    between atoms: O_13  and  P_14 
REMARK   11  A    between atoms: P_14  and  O_15 
ROOT
HETATM    1  N           1     -21.849  -3.814  -9.100  0.00  0.00    -0.345 N 
HETATM    2  C           1     -20.890  -4.097 -10.034  0.00  0.00     0.251 C 
HETATM    3  O           1     -20.039  -4.920  -9.796  0.00  0.00    -0.271 OA
HETATM    4  H           1     -22.562  -3.124  -9.299  0.00  0.00     0.163 HD
ENDROOT
BRANCH   2   5
HETATM    5  C           1     -20.896  -3.379 -11.362  0.00  0.00     0.298 C 
BRANCH   5   6
HETATM    6  C           1     -22.108  -2.459 -11.437  0.00  0.00     0.224 C 
BRANCH   6   7
HETATM    7  O           1     -22.614  -2.457 -12.745  0.00  0.00    -0.287 OA
BRANCH   7   8
HETATM    8  P           1     -24.153  -2.918 -12.910  0.00  0.00     0.406 P 
HETATM    9  O           1     -24.205  -4.205 -13.640  0.00  0.00    -0.624 OA
HETATM   10  O           1     -24.898  -1.889 -13.668  0.00  0.00    -0.624 OA
BRANCH   8  11
HETATM   11  O           1     -24.820  -3.100 -11.450  0.00  0.00    -0.300 OA
HETATM   12  H           1     -25.476  -2.425 -11.397  0.00  0.00     0.223 HD
ENDBRANCH   8  11
ENDBRANCH   7   8
ENDBRANCH   6   7
ENDBRANCH   5   6
BRANCH   5  13
HETATM   13  N           1     -20.964  -4.384 -12.473  0.00  0.00    -0.064 N 
HETATM   14  H           1     -19.998  -4.697 -12.720  0.00  0.00     0.275 HD
HETATM   15  H           1     -21.527  -5.208 -12.162  0.00  0.00     0.275 HD
HETATM   16  H           1     -21.414  -3.950 -13.309  0.00  0.00     0.275 HD
ENDBRANCH   5  13
ENDBRANCH   2   5
BRANCH   1  17
HETATM   17  C           1     -21.844  -4.503  -7.824  0.00  0.00     0.186 C 
BRANCH  17  18
HETATM   18  C           1     -20.977  -3.735  -6.836  0.00  0.00     0.046 C 
BRANCH  18  19
HETATM   19  C           1     -19.832  -4.623  -6.368  0.00  0.00     0.076 C 
BRANCH  19  20
HETATM   20  S           1     -20.283  -6.365  -6.600  0.00  0.00    -0.173 SA
HETATM   21  C           1     -20.744  -6.683  -4.874  0.00  0.00     0.089 C 
ENDBRANCH  19  20
ENDBRANCH  18  19
ENDBRANCH  17  18
BRANCH  17  22
HETATM   22  C           1     -23.256  -4.588  -7.295  0.00  0.00     0.196 C 
HETATM   23  O           1     -23.465  -5.023  -6.142  0.00  0.00    -0.646 OA
HETATM   24  O           1     -24.214  -4.222  -8.010  0.00  0.00    -0.646 OA
ENDBRANCH  17  22
ENDBRANCH   1  17
TORSDOF 11
ENDMDL
