MODEL 1
REMARK VINA RESULT:      -7.5      0.000      0.000
REMARK  8 active torsions:
REMARK  status: ('A' for Active; 'I' for Inactive)
REMARK    1  A    between atoms: C_3  and  C_21 
REMARK    2  A    between atoms: N_4  and  C_22 
REMARK    3  A    between atoms: N_6  and  C_23 
REMARK       I    between atoms: N_6  and  C_19 
REMARK    4  A    between atoms: C_12  and  C_16 
REMARK    5  A    between atoms: C_16  and  C_22 
REMARK    6  A    between atoms: C_19  and  C_22 
REMARK    7  A    between atoms: C_21  and  C_23 
REMARK    8  A    between atoms: C_23  and  C_24 
ROOT
HETATM    1  O           1     -21.713  -3.425  -7.469  0.00  0.00    -0.271 OA
HETATM    2  N           1     -22.362  -4.855  -9.058  0.00  0.00    -0.344 N 
HETATM    3  H           1     -22.401  -5.811  -9.387  0.00  0.00     0.163 HD
HETATM    4  C           1     -21.760  -4.566  -7.861  0.00  0.00     0.249 C 
ENDROOT
BRANCH   4   5
HETATM    5  C           1     -21.156  -5.674  -7.034  0.00  0.00     0.278 C 
BRANCH   5   6
HETATM    6  N           1     -19.836  -6.074  -7.623  0.00  0.00    -0.066 N 
HETATM    7  H           1     -19.370  -6.767  -6.995  0.00  0.00     0.275 HD
HETATM    8  H           1     -19.989  -6.505  -8.563  0.00  0.00     0.275 HD
HETATM    9  H           1     -19.229  -5.230  -7.721  0.00  0.00     0.275 HD
ENDBRANCH   5   6
BRANCH   5  10
HETATM   10  C           1     -20.948  -5.188  -5.606  0.00  0.00     0.081 C 
BRANCH  10  11
HETATM   11  C           1     -21.177  -6.320  -4.654  0.00  0.00    -0.056 A 
HETATM   12  C           1     -21.347  -7.616  -5.141  0.00  0.00     0.007 A 
HETATM   13  C           1     -21.561  -8.672  -4.255  0.00  0.00     0.001 A 
HETATM   14  C           1     -21.604  -8.431  -2.881  0.00  0.00     0.000 A 
HETATM   15  C           1     -21.435  -7.135  -2.395  0.00  0.00     0.001 A 
HETATM   16  C           1     -21.221  -6.079  -3.281  0.00  0.00     0.007 A 
ENDBRANCH  10  11
ENDBRANCH   5  10
ENDBRANCH   4   5
BRANCH   2  17
HETATM   17  C           1     -22.943  -3.790  -9.852  0.00  0.00     0.189 C 
BRANCH  17  18
HETATM   18  C           1     -22.580  -3.993 -11.318  0.00  0.00     0.014 C 
HETATM   19  C           1     -22.935  -2.739 -12.106  0.00  0.00     0.012 C 
BRANCH  18  20
HETATM   20  C           1     -21.086  -4.264 -11.440  0.00  0.00     0.002 C 
HETATM   21  C           1     -20.313  -2.984 -11.152  0.00  0.00     0.005 C 
ENDBRANCH  18  20
ENDBRANCH  17  18
BRANCH  17  22
HETATM   22  C           1     -24.443  -3.810  -9.699  0.00  0.00     0.197 C 
HETATM   23  O           1     -25.069  -4.885  -9.819  0.00  0.00    -0.646 OA
HETATM   24  O           1     -25.061  -2.752  -9.452  0.00  0.00    -0.646 OA
ENDBRANCH  17  22
ENDBRANCH   2  17
TORSDOF 8
ENDMDL
MODEL 2
REMARK VINA RESULT:      -7.3      2.562      7.475
REMARK  8 active torsions:
REMARK  status: ('A' for Active; 'I' for Inactive)
REMARK    1  A    between atoms: C_3  and  C_21 
REMARK    2  A    between atoms: N_4  and  C_22 
REMARK    3  A    between atoms: N_6  and  C_23 
REMARK       I    between atoms: N_6  and  C_19 
REMARK    4  A    between atoms: C_12  and  C_16 
REMARK    5  A    between atoms: C_16  and  C_22 
REMARK    6  A    between atoms: C_19  and  C_22 
REMARK    7  A    between atoms: C_21  and  C_23 
REMARK    8  A    between atoms: C_23  and  C_24 
ROOT
HETATM    1  O           1     -20.202  -5.218  -5.927  0.00  0.00    -0.271 OA
HETATM    2  N           1     -21.612  -6.848  -5.340  0.00  0.00    -0.344 N 
HETATM    3  H           1     -22.524  -7.274  -5.449  0.00  0.00     0.163 HD
HETATM    4  C           1     -21.291  -5.727  -6.058  0.00  0.00     0.249 C 
ENDROOT
BRANCH   4   5
HETATM    5  C           1     -22.295  -5.126  -7.010  0.00  0.00     0.278 C 
BRANCH   5   6
HETATM    6  N           1     -23.588  -4.889  -6.289  0.00  0.00    -0.066 N 
HETATM    7  H           1     -23.492  -5.193  -5.293  0.00  0.00     0.275 HD
HETATM    8  H           1     -23.824  -3.871  -6.320  0.00  0.00     0.275 HD
HETATM    9  H           1     -24.349  -5.437  -6.749  0.00  0.00     0.275 HD
ENDBRANCH   5   6
BRANCH   5  10
HETATM   10  C           1     -21.762  -3.803  -7.544  0.00  0.00     0.081 C 
BRANCH  10  11
HETATM   11  C           1     -21.691  -3.860  -9.038  0.00  0.00    -0.056 A 
HETATM   12  C           1     -20.469  -4.094  -9.669  0.00  0.00     0.007 A 
HETATM   13  C           1     -20.402  -4.146 -11.062  0.00  0.00     0.001 A 
HETATM   14  C           1     -21.557  -3.964 -11.823  0.00  0.00     0.000 A 
HETATM   15  C           1     -22.778  -3.729 -11.191  0.00  0.00     0.001 A 
HETATM   16  C           1     -22.845  -3.677  -9.799  0.00  0.00     0.007 A 
ENDBRANCH  10  11
ENDBRANCH   5  10
ENDBRANCH   4   5
BRANCH   2  17
HETATM   17  C           1     -20.647  -7.425  -4.425  0.00  0.00     0.189 C 
BRANCH  17  18
HETATM   18  C           1     -21.331  -7.751  -3.103  0.00  0.00     0.014 C 
HETATM   19  C           1     -20.305  -8.313  -2.127  0.00  0.00     0.012 C 
BRANCH  18  20
HETATM   20  C           1     -21.944  -6.484  -2.521  0.00  0.00     0.002 C 
HETATM   21  C           1     -22.315  -6.722  -1.064  0.00  0.00     0.005 C 
ENDBRANCH  18  20
ENDBRANCH  17  18
BRANCH  17  22
HETATM   22  C           1     -20.081  -8.689  -5.023  0.00  0.00     0.197 C 
HETATM   23  O           1     -20.846  -9.531  -5.542  0.00  0.00    -0.646 OA
HETATM   24  O           1     -18.849  -8.896  -4.999  0.00  0.00    -0.646 OA
ENDBRANCH  17  22
ENDBRANCH   2  17
TORSDOF 8
ENDMDL
MODEL 3
REMARK VINA RESULT:      -7.1      2.823      7.502
REMARK  8 active torsions:
REMARK  status: ('A' for Active; 'I' for Inactive)
REMARK    1  A    between atoms: C_3  and  C_21 
REMARK    2  A    between atoms: N_4  and  C_22 
REMARK    3  A    between atoms: N_6  and  C_23 
REMARK       I    between atoms: N_6  and  C_19 
REMARK    4  A    between atoms: C_12  and  C_16 
REMARK    5  A    between atoms: C_16  and  C_22 
REMARK    6  A    between atoms: C_19  and  C_22 
REMARK    7  A    between atoms: C_21  and  C_23 
REMARK    8  A    between atoms: C_23  and  C_24 
ROOT
HETATM    1  O           1     -19.865  -6.793  -6.557  0.00  0.00    -0.271 OA
HETATM    2  N           1     -21.569  -7.257  -5.189  0.00  0.00    -0.344 N 
HETATM    3  H           1     -22.531  -7.084  -4.930  0.00  0.00     0.163 HD
HETATM    4  C           1     -21.014  -6.587  -6.247  0.00  0.00     0.249 C 
ENDROOT
BRANCH   4   5
HETATM    5  C           1     -21.838  -5.591  -7.026  0.00  0.00     0.278 C 
BRANCH   5   6
HETATM    6  N           1     -22.929  -5.052  -6.150  0.00  0.00    -0.066 N 
HETATM    7  H           1     -23.296  -4.162  -6.556  0.00  0.00     0.275 HD
HETATM    8  H           1     -23.704  -5.751  -6.087  0.00  0.00     0.275 HD
HETATM    9  H           1     -22.549  -4.868  -5.194  0.00  0.00     0.275 HD
ENDBRANCH   5   6
BRANCH   5  10
HETATM   10  C           1     -20.948  -4.445  -7.489  0.00  0.00     0.081 C 
BRANCH  10  11
HETATM   11  C           1     -21.185  -4.186  -8.944  0.00  0.00    -0.056 A 
HETATM   12  C           1     -22.420  -3.702  -9.374  0.00  0.00     0.007 A 
HETATM   13  C           1     -22.642  -3.461 -10.730  0.00  0.00     0.001 A 
HETATM   14  C           1     -21.627  -3.705 -11.656  0.00  0.00     0.000 A 
HETATM   15  C           1     -20.393  -4.190 -11.226  0.00  0.00     0.001 A 
HETATM   16  C           1     -20.171  -4.431  -9.870  0.00  0.00     0.007 A 
ENDBRANCH  10  11
ENDBRANCH   5  10
ENDBRANCH   4   5
BRANCH   2  17
HETATM   17  C           1     -20.776  -8.214  -4.442  0.00  0.00     0.189 C 
BRANCH  17  18
HETATM   18  C           1     -21.066  -8.062  -2.954  0.00  0.00     0.014 C 
HETATM   19  C           1     -19.856  -8.523  -2.152  0.00  0.00     0.012 C 
BRANCH  18  20
HETATM   20  C           1     -21.357  -6.600  -2.639  0.00  0.00     0.002 C 
HETATM   21  C           1     -22.283  -6.515  -1.433  0.00  0.00     0.005 C 
ENDBRANCH  18  20
ENDBRANCH  17  18
BRANCH  17  22
HETATM   22  C           1     -21.131  -9.612  -4.882  0.00  0.00     0.197 C 
HETATM   23  O           1     -20.605 -10.097  -5.907  0.00  0.00    -0.646 OA
HETATM   24  O           1     -21.952 -10.286  -4.223  0.00  0.00    -0.646 OA
ENDBRANCH  17  22
ENDBRANCH   2  17
TORSDOF 8
ENDMDL
MODEL 4
REMARK VINA RESULT:      -7.0      2.729      7.271
REMARK  8 active torsions:
REMARK  status: ('A' for Active; 'I' for Inactive)
REMARK    1  A    between atoms: C_3  and  C_21 
REMARK    2  A    between atoms: N_4  and  C_22 
REMARK    3  A    between atoms: N_6  and  C_23 
REMARK       I    between atoms: N_6  and  C_19 
REMARK    4  A    between atoms: C_12  and  C_16 
REMARK    5  A    between atoms: C_16  and  C_22 
REMARK    6  A    between atoms: C_19  and  C_22 
REMARK    7  A    between atoms: C_21  and  C_23 
REMARK    8  A    between atoms: C_23  and  C_24 
ROOT
HETATM    1  O           1     -22.864  -5.959  -5.417  0.00  0.00    -0.271 OA
HETATM    2  N           1     -20.926  -6.670  -4.561  0.00  0.00    -0.344 N 
HETATM    3  H           1     -19.916  -6.614  -4.564  0.00  0.00     0.163 HD
HETATM    4  C           1     -21.657  -5.891  -5.419  0.00  0.00     0.249 C 
ENDROOT
BRANCH   4   5
HETATM    5  C           1     -20.956  -4.950  -6.368  0.00  0.00     0.278 C 
BRANCH   5   6
HETATM    6  N           1     -19.681  -4.469  -5.742  0.00  0.00    -0.066 N 
HETATM    7  H           1     -18.886  -4.638  -6.399  0.00  0.00     0.275 HD
HETATM    8  H           1     -19.755  -3.446  -5.541  0.00  0.00     0.275 HD
HETATM    9  H           1     -19.513  -4.988  -4.851  0.00  0.00     0.275 HD
ENDBRANCH   5   6
BRANCH   5  10
HETATM   10  C           1     -20.640  -5.679  -7.667  0.00  0.00     0.081 C 
BRANCH  10  11
HETATM   11  C           1     -21.102  -4.855  -8.828  0.00  0.00    -0.056 A 
HETATM   12  C           1     -20.213  -4.535  -9.853  0.00  0.00     0.007 A 
HETATM   13  C           1     -20.642  -3.766 -10.935  0.00  0.00     0.001 A 
HETATM   14  C           1     -21.962  -3.317 -10.990  0.00  0.00     0.000 A 
HETATM   15  C           1     -22.851  -3.636  -9.964  0.00  0.00     0.001 A 
HETATM   16  C           1     -22.421  -4.405  -8.882  0.00  0.00     0.007 A 
ENDBRANCH  10  11
ENDBRANCH   5  10
ENDBRANCH   4   5
BRANCH   2  17
HETATM   17  C           1     -21.601  -7.574  -3.650  0.00  0.00     0.189 C 
BRANCH  17  18
HETATM   18  C           1     -20.842  -8.894  -3.589  0.00  0.00     0.014 C 
HETATM   19  C           1     -21.690  -9.995  -4.211  0.00  0.00     0.012 C 
BRANCH  18  20
HETATM   20  C           1     -19.534  -8.764  -4.359  0.00  0.00     0.002 C 
HETATM   21  C           1     -18.397  -9.347  -3.531  0.00  0.00     0.005 C 
ENDBRANCH  18  20
ENDBRANCH  17  18
BRANCH  17  22
HETATM   22  C           1     -21.647  -6.957  -2.274  0.00  0.00     0.197 C 
HETATM   23  O           1     -22.332  -5.932  -2.072  0.00  0.00    -0.646 OA
HETATM   24  O           1     -21.000  -7.471  -1.336  0.00  0.00    -0.646 OA
ENDBRANCH  17  22
ENDBRANCH   2  17
TORSDOF 8
ENDMDL
MODEL 5
REMARK VINA RESULT:      -6.6      3.442      7.701
REMARK  8 active torsions:
REMARK  status: ('A' for Active; 'I' for Inactive)
REMARK    1  A    between atoms: C_3  and  C_21 
REMARK    2  A    between atoms: N_4  and  C_22 
REMARK    3  A    between atoms: N_6  and  C_23 
REMARK       I    between atoms: N_6  and  C_19 
REMARK    4  A    between atoms: C_12  and  C_16 
REMARK    5  A    between atoms: C_16  and  C_22 
REMARK    6  A    between atoms: C_19  and  C_22 
REMARK    7  A    between atoms: C_21  and  C_23 
REMARK    8  A    between atoms: C_23  and  C_24 
ROOT
HETATM    1  O           1     -19.488  -7.321  -6.389  0.00  0.00    -0.271 OA
HETATM    2  N           1     -20.583  -8.271  -4.690  0.00  0.00    -0.344 N 
HETATM    3  H           1     -21.380  -8.253  -4.066  0.00  0.00     0.163 HD
HETATM    4  C           1     -20.439  -7.299  -5.644  0.00  0.00     0.249 C 
ENDROOT
BRANCH   4   5
HETATM    5  C           1     -21.468  -6.202  -5.765  0.00  0.00     0.278 C 
BRANCH   5   6
HETATM    6  N           1     -22.176  -6.034  -4.455  0.00  0.00    -0.066 N 
HETATM    7  H           1     -21.738  -6.658  -3.740  0.00  0.00     0.275 HD
HETATM    8  H           1     -22.101  -5.040  -4.141  0.00  0.00     0.275 HD
HETATM    9  H           1     -23.183  -6.288  -4.568  0.00  0.00     0.275 HD
ENDBRANCH   5   6
BRANCH   5  10
HETATM   10  C           1     -20.777  -4.896  -6.139  0.00  0.00     0.081 C 
BRANCH  10  11
HETATM   11  C           1     -21.132  -4.529  -7.546  0.00  0.00    -0.056 A 
HETATM   12  C           1     -20.151  -4.542  -8.538  0.00  0.00     0.007 A 
HETATM   13  C           1     -20.481  -4.199  -9.849  0.00  0.00     0.001 A 
HETATM   14  C           1     -21.791  -3.842 -10.168  0.00  0.00     0.000 A 
HETATM   15  C           1     -22.771  -3.828  -9.176  0.00  0.00     0.001 A 
HETATM   16  C           1     -22.442  -4.171  -7.864  0.00  0.00     0.007 A 
ENDBRANCH  10  11
ENDBRANCH   5  10
ENDBRANCH   4   5
BRANCH   2  17
HETATM   17  C           1     -19.595  -9.325  -4.574  0.00  0.00     0.189 C 
BRANCH  17  18
HETATM   18  C           1     -19.252  -9.541  -3.105  0.00  0.00     0.014 C 
HETATM   19  C           1     -17.747  -9.403  -2.911  0.00  0.00     0.012 C 
BRANCH  18  20
HETATM   20  C           1     -19.971  -8.501  -2.257  0.00  0.00     0.002 C 
HETATM   21  C           1     -20.752  -9.198  -1.152  0.00  0.00     0.005 C 
ENDBRANCH  18  20
ENDBRANCH  17  18
BRANCH  17  22
HETATM   22  C           1     -20.153 -10.602  -5.152  0.00  0.00     0.197 C 
HETATM   23  O           1     -20.744 -11.418  -4.412  0.00  0.00    -0.646 OA
HETATM   24  O           1     -20.024 -10.845  -6.371  0.00  0.00    -0.646 OA
ENDBRANCH  17  22
ENDBRANCH   2  17
TORSDOF 8
ENDMDL
MODEL 6
REMARK VINA RESULT:      -6.3     18.372     19.782
REMARK  8 active torsions:
REMARK  status: ('A' for Active; 'I' for Inactive)
REMARK    1  A    between atoms: C_3  and  C_21 
REMARK    2  A    between atoms: N_4  and  C_22 
REMARK    3  A    between atoms: N_6  and  C_23 
REMARK       I    between atoms: N_6  and  C_19 
REMARK    4  A    between atoms: C_12  and  C_16 
REMARK    5  A    between atoms: C_16  and  C_22 
REMARK    6  A    between atoms: C_19  and  C_22 
REMARK    7  A    between atoms: C_21  and  C_23 
REMARK    8  A    between atoms: C_23  and  C_24 
ROOT
HETATM    1  O           1     -16.382  11.126   5.212  0.00  0.00    -0.271 OA
HETATM    2  N           1     -17.406   9.171   4.867  0.00  0.00    -0.344 N 
HETATM    3  H           1     -17.346   8.161   4.863  0.00  0.00     0.163 HD
HETATM    4  C           1     -16.311   9.920   5.207  0.00  0.00     0.249 C 
ENDROOT
BRANCH   4   5
HETATM    5  C           1     -15.015   9.239   5.575  0.00  0.00     0.278 C 
BRANCH   5   6
HETATM    6  N           1     -15.072   8.797   7.006  0.00  0.00    -0.066 N 
HETATM    7  H           1     -15.899   9.233   7.473  0.00  0.00     0.275 HD
HETATM    8  H           1     -15.159   7.756   7.047  0.00  0.00     0.275 HD
HETATM    9  H           1     -14.199   9.093   7.498  0.00  0.00     0.275 HD
ENDBRANCH   5   6
BRANCH   5  10
HETATM   10  C           1     -14.805   8.027   4.677  0.00  0.00     0.081 C 
BRANCH  10  11
HETATM   11  C           1     -14.315   8.477   3.337  0.00  0.00    -0.056 A 
HETATM   12  C           1     -14.794   7.865   2.178  0.00  0.00     0.007 A 
HETATM   13  C           1     -14.337   8.283   0.928  0.00  0.00     0.001 A 
HETATM   14  C           1     -13.401   9.314   0.837  0.00  0.00     0.000 A 
HETATM   15  C           1     -12.922   9.925   1.996  0.00  0.00     0.001 A 
HETATM   16  C           1     -13.379   9.507   3.246  0.00  0.00     0.007 A 
ENDBRANCH  10  11
ENDBRANCH   5  10
ENDBRANCH   4   5
BRANCH   2  17
HETATM   17  C           1     -18.650   9.825   4.514  0.00  0.00     0.189 C 
BRANCH  17  18
HETATM   18  C           1     -19.099   9.355   3.136  0.00  0.00     0.014 C 
HETATM   19  C           1     -19.999  10.411   2.508  0.00  0.00     0.012 C 
BRANCH  18  20
HETATM   20  C           1     -17.878   9.137   2.251  0.00  0.00     0.002 C 
HETATM   21  C           1     -17.458  10.463   1.631  0.00  0.00     0.005 C 
ENDBRANCH  18  20
ENDBRANCH  17  18
BRANCH  17  22
HETATM   22  C           1     -19.708   9.476   5.532  0.00  0.00     0.197 C 
HETATM   23  O           1     -20.591   8.637   5.253  0.00  0.00    -0.646 OA
HETATM   24  O           1     -19.701  10.027   6.654  0.00  0.00    -0.646 OA
ENDBRANCH  17  22
ENDBRANCH   2  17
TORSDOF 8
ENDMDL
MODEL 7
REMARK VINA RESULT:      -6.3      2.796      4.459
REMARK  8 active torsions:
REMARK  status: ('A' for Active; 'I' for Inactive)
REMARK    1  A    between atoms: C_3  and  C_21 
REMARK    2  A    between atoms: N_4  and  C_22 
REMARK    3  A    between atoms: N_6  and  C_23 
REMARK       I    between atoms: N_6  and  C_19 
REMARK    4  A    between atoms: C_12  and  C_16 
REMARK    5  A    between atoms: C_16  and  C_22 
REMARK    6  A    between atoms: C_19  and  C_22 
REMARK    7  A    between atoms: C_21  and  C_23 
REMARK    8  A    between atoms: C_23  and  C_24 
ROOT
HETATM    1  O           1     -19.597  -8.157  -5.948  0.00  0.00    -0.271 OA
HETATM    2  N           1     -21.233  -6.640  -6.053  0.00  0.00    -0.344 N 
HETATM    3  H           1     -22.116  -6.304  -5.690  0.00  0.00     0.163 HD
HETATM    4  C           1     -20.651  -7.756  -5.514  0.00  0.00     0.249 C 
ENDROOT
BRANCH   4   5
HETATM    5  C           1     -21.324  -8.485  -4.377  0.00  0.00     0.278 C 
BRANCH   5   6
HETATM    6  N           1     -21.525  -9.922  -4.755  0.00  0.00    -0.066 N 
HETATM    7  H           1     -20.952 -10.530  -4.127  0.00  0.00     0.275 HD
HETATM    8  H           1     -22.535 -10.172  -4.654  0.00  0.00     0.275 HD
HETATM    9  H           1     -21.228 -10.066  -5.746  0.00  0.00     0.275 HD
ENDBRANCH   5   6
BRANCH   5  10
HETATM   10  C           1     -20.451  -8.404  -3.132  0.00  0.00     0.081 C 
BRANCH  10  11
HETATM   11  C           1     -21.320  -8.337  -1.915  0.00  0.00    -0.056 A 
HETATM   12  C           1     -21.890  -7.122  -1.533  0.00  0.00     0.007 A 
HETATM   13  C           1     -22.700  -7.058  -0.399  0.00  0.00     0.001 A 
HETATM   14  C           1     -22.940  -8.209   0.353  0.00  0.00     0.000 A 
HETATM   15  C           1     -22.369  -9.423  -0.030  0.00  0.00     0.001 A 
HETATM   16  C           1     -21.559  -9.487  -1.164  0.00  0.00     0.007 A 
ENDBRANCH  10  11
ENDBRANCH   5  10
ENDBRANCH   4   5
BRANCH   2  17
HETATM   17  C           1     -20.585  -5.940  -7.145  0.00  0.00     0.189 C 
BRANCH  17  18
HETATM   18  C           1     -21.642  -5.292  -8.031  0.00  0.00     0.014 C 
HETATM   19  C           1     -22.563  -4.433  -7.175  0.00  0.00     0.012 C 
BRANCH  18  20
HETATM   20  C           1     -20.962  -4.419  -9.078  0.00  0.00     0.002 C 
HETATM   21  C           1     -21.978  -4.009 -10.135  0.00  0.00     0.005 C 
ENDBRANCH  18  20
ENDBRANCH  17  18
BRANCH  17  22
HETATM   22  C           1     -19.675  -4.874  -6.588  0.00  0.00     0.197 C 
HETATM   23  O           1     -19.864  -4.431  -5.434  0.00  0.00    -0.646 OA
HETATM   24  O           1     -18.732  -4.433  -7.279  0.00  0.00    -0.646 OA
ENDBRANCH  17  22
ENDBRANCH   2  17
TORSDOF 8
ENDMDL
MODEL 8
REMARK VINA RESULT:      -6.3      5.775      7.915
REMARK  8 active torsions:
REMARK  status: ('A' for Active; 'I' for Inactive)
REMARK    1  A    between atoms: C_3  and  C_21 
REMARK    2  A    between atoms: N_4  and  C_22 
REMARK    3  A    between atoms: N_6  and  C_23 
REMARK       I    between atoms: N_6  and  C_19 
REMARK    4  A    between atoms: C_12  and  C_16 
REMARK    5  A    between atoms: C_16  and  C_22 
REMARK    6  A    between atoms: C_19  and  C_22 
REMARK    7  A    between atoms: C_21  and  C_23 
REMARK    8  A    between atoms: C_23  and  C_24 
ROOT
HETATM    1  O           1     -22.663 -11.389  -4.301  0.00  0.00    -0.271 OA
HETATM    2  N           1     -21.490  -9.920  -3.095  0.00  0.00    -0.344 N 
HETATM    3  H           1     -21.204  -9.596  -2.180  0.00  0.00     0.163 HD
HETATM    4  C           1     -22.321 -11.003  -3.208  0.00  0.00     0.249 C 
ENDROOT
BRANCH   4   5
HETATM    5  C           1     -22.811 -11.711  -1.970  0.00  0.00     0.278 C 
BRANCH   5   6
HETATM    6  N           1     -23.027 -13.163  -2.277  0.00  0.00    -0.066 N 
HETATM    7  H           1     -24.041 -13.395  -2.169  0.00  0.00     0.275 HD
HETATM    8  H           1     -22.729 -13.360  -3.260  0.00  0.00     0.275 HD
HETATM    9  H           1     -22.464 -13.746  -1.619  0.00  0.00     0.275 HD
ENDBRANCH   5   6
BRANCH   5  10
HETATM   10  C           1     -21.774 -11.577  -0.863  0.00  0.00     0.081 C 
BRANCH  10  11
HETATM   11  C           1     -21.985 -10.286  -0.135  0.00  0.00    -0.056 A 
HETATM   12  C           1     -20.933  -9.707   0.576  0.00  0.00     0.007 A 
HETATM   13  C           1     -21.129  -8.505   1.256  0.00  0.00     0.001 A 
HETATM   14  C           1     -22.377  -7.881   1.224  0.00  0.00     0.000 A 
HETATM   15  C           1     -23.428  -8.461   0.514  0.00  0.00     0.001 A 
HETATM   16  C           1     -23.232  -9.664  -0.166  0.00  0.00     0.007 A 
ENDBRANCH  10  11
ENDBRANCH   5  10
ENDBRANCH   4   5
BRANCH   2  17
HETATM   17  C           1     -21.019  -9.239  -4.285  0.00  0.00     0.189 C 
BRANCH  17  18
HETATM   18  C           1     -20.937  -7.742  -4.016  0.00  0.00     0.014 C 
HETATM   19  C           1     -22.075  -7.034  -4.740  0.00  0.00     0.012 C 
BRANCH  18  20
HETATM   20  C           1     -21.053  -7.488  -2.518  0.00  0.00     0.002 C 
HETATM   21  C           1     -22.008  -6.328  -2.272  0.00  0.00     0.005 C 
ENDBRANCH  18  20
ENDBRANCH  17  18
BRANCH  17  22
HETATM   22  C           1     -19.651  -9.759  -4.653  0.00  0.00     0.197 C 
HETATM   23  O           1     -18.988 -10.417  -3.822  0.00  0.00    -0.646 OA
HETATM   24  O           1     -19.180  -9.531  -5.788  0.00  0.00    -0.646 OA
ENDBRANCH  17  22
ENDBRANCH   2  17
TORSDOF 8
ENDMDL
MODEL 9
REMARK VINA RESULT:      -6.2      4.318      8.510
REMARK  8 active torsions:
REMARK  status: ('A' for Active; 'I' for Inactive)
REMARK    1  A    between atoms: C_3  and  C_21 
REMARK    2  A    between atoms: N_4  and  C_22 
REMARK    3  A    between atoms: N_6  and  C_23 
REMARK       I    between atoms: N_6  and  C_19 
REMARK    4  A    between atoms: C_12  and  C_16 
REMARK    5  A    between atoms: C_16  and  C_22 
REMARK    6  A    between atoms: C_19  and  C_22 
REMARK    7  A    between atoms: C_21  and  C_23 
REMARK    8  A    between atoms: C_23  and  C_24 
ROOT
HETATM    1  O           1     -19.321  -8.880  -3.209  0.00  0.00    -0.271 OA
HETATM    2  N           1     -21.511  -8.557  -2.912  0.00  0.00    -0.344 N 
HETATM    3  H           1     -22.374  -8.158  -3.259  0.00  0.00     0.163 HD
HETATM    4  C           1     -20.351  -8.404  -3.624  0.00  0.00     0.249 C 
ENDROOT
BRANCH   4   5
HETATM    5  C           1     -20.360  -7.643  -4.927  0.00  0.00     0.278 C 
BRANCH   5   6
HETATM    6  N           1     -21.111  -8.427  -5.959  0.00  0.00    -0.066 N 
HETATM    7  H           1     -20.959  -8.000  -6.901  0.00  0.00     0.275 HD
HETATM    8  H           1     -20.769  -9.415  -5.966  0.00  0.00     0.275 HD
HETATM    9  H           1     -22.131  -8.414  -5.733  0.00  0.00     0.275 HD
ENDBRANCH   5   6
BRANCH   5  10
HETATM   10  C           1     -21.037  -6.294  -4.722  0.00  0.00     0.081 C 
BRANCH  10  11
HETATM   11  C           1     -20.893  -5.470  -5.964  0.00  0.00    -0.056 A 
HETATM   12  C           1     -19.624  -5.189  -6.471  0.00  0.00     0.007 A 
HETATM   13  C           1     -19.489  -4.421  -7.627  0.00  0.00     0.001 A 
HETATM   14  C           1     -20.624  -3.933  -8.277  0.00  0.00     0.000 A 
HETATM   15  C           1     -21.892  -4.213  -7.768  0.00  0.00     0.001 A 
HETATM   16  C           1     -22.027  -4.981  -6.612  0.00  0.00     0.007 A 
ENDBRANCH  10  11
ENDBRANCH   5  10
ENDBRANCH   4   5
BRANCH   2  17
HETATM   17  C           1     -21.503  -9.289  -1.661  0.00  0.00     0.189 C 
BRANCH  17  18
HETATM   18  C           1     -22.528  -8.682  -0.710  0.00  0.00     0.014 C 
HETATM   19  C           1     -23.287  -9.799  -0.004  0.00  0.00     0.012 C 
BRANCH  18  20
HETATM   20  C           1     -21.815  -7.821   0.324  0.00  0.00     0.002 C 
HETATM   21  C           1     -21.103  -8.717   1.328  0.00  0.00     0.005 C 
ENDBRANCH  18  20
ENDBRANCH  17  18
BRANCH  17  22
HETATM   22  C           1     -21.853 -10.733  -1.922  0.00  0.00     0.197 C 
HETATM   23  O           1     -22.732 -11.020  -2.763  0.00  0.00    -0.646 OA
HETATM   24  O           1     -21.266 -11.642  -1.296  0.00  0.00    -0.646 OA
ENDBRANCH  17  22
ENDBRANCH   2  17
TORSDOF 8
ENDMDL
