MODEL 1
REMARK VINA RESULT:      -6.5      0.000      0.000
REMARK  5 active torsions:
REMARK  status: ('A' for Active; 'I' for Inactive)
REMARK    1  A    between atoms: C_2  and  C_16 
REMARK       I    between atoms: N_4  and  C_11 
REMARK    2  A    between atoms: C_5  and  C_9 
REMARK    3  A    between atoms: C_11  and  C_15 
REMARK    4  A    between atoms: N_14  and  C_15 
REMARK    5  A    between atoms: C_15  and  C_16 
ROOT
HETATM    1  N           1     -35.737  -1.139 -13.351  0.00  0.00    -0.336 N 
HETATM    2  C           1     -36.256  -0.632 -14.618  0.00  0.00     0.188 C 
HETATM    3  C           1     -37.674  -0.205 -14.285  0.00  0.00     0.038 C 
HETATM    4  C           1     -37.661   0.076 -12.787  0.00  0.00     0.022 C 
HETATM    5  C           1     -34.952  -2.244 -13.153  0.00  0.00     0.251 C 
HETATM    6  C           1     -36.238  -0.211 -12.341  0.00  0.00     0.127 C 
HETATM    7  O           1     -34.615  -2.921 -14.095  0.00  0.00    -0.271 OA
ENDROOT
BRANCH   5   8
HETATM    8  C           1     -34.510  -2.615 -11.759  0.00  0.00     0.278 C 
BRANCH   8   9
HETATM    9  N           1     -35.696  -2.600 -10.839  0.00  0.00    -0.066 N 
HETATM   10  H           1     -35.474  -3.147  -9.977  0.00  0.00     0.275 HD
HETATM   11  H           1     -35.921  -1.614 -10.578  0.00  0.00     0.275 HD
HETATM   12  H           1     -36.517  -3.029 -11.322  0.00  0.00     0.275 HD
ENDBRANCH   8   9
BRANCH   8  13
HETATM   13  C           1     -33.899  -4.009 -11.775  0.00  0.00     0.021 C 
HETATM   14  C           1     -32.381  -3.899 -11.824  0.00  0.00     0.012 C 
BRANCH  13  15
HETATM   15  C           1     -34.312  -4.757 -10.514  0.00  0.00     0.002 C 
HETATM   16  C           1     -34.201  -6.258 -10.753  0.00  0.00     0.005 C 
ENDBRANCH  13  15
ENDBRANCH   8  13
ENDBRANCH   5   8
BRANCH   2  17
HETATM   17  C           1     -35.441   0.542 -15.102  0.00  0.00     0.196 C 
HETATM   18  O           1     -35.972   1.420 -15.816  0.00  0.00    -0.646 OA
HETATM   19  O           1     -34.234   0.637 -14.787  0.00  0.00    -0.646 OA
ENDBRANCH   2  17
TORSDOF 5
ENDMDL
MODEL 2
REMARK VINA RESULT:      -6.5      1.743      5.681
REMARK  5 active torsions:
REMARK  status: ('A' for Active; 'I' for Inactive)
REMARK    1  A    between atoms: C_2  and  C_16 
REMARK       I    between atoms: N_4  and  C_11 
REMARK    2  A    between atoms: C_5  and  C_9 
REMARK    3  A    between atoms: C_11  and  C_15 
REMARK    4  A    between atoms: N_14  and  C_15 
REMARK    5  A    between atoms: C_15  and  C_16 
ROOT
HETATM    1  N           1     -34.643  -2.639 -12.503  0.00  0.00    -0.336 N 
HETATM    2  C           1     -33.815  -3.842 -12.525  0.00  0.00     0.188 C 
HETATM    3  C           1     -32.831  -3.625 -11.389  0.00  0.00     0.038 C 
HETATM    4  C           1     -33.527  -2.656 -10.441  0.00  0.00     0.022 C 
HETATM    5  C           1     -35.106  -1.926 -13.576  0.00  0.00     0.251 C 
HETATM    6  C           1     -34.870  -2.364 -11.087  0.00  0.00     0.127 C 
HETATM    7  O           1     -34.833  -2.279 -14.699  0.00  0.00    -0.271 OA
ENDROOT
BRANCH   5   8
HETATM    8  C           1     -35.956  -0.699 -13.356  0.00  0.00     0.278 C 
BRANCH   8   9
HETATM    9  N           1     -35.205   0.283 -12.507  0.00  0.00    -0.066 N 
HETATM   10  H           1     -34.297   0.519 -12.968  0.00  0.00     0.275 HD
HETATM   11  H           1     -35.774   1.151 -12.392  0.00  0.00     0.275 HD
HETATM   12  H           1     -35.019  -0.139 -11.569  0.00  0.00     0.275 HD
ENDBRANCH   8   9
BRANCH   8  13
HETATM   13  C           1     -36.284  -0.061 -14.700  0.00  0.00     0.021 C 
HETATM   14  C           1     -37.761   0.307 -14.742  0.00  0.00     0.012 C 
BRANCH  13  15
HETATM   15  C           1     -35.442   1.196 -14.881  0.00  0.00     0.002 C 
HETATM   16  C           1     -36.059   2.069 -15.967  0.00  0.00     0.005 C 
ENDBRANCH  13  15
ENDBRANCH   8  13
ENDBRANCH   5   8
BRANCH   2  17
HETATM   17  C           1     -34.651  -5.075 -12.282  0.00  0.00     0.196 C 
HETATM   18  O           1     -35.369  -5.533 -13.198  0.00  0.00    -0.646 OA
HETATM   19  O           1     -34.625  -5.638 -11.167  0.00  0.00    -0.646 OA
ENDBRANCH   2  17
TORSDOF 5
ENDMDL
MODEL 3
REMARK VINA RESULT:      -6.5     12.774     14.851
REMARK  5 active torsions:
REMARK  status: ('A' for Active; 'I' for Inactive)
REMARK    1  A    between atoms: C_2  and  C_16 
REMARK       I    between atoms: N_4  and  C_11 
REMARK    2  A    between atoms: C_5  and  C_9 
REMARK    3  A    between atoms: C_11  and  C_15 
REMARK    4  A    between atoms: N_14  and  C_15 
REMARK    5  A    between atoms: C_15  and  C_16 
ROOT
HETATM    1  N           1     -21.678  -4.409  -9.429  0.00  0.00    -0.336 N 
HETATM    2  C           1     -22.552  -3.638 -10.310  0.00  0.00     0.188 C 
HETATM    3  C           1     -21.587  -2.883 -11.207  0.00  0.00     0.038 C 
HETATM    4  C           1     -20.308  -3.711 -11.199  0.00  0.00     0.022 C 
HETATM    5  C           1     -21.832  -4.630  -8.087  0.00  0.00     0.251 C 
HETATM    6  C           1     -20.606  -4.893 -10.293  0.00  0.00     0.127 C 
HETATM    7  O           1     -22.779  -4.160  -7.502  0.00  0.00    -0.271 OA
ENDROOT
BRANCH   5   8
HETATM    8  C           1     -20.818  -5.459  -7.338  0.00  0.00     0.278 C 
BRANCH   8   9
HETATM    9  N           1     -19.635  -4.605  -6.988  0.00  0.00    -0.066 N 
HETATM   10  H           1     -19.778  -4.183  -6.043  0.00  0.00     0.275 HD
HETATM   11  H           1     -18.772  -5.193  -6.981  0.00  0.00     0.275 HD
HETATM   12  H           1     -19.534  -3.844  -7.698  0.00  0.00     0.275 HD
ENDBRANCH   8   9
BRANCH   8  13
HETATM   13  C           1     -21.448  -6.000  -6.061  0.00  0.00     0.021 C 
HETATM   14  C           1     -21.291  -7.514  -6.018  0.00  0.00     0.012 C 
BRANCH  13  15
HETATM   15  C           1     -20.754  -5.383  -4.854  0.00  0.00     0.002 C 
HETATM   16  C           1     -21.244  -6.063  -3.582  0.00  0.00     0.005 C 
ENDBRANCH  13  15
ENDBRANCH   8  13
ENDBRANCH   5   8
BRANCH   2  17
HETATM   17  C           1     -23.437  -4.551 -11.122  0.00  0.00     0.196 C 
HETATM   18  O           1     -24.001  -5.525 -10.575  0.00  0.00    -0.646 OA
HETATM   19  O           1     -23.608  -4.334 -12.341  0.00  0.00    -0.646 OA
ENDBRANCH   2  17
TORSDOF 5
ENDMDL
MODEL 4
REMARK VINA RESULT:      -6.4      2.213      2.912
REMARK  5 active torsions:
REMARK  status: ('A' for Active; 'I' for Inactive)
REMARK    1  A    between atoms: C_2  and  C_16 
REMARK       I    between atoms: N_4  and  C_11 
REMARK    2  A    between atoms: C_5  and  C_9 
REMARK    3  A    between atoms: C_11  and  C_15 
REMARK    4  A    between atoms: N_14  and  C_15 
REMARK    5  A    between atoms: C_15  and  C_16 
ROOT
HETATM    1  N           1     -35.154  -1.355 -12.428  0.00  0.00    -0.336 N 
HETATM    2  C           1     -35.807  -0.083 -12.131  0.00  0.00     0.188 C 
HETATM    3  C           1     -35.473   0.784 -13.332  0.00  0.00     0.038 C 
HETATM    4  C           1     -35.198  -0.197 -14.466  0.00  0.00     0.022 C 
HETATM    5  C           1     -34.475  -2.166 -11.558  0.00  0.00     0.251 C 
HETATM    6  C           1     -35.384  -1.574 -13.853  0.00  0.00     0.127 C 
HETATM    7  O           1     -34.366  -1.850 -10.397  0.00  0.00    -0.271 OA
ENDROOT
BRANCH   5   8
HETATM    8  C           1     -33.861  -3.454 -12.050  0.00  0.00     0.278 C 
BRANCH   8   9
HETATM    9  N           1     -32.468  -3.582 -11.508  0.00  0.00    -0.066 N 
HETATM   10  H           1     -31.789  -3.638 -12.300  0.00  0.00     0.275 HD
HETATM   11  H           1     -32.247  -2.750 -10.917  0.00  0.00     0.275 HD
HETATM   12  H           1     -32.399  -4.450 -10.929  0.00  0.00     0.275 HD
ENDBRANCH   8   9
BRANCH   8  13
HETATM   13  C           1     -34.701  -4.631 -11.574  0.00  0.00     0.021 C 
HETATM   14  C           1     -34.944  -5.586 -12.735  0.00  0.00     0.012 C 
BRANCH  13  15
HETATM   15  C           1     -33.963  -5.362 -10.461  0.00  0.00     0.002 C 
HETATM   16  C           1     -34.697  -6.654 -10.126  0.00  0.00     0.005 C 
ENDBRANCH  13  15
ENDBRANCH   8  13
ENDBRANCH   5   8
BRANCH   2  17
HETATM   17  C           1     -37.300  -0.264 -11.999  0.00  0.00     0.196 C 
HETATM   18  O           1     -37.761  -1.039 -11.133  0.00  0.00    -0.646 OA
HETATM   19  O           1     -38.075   0.362 -12.754  0.00  0.00    -0.646 OA
ENDBRANCH   2  17
TORSDOF 5
ENDMDL
MODEL 5
REMARK VINA RESULT:      -6.2     12.517     15.177
REMARK  5 active torsions:
REMARK  status: ('A' for Active; 'I' for Inactive)
REMARK    1  A    between atoms: C_2  and  C_16 
REMARK       I    between atoms: N_4  and  C_11 
REMARK    2  A    between atoms: C_5  and  C_9 
REMARK    3  A    between atoms: C_11  and  C_15 
REMARK    4  A    between atoms: N_14  and  C_15 
REMARK    5  A    between atoms: C_15  and  C_16 
ROOT
HETATM    1  N           1     -21.284  -4.618  -8.590  0.00  0.00    -0.336 N 
HETATM    2  C           1     -21.283  -5.658  -7.566  0.00  0.00     0.188 C 
HETATM    3  C           1     -19.816  -5.814  -7.208  0.00  0.00     0.038 C 
HETATM    4  C           1     -19.175  -4.481  -7.575  0.00  0.00     0.022 C 
HETATM    5  C           1     -22.036  -4.573  -9.733  0.00  0.00     0.251 C 
HETATM    6  C           1     -20.308  -3.635  -8.129  0.00  0.00     0.127 C 
HETATM    7  O           1     -22.808  -5.468  -9.984  0.00  0.00    -0.271 OA
ENDROOT
BRANCH   5   8
HETATM    8  C           1     -21.900  -3.407 -10.681  0.00  0.00     0.278 C 
BRANCH   8   9
HETATM    9  N           1     -20.610  -3.528 -11.439  0.00  0.00    -0.066 N 
HETATM   10  H           1     -20.549  -4.476 -11.872  0.00  0.00     0.275 HD
HETATM   11  H           1     -20.576  -2.799 -12.186  0.00  0.00     0.275 HD
HETATM   12  H           1     -19.808  -3.393 -10.783  0.00  0.00     0.275 HD
ENDBRANCH   8   9
BRANCH   8  13
HETATM   13  C           1     -23.066  -3.410 -11.661  0.00  0.00     0.021 C 
HETATM   14  C           1     -24.365  -3.157 -10.909  0.00  0.00     0.012 C 
BRANCH  13  15
HETATM   15  C           1     -22.858  -2.315 -12.699  0.00  0.00     0.002 C 
HETATM   16  C           1     -23.093  -2.883 -14.093  0.00  0.00     0.005 C 
ENDBRANCH  13  15
ENDBRANCH   8  13
ENDBRANCH   5   8
BRANCH   2  17
HETATM   17  C           1     -22.086  -5.229  -6.363  0.00  0.00     0.196 C 
HETATM   18  O           1     -23.207  -4.696  -6.517  0.00  0.00    -0.646 OA
HETATM   19  O           1     -21.632  -5.405  -5.212  0.00  0.00    -0.646 OA
ENDBRANCH   2  17
TORSDOF 5
ENDMDL
MODEL 6
REMARK VINA RESULT:      -6.1     18.730     20.218
REMARK  5 active torsions:
REMARK  status: ('A' for Active; 'I' for Inactive)
REMARK    1  A    between atoms: C_2  and  C_16 
REMARK       I    between atoms: N_4  and  C_11 
REMARK    2  A    between atoms: C_5  and  C_9 
REMARK    3  A    between atoms: C_11  and  C_15 
REMARK    4  A    between atoms: N_14  and  C_15 
REMARK    5  A    between atoms: C_15  and  C_16 
ROOT
HETATM    1  N           1     -21.365  -9.389  -0.969  0.00  0.00    -0.336 N 
HETATM    2  C           1     -21.063  -7.960  -0.943  0.00  0.00     0.188 C 
HETATM    3  C           1     -20.364  -7.714  -2.269  0.00  0.00     0.038 C 
HETATM    4  C           1     -20.852  -8.828  -3.187  0.00  0.00     0.022 C 
HETATM    5  C           1     -21.265 -10.281   0.064  0.00  0.00     0.251 C 
HETATM    6  C           1     -21.799  -9.656  -2.337  0.00  0.00     0.127 C 
HETATM    7  O           1     -20.887  -9.909   1.150  0.00  0.00    -0.271 OA
ENDROOT
BRANCH   5   8
HETATM    8  C           1     -21.625 -11.730  -0.153  0.00  0.00     0.278 C 
BRANCH   8   9
HETATM    9  N           1     -20.517 -12.602   0.362  0.00  0.00    -0.066 N 
HETATM   10  H           1     -19.853 -12.817  -0.416  0.00  0.00     0.275 HD
HETATM   11  H           1     -20.009 -12.104   1.127  0.00  0.00     0.275 HD
HETATM   12  H           1     -20.919 -13.493   0.731  0.00  0.00     0.275 HD
ENDBRANCH   8   9
BRANCH   8  13
HETATM   13  C           1     -22.912 -12.052   0.595  0.00  0.00     0.021 C 
HETATM   14  C           1     -24.100 -11.484  -0.169  0.00  0.00     0.012 C 
BRANCH  13  15
HETATM   15  C           1     -23.062 -13.563   0.717  0.00  0.00     0.002 C 
HETATM   16  C           1     -23.436 -13.922   2.149  0.00  0.00     0.005 C 
ENDBRANCH  13  15
ENDBRANCH   8  13
ENDBRANCH   5   8
BRANCH   2  17
HETATM   17  C           1     -22.328  -7.144  -0.843  0.00  0.00     0.196 C 
HETATM   18  O           1     -22.512  -6.179  -1.616  0.00  0.00    -0.646 OA
HETATM   19  O           1     -23.193  -7.434   0.012  0.00  0.00    -0.646 OA
ENDBRANCH   2  17
TORSDOF 5
ENDMDL
MODEL 7
REMARK VINA RESULT:      -6.0      2.127      5.148
REMARK  5 active torsions:
REMARK  status: ('A' for Active; 'I' for Inactive)
REMARK    1  A    between atoms: C_2  and  C_16 
REMARK       I    between atoms: N_4  and  C_11 
REMARK    2  A    between atoms: C_5  and  C_9 
REMARK    3  A    between atoms: C_11  and  C_15 
REMARK    4  A    between atoms: N_14  and  C_15 
REMARK    5  A    between atoms: C_15  and  C_16 
ROOT
HETATM    1  N           1     -34.744  -2.850 -11.590  0.00  0.00    -0.336 N 
HETATM    2  C           1     -33.736  -3.400 -12.491  0.00  0.00     0.188 C 
HETATM    3  C           1     -33.066  -4.485 -11.667  0.00  0.00     0.038 C 
HETATM    4  C           1     -34.103  -4.889 -10.625  0.00  0.00     0.022 C 
HETATM    5  C           1     -35.085  -1.534 -11.424  0.00  0.00     0.251 C 
HETATM    6  C           1     -35.308  -4.009 -10.904  0.00  0.00     0.127 C 
HETATM    7  O           1     -34.525  -0.679 -12.068  0.00  0.00    -0.271 OA
ENDROOT
BRANCH   5   8
HETATM    8  C           1     -36.161  -1.153 -10.437  0.00  0.00     0.278 C 
BRANCH   8   9
HETATM    9  N           1     -35.531  -0.819  -9.117  0.00  0.00    -0.066 N 
HETATM   10  H           1     -35.327  -1.702  -8.596  0.00  0.00     0.275 HD
HETATM   11  H           1     -34.642  -0.296  -9.278  0.00  0.00     0.275 HD
HETATM   12  H           1     -36.188  -0.229  -8.557  0.00  0.00     0.275 HD
ENDBRANCH   8   9
BRANCH   8  13
HETATM   13  C           1     -36.920   0.061 -10.957  0.00  0.00     0.021 C 
HETATM   14  C           1     -37.469  -0.238 -12.346  0.00  0.00     0.012 C 
BRANCH  13  15
HETATM   15  C           1     -38.072   0.379 -10.014  0.00  0.00     0.002 C 
HETATM   16  C           1     -37.699   1.568  -9.137  0.00  0.00     0.005 C 
ENDBRANCH  13  15
ENDBRANCH   8  13
ENDBRANCH   5   8
BRANCH   2  17
HETATM   17  C           1     -34.379  -3.984 -13.725  0.00  0.00     0.196 C 
HETATM   18  O           1     -34.388  -3.333 -14.793  0.00  0.00    -0.646 OA
HETATM   19  O           1     -34.901  -5.119 -13.681  0.00  0.00    -0.646 OA
ENDBRANCH   2  17
TORSDOF 5
ENDMDL
MODEL 8
REMARK VINA RESULT:      -5.8     24.548     25.930
REMARK  5 active torsions:
REMARK  status: ('A' for Active; 'I' for Inactive)
REMARK    1  A    between atoms: C_2  and  C_16 
REMARK       I    between atoms: N_4  and  C_11 
REMARK    2  A    between atoms: C_5  and  C_9 
REMARK    3  A    between atoms: C_11  and  C_15 
REMARK    4  A    between atoms: N_14  and  C_15 
REMARK    5  A    between atoms: C_15  and  C_16 
ROOT
HETATM    1  N           1     -11.407   6.920 -20.445  0.00  0.00    -0.336 N 
HETATM    2  C           1     -11.121   8.082 -19.608  0.00  0.00     0.188 C 
HETATM    3  C           1     -10.074   8.848 -20.396  0.00  0.00     0.038 C 
HETATM    4  C           1     -10.282   8.428 -21.846  0.00  0.00     0.022 C 
HETATM    5  C           1     -11.606   5.628 -20.039  0.00  0.00     0.251 C 
HETATM    6  C           1     -11.433   7.438 -21.810  0.00  0.00     0.127 C 
HETATM    7  O           1     -11.552   5.349 -18.864  0.00  0.00    -0.271 OA
ENDROOT
BRANCH   5   8
HETATM    8  C           1     -11.892   4.553 -21.058  0.00  0.00     0.278 C 
BRANCH   8   9
HETATM    9  N           1     -10.851   3.477 -20.954  0.00  0.00    -0.066 N 
HETATM   10  H           1     -11.047   2.882 -20.117  0.00  0.00     0.275 HD
HETATM   11  H           1     -10.873   2.887 -21.815  0.00  0.00     0.275 HD
HETATM   12  H           1      -9.907   3.915 -20.855  0.00  0.00     0.275 HD
ENDBRANCH   8   9
BRANCH   8  13
HETATM   13  C           1     -13.267   3.954 -20.792  0.00  0.00     0.021 C 
HETATM   14  C           1     -14.301   5.069 -20.715  0.00  0.00     0.012 C 
BRANCH  13  15
HETATM   15  C           1     -13.631   3.001 -21.923  0.00  0.00     0.002 C 
HETATM   16  C           1     -14.568   3.703 -22.899  0.00  0.00     0.005 C 
ENDBRANCH  13  15
ENDBRANCH   8  13
ENDBRANCH   5   8
BRANCH   2  17
HETATM   17  C           1     -12.361   8.919 -19.408  0.00  0.00     0.196 C 
HETATM   18  O           1     -12.377  10.112 -19.781  0.00  0.00    -0.646 OA
HETATM   19  O           1     -13.373   8.419 -18.870  0.00  0.00    -0.646 OA
ENDBRANCH   2  17
TORSDOF 5
ENDMDL
MODEL 9
REMARK VINA RESULT:      -5.7      1.808      5.160
REMARK  5 active torsions:
REMARK  status: ('A' for Active; 'I' for Inactive)
REMARK    1  A    between atoms: C_2  and  C_16 
REMARK       I    between atoms: N_4  and  C_11 
REMARK    2  A    between atoms: C_5  and  C_9 
REMARK    3  A    between atoms: C_11  and  C_15 
REMARK    4  A    between atoms: N_14  and  C_15 
REMARK    5  A    between atoms: C_15  and  C_16 
ROOT
HETATM    1  N           1     -34.414  -2.339 -12.349  0.00  0.00    -0.336 N 
HETATM    2  C           1     -34.094  -3.731 -12.651  0.00  0.00     0.188 C 
HETATM    3  C           1     -32.727  -3.934 -12.021  0.00  0.00     0.038 C 
HETATM    4  C           1     -32.642  -2.888 -10.915  0.00  0.00     0.022 C 
HETATM    5  C           1     -35.010  -1.423 -13.173  0.00  0.00     0.251 C 
HETATM    6  C           1     -33.962  -2.139 -10.975  0.00  0.00     0.127 C 
HETATM    7  O           1     -35.332  -1.738 -14.294  0.00  0.00    -0.271 OA
ENDROOT
BRANCH   5   8
HETATM    8  C           1     -35.264  -0.019 -12.682  0.00  0.00     0.278 C 
BRANCH   8   9
HETATM    9  N           1     -34.830   0.963 -13.730  0.00  0.00    -0.066 N 
HETATM   10  H           1     -35.367   1.853 -13.617  0.00  0.00     0.275 HD
HETATM   11  H           1     -33.809   1.155 -13.626  0.00  0.00     0.275 HD
HETATM   12  H           1     -35.016   0.564 -14.678  0.00  0.00     0.275 HD
ENDBRANCH   8   9
BRANCH   8  13
HETATM   13  C           1     -36.750   0.161 -12.403  0.00  0.00     0.021 C 
HETATM   14  C           1     -37.547  -0.160 -13.660  0.00  0.00     0.012 C 
BRANCH  13  15
HETATM   15  C           1     -37.172  -0.780 -11.282  0.00  0.00     0.002 C 
HETATM   16  C           1     -36.901  -0.120  -9.935  0.00  0.00     0.005 C 
ENDBRANCH  13  15
ENDBRANCH   8  13
ENDBRANCH   5   8
BRANCH   2  17
HETATM   17  C           1     -35.111  -4.663 -12.039  0.00  0.00     0.196 C 
HETATM   18  O           1     -35.881  -4.248 -11.146  0.00  0.00    -0.646 OA
HETATM   19  O           1     -35.184  -5.850 -12.425  0.00  0.00    -0.646 OA
ENDBRANCH   2  17
TORSDOF 5
ENDMDL
