MODEL 1
REMARK VINA RESULT:      -6.5      0.000      0.000
REMARK  10 active torsions:
REMARK  status: ('A' for Active; 'I' for Inactive)
REMARK    1  A    between atoms: C_1  and  C_3 
REMARK    2  A    between atoms: C_2  and  C_14 
REMARK    3  A    between atoms: C_2  and  N_25 
REMARK    4  A    between atoms: C_3  and  C_12 
REMARK    5  A    between atoms: N_6  and  C_12 
REMARK       I    between atoms: N_6  and  C_9 
REMARK    6  A    between atoms: C_9  and  C_20 
REMARK    7  A    between atoms: C_12  and  C_22 
REMARK    8  A    between atoms: C_14  and  C_15 
REMARK    9  A    between atoms: C_15  and  C_20 
REMARK   10  A    between atoms: C_20  and  N_24 
ROOT
HETATM    1  N           1     -20.844  -8.006  -5.628  0.00  0.00    -0.344 N 
HETATM    2  C           1     -20.482  -6.788  -6.138  0.00  0.00     0.249 C 
HETATM    3  O           1     -19.604  -6.717  -6.965  0.00  0.00    -0.271 OA
HETATM    4  H           1     -21.572  -8.547  -6.078  0.00  0.00     0.163 HD
ENDROOT
BRANCH   2   5
HETATM    5  C           1     -21.178  -5.536  -5.667  0.00  0.00     0.274 C 
BRANCH   5   6
HETATM    6  C           1     -22.210  -5.108  -6.701  0.00  0.00     0.044 C 
BRANCH   6   7
HETATM    7  C           1     -21.693  -3.895  -7.463  0.00  0.00     0.030 C 
BRANCH   7   8
HETATM    8  C           1     -22.532  -3.687  -8.718  0.00  0.00     0.230 C 
BRANCH   8   9
HETATM    9  N           1     -23.983  -3.886  -8.389  0.00  0.00    -0.079 N 
HETATM   10  H           1     -24.127  -3.758  -7.362  0.00  0.00     0.274 HD
HETATM   11  H           1     -24.557  -3.187  -8.911  0.00  0.00     0.274 HD
HETATM   12  H           1     -24.273  -4.851  -8.665  0.00  0.00     0.274 HD
ENDBRANCH   8   9
ENDBRANCH   7   8
ENDBRANCH   6   7
ENDBRANCH   5   6
BRANCH   5  13
HETATM   13  N           1     -20.169  -4.441  -5.485  0.00  0.00    -0.067 N 
HETATM   14  H           1     -19.616  -4.617  -4.616  0.00  0.00     0.275 HD
HETATM   15  H           1     -19.525  -4.421  -6.308  0.00  0.00     0.275 HD
HETATM   16  H           1     -20.662  -3.523  -5.405  0.00  0.00     0.275 HD
ENDBRANCH   5  13
ENDBRANCH   2   5
BRANCH   1  17
HETATM   17  C           1     -20.183  -8.521  -4.445  0.00  0.00     0.189 C 
BRANCH  17  18
HETATM   18  C           1     -21.145  -9.422  -3.680  0.00  0.00     0.074 C 
BRANCH  18  19
HETATM   19  C           1     -21.633  -8.710  -2.457  0.00  0.00    -0.056 A 
HETATM   20  C           1     -21.690  -7.316  -2.439  0.00  0.00     0.007 A 
HETATM   21  C           1     -22.146  -6.651  -1.301  0.00  0.00     0.001 A 
HETATM   22  C           1     -22.544  -7.381  -0.181  0.00  0.00     0.000 A 
HETATM   23  C           1     -22.487  -8.774  -0.199  0.00  0.00     0.001 A 
HETATM   24  C           1     -22.032  -9.438  -1.337  0.00  0.00     0.007 A 
ENDBRANCH  18  19
ENDBRANCH  17  18
BRANCH  17  25
HETATM   25  C           1     -18.967  -9.316  -4.854  0.00  0.00     0.197 C 
HETATM   26  O           1     -18.965  -9.943  -5.935  0.00  0.00    -0.646 OA
HETATM   27  O           1     -17.962  -9.346  -4.111  0.00  0.00    -0.646 OA
ENDBRANCH  17  25
ENDBRANCH   1  17
TORSDOF 10
ENDMDL
MODEL 2
REMARK VINA RESULT:      -6.3      2.178      7.070
REMARK  10 active torsions:
REMARK  status: ('A' for Active; 'I' for Inactive)
REMARK    1  A    between atoms: C_1  and  C_3 
REMARK    2  A    between atoms: C_2  and  C_14 
REMARK    3  A    between atoms: C_2  and  N_25 
REMARK    4  A    between atoms: C_3  and  C_12 
REMARK    5  A    between atoms: N_6  and  C_12 
REMARK       I    between atoms: N_6  and  C_9 
REMARK    6  A    between atoms: C_9  and  C_20 
REMARK    7  A    between atoms: C_12  and  C_22 
REMARK    8  A    between atoms: C_14  and  C_15 
REMARK    9  A    between atoms: C_15  and  C_20 
REMARK   10  A    between atoms: C_20  and  N_24 
ROOT
HETATM    1  N           1     -22.342  -5.784  -5.673  0.00  0.00    -0.344 N 
HETATM    2  C           1     -21.745  -6.374  -4.592  0.00  0.00     0.249 C 
HETATM    3  O           1     -21.212  -5.692  -3.749  0.00  0.00    -0.271 OA
HETATM    4  H           1     -23.318  -5.521  -5.632  0.00  0.00     0.163 HD
ENDROOT
BRANCH   2   5
HETATM    5  C           1     -21.753  -7.877  -4.452  0.00  0.00     0.274 C 
BRANCH   5   6
HETATM    6  C           1     -20.809  -8.288  -3.330  0.00  0.00     0.044 C 
BRANCH   6   7
HETATM    7  C           1     -21.617  -8.823  -2.156  0.00  0.00     0.030 C 
BRANCH   7   8
HETATM    8  C           1     -21.413  -7.921  -0.945  0.00  0.00     0.230 C 
BRANCH   8   9
HETATM    9  N           1     -22.353  -6.754  -1.027  0.00  0.00    -0.079 N 
HETATM   10  H           1     -21.952  -6.029  -1.662  0.00  0.00     0.274 HD
HETATM   11  H           1     -23.274  -7.074  -1.400  0.00  0.00     0.274 HD
HETATM   12  H           1     -22.486  -6.348  -0.073  0.00  0.00     0.274 HD
ENDBRANCH   8   9
ENDBRANCH   7   8
ENDBRANCH   6   7
ENDBRANCH   5   6
BRANCH   5  13
HETATM   13  N           1     -21.302  -8.500  -5.739  0.00  0.00    -0.067 N 
HETATM   14  H           1     -20.514  -7.943  -6.139  0.00  0.00     0.275 HD
HETATM   15  H           1     -20.979  -9.478  -5.558  0.00  0.00     0.275 HD
HETATM   16  H           1     -22.098  -8.515  -6.416  0.00  0.00     0.275 HD
ENDBRANCH   5  13
ENDBRANCH   2   5
BRANCH   1  17
HETATM   17  C           1     -21.574  -5.536  -6.878  0.00  0.00     0.189 C 
BRANCH  17  18
HETATM   18  C           1     -21.934  -4.165  -7.434  0.00  0.00     0.074 C 
BRANCH  18  19
HETATM   19  C           1     -21.871  -4.198  -8.930  0.00  0.00    -0.056 A 
HETATM   20  C           1     -23.034  -4.405  -9.672  0.00  0.00     0.007 A 
HETATM   21  C           1     -22.976  -4.436 -11.065  0.00  0.00     0.001 A 
HETATM   22  C           1     -21.755  -4.260 -11.715  0.00  0.00     0.000 A 
HETATM   23  C           1     -20.593  -4.053 -10.974  0.00  0.00     0.001 A 
HETATM   24  C           1     -20.651  -4.022  -9.581  0.00  0.00     0.007 A 
ENDBRANCH  18  19
ENDBRANCH  17  18
BRANCH  17  25
HETATM   25  C           1     -20.101  -5.576  -6.552  0.00  0.00     0.197 C 
HETATM   26  O           1     -19.438  -6.611  -6.783  0.00  0.00    -0.646 OA
HETATM   27  O           1     -19.545  -4.576  -6.051  0.00  0.00    -0.646 OA
ENDBRANCH  17  25
ENDBRANCH   1  17
TORSDOF 10
ENDMDL
MODEL 3
REMARK VINA RESULT:      -6.2      2.627      6.580
REMARK  10 active torsions:
REMARK  status: ('A' for Active; 'I' for Inactive)
REMARK    1  A    between atoms: C_1  and  C_3 
REMARK    2  A    between atoms: C_2  and  C_14 
REMARK    3  A    between atoms: C_2  and  N_25 
REMARK    4  A    between atoms: C_3  and  C_12 
REMARK    5  A    between atoms: N_6  and  C_12 
REMARK       I    between atoms: N_6  and  C_9 
REMARK    6  A    between atoms: C_9  and  C_20 
REMARK    7  A    between atoms: C_12  and  C_22 
REMARK    8  A    between atoms: C_14  and  C_15 
REMARK    9  A    between atoms: C_15  and  C_20 
REMARK   10  A    between atoms: C_20  and  N_24 
ROOT
HETATM    1  N           1     -22.591  -6.559  -3.847  0.00  0.00    -0.344 N 
HETATM    2  C           1     -22.000  -6.434  -2.618  0.00  0.00     0.249 C 
HETATM    3  O           1     -21.698  -5.340  -2.202  0.00  0.00    -0.271 OA
HETATM    4  H           1     -23.599  -6.529  -3.930  0.00  0.00     0.163 HD
ENDROOT
BRANCH   2   5
HETATM    5  C           1     -21.726  -7.660  -1.784  0.00  0.00     0.274 C 
BRANCH   5   6
HETATM    6  C           1     -22.360  -7.492  -0.409  0.00  0.00     0.044 C 
BRANCH   6   7
HETATM    7  C           1     -22.456  -8.849   0.276  0.00  0.00     0.030 C 
BRANCH   7   8
HETATM    8  C           1     -22.966  -9.885  -0.718  0.00  0.00     0.230 C 
BRANCH   8   9
HETATM    9  N           1     -24.003 -10.745  -0.056  0.00  0.00    -0.079 N 
HETATM   10  H           1     -24.847 -10.168   0.160  0.00  0.00     0.274 HD
HETATM   11  H           1     -24.269 -11.525  -0.698  0.00  0.00     0.274 HD
HETATM   12  H           1     -23.613 -11.140   0.830  0.00  0.00     0.274 HD
ENDBRANCH   8   9
ENDBRANCH   7   8
ENDBRANCH   6   7
ENDBRANCH   5   6
BRANCH   5  13
HETATM   13  N           1     -20.245  -7.841  -1.632  0.00  0.00    -0.067 N 
HETATM   14  H           1     -19.887  -7.188  -0.899  0.00  0.00     0.275 HD
HETATM   15  H           1     -20.042  -8.827  -1.350  0.00  0.00     0.275 HD
HETATM   16  H           1     -19.775  -7.635  -2.542  0.00  0.00     0.275 HD
ENDBRANCH   5  13
ENDBRANCH   2   5
BRANCH   1  17
HETATM   17  C           1     -21.771  -6.735  -5.030  0.00  0.00     0.189 C 
BRANCH  17  18
HETATM   18  C           1     -20.823  -5.551  -5.170  0.00  0.00     0.074 C 
BRANCH  18  19
HETATM   19  C           1     -20.888  -5.020  -6.568  0.00  0.00    -0.056 A 
HETATM   20  C           1     -19.738  -4.997  -7.358  0.00  0.00     0.007 A 
HETATM   21  C           1     -19.798  -4.503  -8.661  0.00  0.00     0.001 A 
HETATM   22  C           1     -21.007  -4.033  -9.174  0.00  0.00     0.000 A 
HETATM   23  C           1     -22.156  -4.056  -8.384  0.00  0.00     0.001 A 
HETATM   24  C           1     -22.096  -4.550  -7.081  0.00  0.00     0.007 A 
ENDBRANCH  18  19
ENDBRANCH  17  18
BRANCH  17  25
HETATM   25  C           1     -20.970  -8.008  -4.902  0.00  0.00     0.197 C 
HETATM   26  O           1     -19.729  -7.955  -4.767  0.00  0.00    -0.646 OA
HETATM   27  O           1     -21.550  -9.115  -4.931  0.00  0.00    -0.646 OA
ENDBRANCH  17  25
ENDBRANCH   1  17
TORSDOF 10
ENDMDL
MODEL 4
REMARK VINA RESULT:      -6.1      2.831      4.633
REMARK  10 active torsions:
REMARK  status: ('A' for Active; 'I' for Inactive)
REMARK    1  A    between atoms: C_1  and  C_3 
REMARK    2  A    between atoms: C_2  and  C_14 
REMARK    3  A    between atoms: C_2  and  N_25 
REMARK    4  A    between atoms: C_3  and  C_12 
REMARK    5  A    between atoms: N_6  and  C_12 
REMARK       I    between atoms: N_6  and  C_9 
REMARK    6  A    between atoms: C_9  and  C_20 
REMARK    7  A    between atoms: C_12  and  C_22 
REMARK    8  A    between atoms: C_14  and  C_15 
REMARK    9  A    between atoms: C_15  and  C_20 
REMARK   10  A    between atoms: C_20  and  N_24 
ROOT
HETATM    1  N           1     -21.407  -5.827  -8.528  0.00  0.00    -0.344 N 
HETATM    2  C           1     -21.858  -4.919  -9.448  0.00  0.00     0.249 C 
HETATM    3  O           1     -21.071  -4.328 -10.148  0.00  0.00    -0.271 OA
HETATM    4  H           1     -21.296  -6.799  -8.787  0.00  0.00     0.163 HD
ENDROOT
BRANCH   2   5
HETATM    5  C           1     -23.338  -4.657  -9.587  0.00  0.00     0.274 C 
BRANCH   5   6
HETATM    6  C           1     -23.703  -4.577 -11.063  0.00  0.00     0.044 C 
BRANCH   6   7
HETATM    7  C           1     -23.984  -3.128 -11.438  0.00  0.00     0.030 C 
BRANCH   7   8
HETATM    8  C           1     -23.369  -2.827 -12.799  0.00  0.00     0.230 C 
BRANCH   8   9
HETATM    9  N           1     -22.042  -3.519 -12.913  0.00  0.00    -0.079 N 
HETATM   10  H           1     -22.195  -4.544 -13.043  0.00  0.00     0.274 HD
HETATM   11  H           1     -21.520  -3.138 -13.734  0.00  0.00     0.274 HD
HETATM   12  H           1     -21.488  -3.356 -12.042  0.00  0.00     0.274 HD
ENDBRANCH   8   9
ENDBRANCH   7   8
ENDBRANCH   6   7
ENDBRANCH   5   6
BRANCH   5  13
HETATM   13  N           1     -23.681  -3.361  -8.915  0.00  0.00    -0.067 N 
HETATM   14  H           1     -23.304  -3.363  -7.941  0.00  0.00     0.275 HD
HETATM   15  H           1     -23.258  -2.569  -9.451  0.00  0.00     0.275 HD
HETATM   16  H           1     -24.719  -3.249  -8.887  0.00  0.00     0.275 HD
ENDBRANCH   5  13
ENDBRANCH   2   5
BRANCH   1  17
HETATM   17  C           1     -21.087  -5.395  -7.181  0.00  0.00     0.189 C 
BRANCH  17  18
HETATM   18  C           1     -20.046  -6.332  -6.582  0.00  0.00     0.074 C 
BRANCH  18  19
HETATM   19  C           1     -20.490  -6.771  -5.222  0.00  0.00    -0.056 A 
HETATM   20  C           1     -20.195  -8.059  -4.775  0.00  0.00     0.007 A 
HETATM   21  C           1     -20.608  -8.469  -3.508  0.00  0.00     0.001 A 
HETATM   22  C           1     -21.315  -7.590  -2.687  0.00  0.00     0.000 A 
HETATM   23  C           1     -21.609  -6.302  -3.133  0.00  0.00     0.001 A 
HETATM   24  C           1     -21.196  -5.893  -4.401  0.00  0.00     0.007 A 
ENDBRANCH  18  19
ENDBRANCH  17  18
BRANCH  17  25
HETATM   25  C           1     -20.537  -3.990  -7.221  0.00  0.00     0.197 C 
HETATM   26  O           1     -21.282  -3.019  -6.967  0.00  0.00    -0.646 OA
HETATM   27  O           1     -19.336  -3.798  -7.509  0.00  0.00    -0.646 OA
ENDBRANCH  17  25
ENDBRANCH   1  17
TORSDOF 10
ENDMDL
MODEL 5
REMARK VINA RESULT:      -6.1      3.367      4.583
REMARK  10 active torsions:
REMARK  status: ('A' for Active; 'I' for Inactive)
REMARK    1  A    between atoms: C_1  and  C_3 
REMARK    2  A    between atoms: C_2  and  C_14 
REMARK    3  A    between atoms: C_2  and  N_25 
REMARK    4  A    between atoms: C_3  and  C_12 
REMARK    5  A    between atoms: N_6  and  C_12 
REMARK       I    between atoms: N_6  and  C_9 
REMARK    6  A    between atoms: C_9  and  C_20 
REMARK    7  A    between atoms: C_12  and  C_22 
REMARK    8  A    between atoms: C_14  and  C_15 
REMARK    9  A    between atoms: C_15  and  C_20 
REMARK   10  A    between atoms: C_20  and  N_24 
ROOT
HETATM    1  N           1     -21.090  -7.544  -1.889  0.00  0.00    -0.344 N 
HETATM    2  C           1     -21.698  -6.667  -2.748  0.00  0.00     0.249 C 
HETATM    3  O           1     -22.129  -5.618  -2.333  0.00  0.00    -0.271 OA
HETATM    4  H           1     -20.092  -7.488  -1.731  0.00  0.00     0.163 HD
ENDROOT
BRANCH   2   5
HETATM    5  C           1     -21.829  -7.012  -4.210  0.00  0.00     0.274 C 
BRANCH   5   6
HETATM    6  C           1     -20.531  -6.675  -4.931  0.00  0.00     0.044 C 
BRANCH   6   7
HETATM    7  C           1     -20.493  -5.184  -5.239  0.00  0.00     0.030 C 
BRANCH   7   8
HETATM    8  C           1     -20.010  -4.972  -6.667  0.00  0.00     0.230 C 
BRANCH   8   9
HETATM    9  N           1     -19.933  -6.295  -7.372  0.00  0.00    -0.079 N 
HETATM   10  H           1     -18.934  -6.591  -7.448  0.00  0.00     0.274 HD
HETATM   11  H           1     -20.468  -7.009  -6.830  0.00  0.00     0.274 HD
HETATM   12  H           1     -20.344  -6.204  -8.329  0.00  0.00     0.274 HD
ENDBRANCH   8   9
ENDBRANCH   7   8
ENDBRANCH   6   7
ENDBRANCH   5   6
BRANCH   5  13
HETATM   13  N           1     -22.954  -6.223  -4.811  0.00  0.00    -0.067 N 
HETATM   14  H           1     -23.689  -6.055  -4.086  0.00  0.00     0.275 HD
HETATM   15  H           1     -22.590  -5.305  -5.155  0.00  0.00     0.275 HD
HETATM   16  H           1     -23.367  -6.756  -5.609  0.00  0.00     0.275 HD
ENDBRANCH   5  13
ENDBRANCH   2   5
BRANCH   1  17
HETATM   17  C           1     -21.877  -8.553  -1.207  0.00  0.00     0.189 C 
BRANCH  17  18
HETATM   18  C           1     -21.031  -9.802  -1.001  0.00  0.00     0.074 C 
BRANCH  18  19
HETATM   19  C           1     -21.898 -10.919  -0.511  0.00  0.00    -0.056 A 
HETATM   20  C           1     -21.476 -11.712   0.557  0.00  0.00     0.007 A 
HETATM   21  C           1     -22.283 -12.753   1.014  0.00  0.00     0.001 A 
HETATM   22  C           1     -23.513 -13.001   0.403  0.00  0.00     0.000 A 
HETATM   23  C           1     -23.935 -12.209  -0.663  0.00  0.00     0.001 A 
HETATM   24  C           1     -23.128 -11.168  -1.120  0.00  0.00     0.007 A 
ENDBRANCH  18  19
ENDBRANCH  17  18
BRANCH  17  25
HETATM   25  C           1     -22.323  -8.020   0.134  0.00  0.00     0.197 C 
HETATM   26  O           1     -23.480  -7.568   0.273  0.00  0.00    -0.646 OA
HETATM   27  O           1     -21.534  -8.030   1.103  0.00  0.00    -0.646 OA
ENDBRANCH  17  25
ENDBRANCH   1  17
TORSDOF 10
ENDMDL
MODEL 6
REMARK VINA RESULT:      -6.1      2.598      5.604
REMARK  10 active torsions:
REMARK  status: ('A' for Active; 'I' for Inactive)
REMARK    1  A    between atoms: C_1  and  C_3 
REMARK    2  A    between atoms: C_2  and  C_14 
REMARK    3  A    between atoms: C_2  and  N_25 
REMARK    4  A    between atoms: C_3  and  C_12 
REMARK    5  A    between atoms: N_6  and  C_12 
REMARK       I    between atoms: N_6  and  C_9 
REMARK    6  A    between atoms: C_9  and  C_20 
REMARK    7  A    between atoms: C_12  and  C_22 
REMARK    8  A    between atoms: C_14  and  C_15 
REMARK    9  A    between atoms: C_15  and  C_20 
REMARK   10  A    between atoms: C_20  and  N_24 
ROOT
HETATM    1  N           1     -19.774  -8.223  -4.590  0.00  0.00    -0.344 N 
HETATM    2  C           1     -19.506  -9.544  -4.829  0.00  0.00     0.249 C 
HETATM    3  O           1     -19.649  -9.999  -5.939  0.00  0.00    -0.271 OA
HETATM    4  H           1     -19.042  -7.532  -4.692  0.00  0.00     0.163 HD
ENDROOT
BRANCH   2   5
HETATM    5  C           1     -19.032 -10.433  -3.705  0.00  0.00     0.274 C 
BRANCH   5   6
HETATM    6  C           1     -18.058  -9.662  -2.823  0.00  0.00     0.044 C 
BRANCH   6   7
HETATM    7  C           1     -16.657  -9.757  -3.411  0.00  0.00     0.030 C 
BRANCH   7   8
HETATM    8  C           1     -15.713 -10.360  -2.379  0.00  0.00     0.230 C 
BRANCH   8   9
HETATM    9  N           1     -15.098 -11.612  -2.933  0.00  0.00    -0.079 N 
HETATM   10  H           1     -15.825 -12.358  -2.996  0.00  0.00     0.274 HD
HETATM   11  H           1     -14.713 -11.419  -3.885  0.00  0.00     0.274 HD
HETATM   12  H           1     -14.326 -11.929  -2.304  0.00  0.00     0.274 HD
ENDBRANCH   8   9
ENDBRANCH   7   8
ENDBRANCH   6   7
ENDBRANCH   5   6
BRANCH   5  13
HETATM   13  N           1     -18.344 -11.636  -4.276  0.00  0.00    -0.067 N 
HETATM   14  H           1     -18.910 -12.020  -5.066  0.00  0.00     0.275 HD
HETATM   15  H           1     -17.398 -11.363  -4.627  0.00  0.00     0.275 HD
HETATM   16  H           1     -18.243 -12.365  -3.534  0.00  0.00     0.275 HD
ENDBRANCH   5  13
ENDBRANCH   2   5
BRANCH   1  17
HETATM   17  C           1     -21.107  -7.815  -4.192  0.00  0.00     0.189 C 
BRANCH  17  18
HETATM   18  C           1     -21.027  -7.014  -2.899  0.00  0.00     0.074 C 
BRANCH  18  19
HETATM   19  C           1     -21.742  -7.749  -1.809  0.00  0.00    -0.056 A 
HETATM   20  C           1     -22.340  -7.041  -0.767  0.00  0.00     0.007 A 
HETATM   21  C           1     -23.008  -7.725   0.249  0.00  0.00     0.001 A 
HETATM   22  C           1     -23.077  -9.118   0.221  0.00  0.00     0.000 A 
HETATM   23  C           1     -22.480  -9.827  -0.821  0.00  0.00     0.001 A 
HETATM   24  C           1     -21.812  -9.142  -1.836  0.00  0.00     0.007 A 
ENDBRANCH  18  19
ENDBRANCH  17  18
BRANCH  17  25
HETATM   25  C           1     -21.715  -6.960  -5.277  0.00  0.00     0.197 C 
HETATM   26  O           1     -22.654  -6.180  -5.006  0.00  0.00    -0.646 OA
HETATM   27  O           1     -21.280  -7.032  -6.447  0.00  0.00    -0.646 OA
ENDBRANCH  17  25
ENDBRANCH   1  17
TORSDOF 10
ENDMDL
MODEL 7
REMARK VINA RESULT:      -6.0      2.987      8.055
REMARK  10 active torsions:
REMARK  status: ('A' for Active; 'I' for Inactive)
REMARK    1  A    between atoms: C_1  and  C_3 
REMARK    2  A    between atoms: C_2  and  C_14 
REMARK    3  A    between atoms: C_2  and  N_25 
REMARK    4  A    between atoms: C_3  and  C_12 
REMARK    5  A    between atoms: N_6  and  C_12 
REMARK       I    between atoms: N_6  and  C_9 
REMARK    6  A    between atoms: C_9  and  C_20 
REMARK    7  A    between atoms: C_12  and  C_22 
REMARK    8  A    between atoms: C_14  and  C_15 
REMARK    9  A    between atoms: C_15  and  C_20 
REMARK   10  A    between atoms: C_20  and  N_24 
ROOT
HETATM    1  N           1     -21.124  -3.659  -7.380  0.00  0.00    -0.344 N 
HETATM    2  C           1     -20.235  -4.698  -7.314  0.00  0.00     0.249 C 
HETATM    3  O           1     -19.166  -4.614  -7.869  0.00  0.00    -0.271 OA
HETATM    4  H           1     -21.104  -2.930  -6.679  0.00  0.00     0.163 HD
ENDROOT
BRANCH   2   5
HETATM    5  C           1     -20.592  -5.949  -6.549  0.00  0.00     0.274 C 
BRANCH   5   6
HETATM    6  C           1     -20.744  -5.614  -5.071  0.00  0.00     0.044 C 
BRANCH   6   7
HETATM    7  C           1     -21.786  -6.532  -4.447  0.00  0.00     0.030 C 
BRANCH   7   8
HETATM    8  C           1     -21.461  -6.742  -2.973  0.00  0.00     0.230 C 
BRANCH   8   9
HETATM    9  N           1     -22.344  -5.864  -2.136  0.00  0.00    -0.079 N 
HETATM   10  H           1     -23.194  -6.398  -1.848  0.00  0.00     0.274 HD
HETATM   11  H           1     -21.822  -5.555  -1.285  0.00  0.00     0.274 HD
HETATM   12  H           1     -22.630  -5.026  -2.692  0.00  0.00     0.274 HD
ENDBRANCH   8   9
ENDBRANCH   7   8
ENDBRANCH   6   7
ENDBRANCH   5   6
BRANCH   5  13
HETATM   13  N           1     -19.504  -6.967  -6.721  0.00  0.00    -0.067 N 
HETATM   14  H           1     -19.319  -7.111  -7.740  0.00  0.00     0.275 HD
HETATM   15  H           1     -18.632  -6.627  -6.254  0.00  0.00     0.275 HD
HETATM   16  H           1     -19.802  -7.870  -6.290  0.00  0.00     0.275 HD
ENDBRANCH   5  13
ENDBRANCH   2   5
BRANCH   1  17
HETATM   17  C           1     -22.095  -3.603  -8.456  0.00  0.00     0.189 C 
BRANCH  17  18
HETATM   18  C           1     -21.652  -4.524  -9.586  0.00  0.00     0.074 C 
BRANCH  18  19
HETATM   19  C           1     -22.284  -4.082 -10.869  0.00  0.00    -0.056 A 
HETATM   20  C           1     -23.249  -4.881 -11.482  0.00  0.00     0.007 A 
HETATM   21  C           1     -23.839  -4.469 -12.677  0.00  0.00     0.001 A 
HETATM   22  C           1     -23.463  -3.259 -13.259  0.00  0.00     0.000 A 
HETATM   23  C           1     -22.499  -2.459 -12.646  0.00  0.00     0.001 A 
HETATM   24  C           1     -21.909  -2.871 -11.451  0.00  0.00     0.007 A 
ENDBRANCH  18  19
ENDBRANCH  17  18
BRANCH  17  25
HETATM   25  C           1     -23.442  -4.050  -7.941  0.00  0.00     0.197 C 
HETATM   26  O           1     -24.465  -3.884  -8.640  0.00  0.00    -0.646 OA
HETATM   27  O           1     -23.534  -4.585  -6.815  0.00  0.00    -0.646 OA
ENDBRANCH  17  25
ENDBRANCH   1  17
TORSDOF 10
ENDMDL
MODEL 8
REMARK VINA RESULT:      -6.0      3.625      5.136
REMARK  10 active torsions:
REMARK  status: ('A' for Active; 'I' for Inactive)
REMARK    1  A    between atoms: C_1  and  C_3 
REMARK    2  A    between atoms: C_2  and  C_14 
REMARK    3  A    between atoms: C_2  and  N_25 
REMARK    4  A    between atoms: C_3  and  C_12 
REMARK    5  A    between atoms: N_6  and  C_12 
REMARK       I    between atoms: N_6  and  C_9 
REMARK    6  A    between atoms: C_9  and  C_20 
REMARK    7  A    between atoms: C_12  and  C_22 
REMARK    8  A    between atoms: C_14  and  C_15 
REMARK    9  A    between atoms: C_15  and  C_20 
REMARK   10  A    between atoms: C_20  and  N_24 
ROOT
HETATM    1  N           1     -19.549 -11.420  -1.702  0.00  0.00    -0.344 N 
HETATM    2  C           1     -18.848 -10.587  -2.532  0.00  0.00     0.249 C 
HETATM    3  O           1     -17.770 -10.927  -2.959  0.00  0.00    -0.271 OA
HETATM    4  H           1     -20.198 -12.092  -2.090  0.00  0.00     0.163 HD
ENDROOT
BRANCH   2   5
HETATM    5  C           1     -19.421  -9.244  -2.912  0.00  0.00     0.274 C 
BRANCH   5   6
HETATM    6  C           1     -20.942  -9.319  -2.901  0.00  0.00     0.044 C 
BRANCH   6   7
HETATM    7  C           1     -21.520  -7.982  -3.345  0.00  0.00     0.030 C 
BRANCH   7   8
HETATM    8  C           1     -21.226  -6.925  -2.289  0.00  0.00     0.230 C 
BRANCH   8   9
HETATM    9  N           1     -22.368  -5.954  -2.220  0.00  0.00    -0.079 N 
HETATM   10  H           1     -22.406  -5.529  -1.267  0.00  0.00     0.274 HD
HETATM   11  H           1     -22.228  -5.201  -2.931  0.00  0.00     0.274 HD
HETATM   12  H           1     -23.263  -6.455  -2.416  0.00  0.00     0.274 HD
ENDBRANCH   8   9
ENDBRANCH   7   8
ENDBRANCH   6   7
ENDBRANCH   5   6
BRANCH   5  13
HETATM   13  N           1     -18.949  -8.870  -4.285  0.00  0.00    -0.067 N 
HETATM   14  H           1     -17.921  -8.685  -4.263  0.00  0.00     0.275 HD
HETATM   15  H           1     -19.147  -9.656  -4.947  0.00  0.00     0.275 HD
HETATM   16  H           1     -19.451  -8.011  -4.604  0.00  0.00     0.275 HD
ENDBRANCH   5  13
ENDBRANCH   2   5
BRANCH   1  17
HETATM   17  C           1     -19.359 -11.341  -0.266  0.00  0.00     0.189 C 
BRANCH  17  18
HETATM   18  C           1     -20.670 -11.668   0.437  0.00  0.00     0.074 C 
BRANCH  18  19
HETATM   19  C           1     -21.525 -10.442   0.498  0.00  0.00    -0.056 A 
HETATM   20  C           1     -22.836 -10.482   0.021  0.00  0.00     0.007 A 
HETATM   21  C           1     -23.634  -9.340   0.078  0.00  0.00     0.001 A 
HETATM   22  C           1     -23.122  -8.157   0.611  0.00  0.00     0.000 A 
HETATM   23  C           1     -21.812  -8.117   1.088  0.00  0.00     0.001 A 
HETATM   24  C           1     -21.014  -9.259   1.031  0.00  0.00     0.007 A 
ENDBRANCH  18  19
ENDBRANCH  17  18
BRANCH  17  25
HETATM   25  C           1     -18.300 -12.330   0.156  0.00  0.00     0.197 C 
HETATM   26  O           1     -17.130 -11.942   0.365  0.00  0.00    -0.646 OA
HETATM   27  O           1     -18.594 -13.537   0.297  0.00  0.00    -0.646 OA
ENDBRANCH  17  25
ENDBRANCH   1  17
TORSDOF 10
ENDMDL
MODEL 9
REMARK VINA RESULT:      -5.9      2.826      6.339
REMARK  10 active torsions:
REMARK  status: ('A' for Active; 'I' for Inactive)
REMARK    1  A    between atoms: C_1  and  C_3 
REMARK    2  A    between atoms: C_2  and  C_14 
REMARK    3  A    between atoms: C_2  and  N_25 
REMARK    4  A    between atoms: C_3  and  C_12 
REMARK    5  A    between atoms: N_6  and  C_12 
REMARK       I    between atoms: N_6  and  C_9 
REMARK    6  A    between atoms: C_9  and  C_20 
REMARK    7  A    between atoms: C_12  and  C_22 
REMARK    8  A    between atoms: C_14  and  C_15 
REMARK    9  A    between atoms: C_15  and  C_20 
REMARK   10  A    between atoms: C_20  and  N_24 
ROOT
HETATM    1  N           1     -21.732  -7.529  -3.753  0.00  0.00    -0.344 N 
HETATM    2  C           1     -21.825  -6.968  -2.508  0.00  0.00     0.249 C 
HETATM    3  O           1     -22.141  -5.807  -2.391  0.00  0.00    -0.271 OA
HETATM    4  H           1     -22.541  -7.971  -4.171  0.00  0.00     0.163 HD
ENDROOT
BRANCH   2   5
HETATM    5  C           1     -21.533  -7.797  -1.282  0.00  0.00     0.274 C 
BRANCH   5   6
HETATM    6  C           1     -21.821  -9.263  -1.580  0.00  0.00     0.044 C 
BRANCH   6   7
HETATM    7  C           1     -22.645  -9.859  -0.446  0.00  0.00     0.030 C 
BRANCH   7   8
HETATM    8  C           1     -21.893 -11.034   0.165  0.00  0.00     0.230 C 
BRANCH   8   9
HETATM    9  N           1     -20.750 -10.522   0.992  0.00  0.00    -0.079 N 
HETATM   10  H           1     -21.000  -9.591   1.392  0.00  0.00     0.274 HD
HETATM   11  H           1     -20.553 -11.193   1.767  0.00  0.00     0.274 HD
HETATM   12  H           1     -19.901 -10.427   0.390  0.00  0.00     0.274 HD
ENDBRANCH   8   9
ENDBRANCH   7   8
ENDBRANCH   6   7
ENDBRANCH   5   6
BRANCH   5  13
HETATM   13  N           1     -22.401  -7.337  -0.149  0.00  0.00    -0.067 N 
HETATM   14  H           1     -21.907  -6.588   0.387  0.00  0.00     0.275 HD
HETATM   15  H           1     -23.298  -6.959  -0.529  0.00  0.00     0.275 HD
HETATM   16  H           1     -22.602  -8.144   0.484  0.00  0.00     0.275 HD
ENDBRANCH   5  13
ENDBRANCH   2   5
BRANCH   1  17
HETATM   17  C           1     -20.474  -7.490  -4.473  0.00  0.00     0.189 C 
BRANCH  17  18
HETATM   18  C           1     -20.171  -8.872  -5.038  0.00  0.00     0.074 C 
BRANCH  18  19
HETATM   19  C           1     -18.760  -9.249  -4.709  0.00  0.00    -0.056 A 
HETATM   20  C           1     -18.334  -9.262  -3.381  0.00  0.00     0.007 A 
HETATM   21  C           1     -17.020  -9.614  -3.074  0.00  0.00     0.001 A 
HETATM   22  C           1     -16.132  -9.952  -4.095  0.00  0.00     0.000 A 
HETATM   23  C           1     -16.558  -9.939  -5.423  0.00  0.00     0.001 A 
HETATM   24  C           1     -17.872  -9.588  -5.730  0.00  0.00     0.007 A 
ENDBRANCH  18  19
ENDBRANCH  17  18
BRANCH  17  25
HETATM   25  C           1     -20.573  -6.495  -5.603  0.00  0.00     0.197 C 
HETATM   26  O           1     -20.681  -6.896  -6.782  0.00  0.00    -0.646 OA
HETATM   27  O           1     -20.547  -5.269  -5.360  0.00  0.00    -0.646 OA
ENDBRANCH  17  25
ENDBRANCH   1  17
TORSDOF 10
ENDMDL
