MODEL 1
REMARK VINA RESULT:      -8.7      0.000      0.000
REMARK  9 active torsions:
REMARK  status: ('A' for Active; 'I' for Inactive)
REMARK    1  A    between atoms: N_6  and  C_13 
REMARK    2  A    between atoms: C_8  and  C_17 
REMARK    3  A    between atoms: C_8  and  C_10 
REMARK    4  A    between atoms: C_10  and  C_27 
REMARK    5  A    between atoms: N_11  and  C_27 
REMARK       I    between atoms: N_11  and  C_29 
REMARK    6  A    between atoms: C_12  and  C_13 
REMARK    7  A    between atoms: C_12  and  C_23 
REMARK    8  A    between atoms: C_13  and  C_29 
REMARK    9  A    between atoms: C_25  and  C_27 
ROOT
HETATM    1  C           1     -21.156  -5.812  -7.142  0.00  0.00     0.278 C 
ENDROOT
BRANCH   1   2
HETATM    2  N           1     -19.705  -5.926  -7.501  0.00  0.00    -0.066 N 
HETATM    3  H           1     -19.207  -5.049  -7.227  0.00  0.00     0.275 HD
HETATM    4  H           1     -19.283  -6.737  -6.995  0.00  0.00     0.275 HD
HETATM    5  H           1     -19.613  -6.072  -8.532  0.00  0.00     0.275 HD
ENDBRANCH   1   2
BRANCH   1   6
HETATM    6  C           1     -21.290  -5.519  -5.653  0.00  0.00     0.083 C 
BRANCH   6   7
HETATM    7  C           1     -21.296  -6.806  -4.889  0.00  0.00    -0.028 A 
HETATM    8  C           1     -21.025  -8.054  -5.399  0.00  0.00     0.096 A 
HETATM    9  N           1     -21.138  -8.959  -4.377  0.00  0.00    -0.365 N 
HETATM   10  H           1     -20.986  -9.993  -4.471  0.00  0.00     0.165 HD
HETATM   11  C           1     -21.480  -8.316  -3.209  0.00  0.00     0.042 A 
HETATM   12  C           1     -21.702  -8.829  -1.925  0.00  0.00     0.030 A 
HETATM   13  C           1     -21.587  -6.957  -3.505  0.00  0.00    -0.002 A 
HETATM   14  C           1     -22.043  -7.922  -0.916  0.00  0.00     0.002 A 
HETATM   15  C           1     -22.156  -6.560  -1.183  0.00  0.00     0.001 A 
HETATM   16  C           1     -21.931  -6.063  -2.473  0.00  0.00     0.014 A 
ENDBRANCH   6   7
ENDBRANCH   1   6
BRANCH   1  17
HETATM   17  C           1     -21.784  -4.691  -7.934  0.00  0.00     0.249 C 
HETATM   18  O           1     -21.912  -3.598  -7.438  0.00  0.00    -0.271 OA
HETATM   19  N           1     -22.208  -4.915  -9.217  0.00  0.00    -0.345 N 
HETATM   20  H           1     -22.102  -5.831  -9.634  0.00  0.00     0.163 HD
BRANCH  19  21
HETATM   21  C           1     -22.811  -3.838  -9.978  0.00  0.00     0.186 C 
BRANCH  21  22
HETATM   22  C           1     -22.521  -4.037 -11.459  0.00  0.00     0.046 C 
BRANCH  22  23
HETATM   23  C           1     -22.729  -2.723 -12.200  0.00  0.00     0.116 C 
BRANCH  23  24
HETATM   24  C           1     -23.759  -2.914 -13.287  0.00  0.00     0.172 C 
HETATM   25  O           1     -23.398  -2.990 -14.482  0.00  0.00    -0.648 OA
HETATM   26  O           1     -24.970  -2.995 -12.993  0.00  0.00    -0.648 OA
ENDBRANCH  23  24
ENDBRANCH  22  23
ENDBRANCH  21  22
BRANCH  21  27
HETATM   27  C           1     -24.304  -3.839  -9.754  0.00  0.00     0.196 C 
HETATM   28  O           1     -24.898  -2.769  -9.500  0.00  0.00    -0.646 OA
HETATM   29  O           1     -24.945  -4.909  -9.824  0.00  0.00    -0.646 OA
ENDBRANCH  21  27
ENDBRANCH  19  21
ENDBRANCH   1  17
TORSDOF 9
ENDMDL
MODEL 2
REMARK VINA RESULT:      -8.2      3.860      8.710
REMARK  9 active torsions:
REMARK  status: ('A' for Active; 'I' for Inactive)
REMARK    1  A    between atoms: N_6  and  C_13 
REMARK    2  A    between atoms: C_8  and  C_17 
REMARK    3  A    between atoms: C_8  and  C_10 
REMARK    4  A    between atoms: C_10  and  C_27 
REMARK    5  A    between atoms: N_11  and  C_27 
REMARK       I    between atoms: N_11  and  C_29 
REMARK    6  A    between atoms: C_12  and  C_13 
REMARK    7  A    between atoms: C_12  and  C_23 
REMARK    8  A    between atoms: C_13  and  C_29 
REMARK    9  A    between atoms: C_25  and  C_27 
ROOT
HETATM    1  C           1     -20.872  -5.504  -6.156  0.00  0.00     0.278 C 
ENDROOT
BRANCH   1   2
HETATM    2  N           1     -20.107  -4.427  -5.445  0.00  0.00    -0.066 N 
HETATM    3  H           1     -20.117  -4.612  -4.416  0.00  0.00     0.275 HD
HETATM    4  H           1     -19.119  -4.418  -5.786  0.00  0.00     0.275 HD
HETATM    5  H           1     -20.551  -3.501  -5.637  0.00  0.00     0.275 HD
ENDBRANCH   1   2
BRANCH   1   6
HETATM    6  C           1     -20.700  -5.341  -7.660  0.00  0.00     0.083 C 
BRANCH   6   7
HETATM    7  C           1     -21.921  -4.695  -8.235  0.00  0.00    -0.028 A 
HETATM    8  C           1     -23.091  -4.427  -7.562  0.00  0.00     0.096 A 
HETATM    9  N           1     -23.956  -3.835  -8.444  0.00  0.00    -0.365 N 
HETATM   10  H           1     -24.929  -3.519  -8.210  0.00  0.00     0.165 HD
HETATM   11  C           1     -23.365  -3.715  -9.682  0.00  0.00     0.042 A 
HETATM   12  C           1     -23.865  -3.179 -10.875  0.00  0.00     0.030 A 
HETATM   13  C           1     -22.081  -4.251  -9.577  0.00  0.00    -0.002 A 
HETATM   14  C           1     -23.024  -3.193 -11.993  0.00  0.00     0.002 A 
HETATM   15  C           1     -21.737  -3.721 -11.917  0.00  0.00     0.001 A 
HETATM   16  C           1     -21.252  -4.254 -10.716  0.00  0.00     0.014 A 
ENDBRANCH   6   7
ENDBRANCH   1   6
BRANCH   1  17
HETATM   17  C           1     -20.348  -6.855  -5.732  0.00  0.00     0.249 C 
HETATM   18  O           1     -19.510  -7.414  -6.398  0.00  0.00    -0.271 OA
HETATM   19  N           1     -20.823  -7.445  -4.592  0.00  0.00    -0.345 N 
HETATM   20  H           1     -21.526  -6.977  -4.033  0.00  0.00     0.163 HD
BRANCH  19  21
HETATM   21  C           1     -20.320  -8.743  -4.185  0.00  0.00     0.186 C 
BRANCH  21  22
HETATM   22  C           1     -20.268  -8.815  -2.666  0.00  0.00     0.046 C 
BRANCH  22  23
HETATM   23  C           1     -20.797  -7.514  -2.076  0.00  0.00     0.116 C 
BRANCH  23  24
HETATM   24  C           1     -21.982  -7.807  -1.189  0.00  0.00     0.172 C 
HETATM   25  O           1     -22.254  -8.988  -0.880  0.00  0.00    -0.648 OA
HETATM   26  O           1     -22.691  -6.870  -0.764  0.00  0.00    -0.648 OA
ENDBRANCH  23  24
ENDBRANCH  22  23
ENDBRANCH  21  22
BRANCH  21  27
HETATM   27  C           1     -21.237  -9.823  -4.707  0.00  0.00     0.196 C 
HETATM   28  O           1     -22.154 -10.267  -3.983  0.00  0.00    -0.646 OA
HETATM   29  O           1     -21.078 -10.273  -5.861  0.00  0.00    -0.646 OA
ENDBRANCH  21  27
ENDBRANCH  19  21
ENDBRANCH   1  17
TORSDOF 9
ENDMDL
MODEL 3
REMARK VINA RESULT:      -7.9      3.614      8.898
REMARK  9 active torsions:
REMARK  status: ('A' for Active; 'I' for Inactive)
REMARK    1  A    between atoms: N_6  and  C_13 
REMARK    2  A    between atoms: C_8  and  C_17 
REMARK    3  A    between atoms: C_8  and  C_10 
REMARK    4  A    between atoms: C_10  and  C_27 
REMARK    5  A    between atoms: N_11  and  C_27 
REMARK       I    between atoms: N_11  and  C_29 
REMARK    6  A    between atoms: C_12  and  C_13 
REMARK    7  A    between atoms: C_12  and  C_23 
REMARK    8  A    between atoms: C_13  and  C_29 
REMARK    9  A    between atoms: C_25  and  C_27 
ROOT
HETATM    1  C           1     -22.133  -5.137  -6.848  0.00  0.00     0.278 C 
ENDROOT
BRANCH   1   2
HETATM    2  N           1     -23.544  -4.901  -6.397  0.00  0.00    -0.066 N 
HETATM    3  H           1     -24.132  -4.630  -7.217  0.00  0.00     0.275 HD
HETATM    4  H           1     -23.925  -5.776  -5.970  0.00  0.00     0.275 HD
HETATM    5  H           1     -23.558  -4.133  -5.689  0.00  0.00     0.275 HD
ENDBRANCH   1   2
BRANCH   1   6
HETATM    6  C           1     -21.541  -3.835  -7.369  0.00  0.00     0.083 C 
BRANCH   6   7
HETATM    7  C           1     -21.339  -3.934  -8.849  0.00  0.00    -0.028 A 
HETATM    8  C           1     -20.158  -4.229  -9.488  0.00  0.00     0.096 A 
HETATM    9  N           1     -20.398  -4.223 -10.837  0.00  0.00    -0.365 N 
HETATM   10  H           1     -19.678  -4.415 -11.576  0.00  0.00     0.165 HD
HETATM   11  C           1     -21.719  -3.925 -11.084  0.00  0.00     0.042 A 
HETATM   12  C           1     -22.409  -3.808 -12.297  0.00  0.00     0.030 A 
HETATM   13  C           1     -22.335  -3.739  -9.846  0.00  0.00    -0.002 A 
HETATM   14  C           1     -23.770  -3.491 -12.237  0.00  0.00     0.002 A 
HETATM   15  C           1     -24.411  -3.299 -11.015  0.00  0.00     0.001 A 
HETATM   16  C           1     -23.706  -3.420  -9.812  0.00  0.00     0.014 A 
ENDBRANCH   6   7
ENDBRANCH   1   6
BRANCH   1  17
HETATM   17  C           1     -21.310  -5.634  -5.684  0.00  0.00     0.249 C 
HETATM   18  O           1     -20.398  -4.965  -5.260  0.00  0.00    -0.271 OA
HETATM   19  N           1     -21.598  -6.843  -5.109  0.00  0.00    -0.345 N 
HETATM   20  H           1     -22.362  -7.404  -5.464  0.00  0.00     0.163 HD
BRANCH  19  21
HETATM   21  C           1     -20.808  -7.320  -3.991  0.00  0.00     0.186 C 
BRANCH  21  22
HETATM   22  C           1     -21.732  -7.841  -2.900  0.00  0.00     0.046 C 
BRANCH  22  23
HETATM   23  C           1     -21.860  -6.796  -1.799  0.00  0.00     0.116 C 
BRANCH  23  24
HETATM   24  C           1     -22.167  -7.478  -0.488  0.00  0.00     0.172 C 
HETATM   25  O           1     -23.326  -7.439  -0.021  0.00  0.00    -0.648 OA
HETATM   26  O           1     -21.263  -8.080   0.129  0.00  0.00    -0.648 OA
ENDBRANCH  23  24
ENDBRANCH  22  23
ENDBRANCH  21  22
BRANCH  21  27
HETATM   27  C           1     -19.902  -8.435  -4.455  0.00  0.00     0.196 C 
HETATM   28  O           1     -19.035  -8.897  -3.683  0.00  0.00    -0.646 OA
HETATM   29  O           1     -20.019  -8.895  -5.611  0.00  0.00    -0.646 OA
ENDBRANCH  21  27
ENDBRANCH  19  21
ENDBRANCH   1  17
TORSDOF 9
ENDMDL
MODEL 4
REMARK VINA RESULT:      -7.8      3.538      8.436
REMARK  9 active torsions:
REMARK  status: ('A' for Active; 'I' for Inactive)
REMARK    1  A    between atoms: N_6  and  C_13 
REMARK    2  A    between atoms: C_8  and  C_17 
REMARK    3  A    between atoms: C_8  and  C_10 
REMARK    4  A    between atoms: C_10  and  C_27 
REMARK    5  A    between atoms: N_11  and  C_27 
REMARK       I    between atoms: N_11  and  C_29 
REMARK    6  A    between atoms: C_12  and  C_13 
REMARK    7  A    between atoms: C_12  and  C_23 
REMARK    8  A    between atoms: C_13  and  C_29 
REMARK    9  A    between atoms: C_25  and  C_27 
ROOT
HETATM    1  C           1     -21.127  -5.061  -5.984  0.00  0.00     0.278 C 
ENDROOT
BRANCH   1   2
HETATM    2  N           1     -19.757  -4.591  -5.596  0.00  0.00    -0.066 N 
HETATM    3  H           1     -19.626  -4.710  -4.566  0.00  0.00     0.275 HD
HETATM    4  H           1     -19.038  -5.153  -6.105  0.00  0.00     0.275 HD
HETATM    5  H           1     -19.652  -3.581  -5.846  0.00  0.00     0.275 HD
ENDBRANCH   1   2
BRANCH   1   6
HETATM    6  C           1     -21.118  -5.504  -7.441  0.00  0.00     0.083 C 
BRANCH   6   7
HETATM    7  C           1     -22.157  -4.741  -8.202  0.00  0.00    -0.028 A 
HETATM    8  C           1     -23.386  -4.347  -7.725  0.00  0.00     0.096 A 
HETATM    9  N           1     -24.031  -3.677  -8.731  0.00  0.00    -0.365 N 
HETATM   10  H           1     -24.991  -3.260  -8.654  0.00  0.00     0.165 HD
HETATM   11  C           1     -23.240  -3.633  -9.856  0.00  0.00     0.042 A 
HETATM   12  C           1     -23.483  -3.061 -11.111  0.00  0.00     0.030 A 
HETATM   13  C           1     -22.053  -4.297  -9.549  0.00  0.00    -0.002 A 
HETATM   14  C           1     -22.479  -3.173 -12.078  0.00  0.00     0.002 A 
HETATM   15  C           1     -21.283  -3.831 -11.799  0.00  0.00     0.001 A 
HETATM   16  C           1     -21.056  -4.398 -10.539  0.00  0.00     0.014 A 
ENDBRANCH   6   7
ENDBRANCH   1   6
BRANCH   1  17
HETATM   17  C           1     -21.528  -6.222  -5.107  0.00  0.00     0.249 C 
HETATM   18  O           1     -22.315  -7.043  -5.514  0.00  0.00    -0.271 OA
HETATM   19  N           1     -20.998  -6.344  -3.851  0.00  0.00    -0.345 N 
HETATM   20  H           1     -20.338  -5.657  -3.509  0.00  0.00     0.163 HD
BRANCH  19  21
HETATM   21  C           1     -21.383  -7.460  -3.008  0.00  0.00     0.186 C 
BRANCH  21  22
HETATM   22  C           1     -20.149  -8.274  -2.647  0.00  0.00     0.046 C 
BRANCH  22  23
HETATM   23  C           1     -20.020  -9.455  -3.600  0.00  0.00     0.116 C 
BRANCH  23  24
HETATM   24  C           1     -18.972  -9.150  -4.643  0.00  0.00     0.172 C 
HETATM   25  O           1     -19.281  -8.501  -5.666  0.00  0.00    -0.648 OA
HETATM   26  O           1     -17.798  -9.546  -4.483  0.00  0.00    -0.648 OA
ENDBRANCH  23  24
ENDBRANCH  22  23
ENDBRANCH  21  22
BRANCH  21  27
HETATM   27  C           1     -22.027  -6.938  -1.746  0.00  0.00     0.196 C 
HETATM   28  O           1     -22.433  -5.757  -1.696  0.00  0.00    -0.646 OA
HETATM   29  O           1     -22.154  -7.687  -0.754  0.00  0.00    -0.646 OA
ENDBRANCH  21  27
ENDBRANCH  19  21
ENDBRANCH   1  17
TORSDOF 9
ENDMDL
MODEL 5
REMARK VINA RESULT:      -7.6      1.837      2.787
REMARK  9 active torsions:
REMARK  status: ('A' for Active; 'I' for Inactive)
REMARK    1  A    between atoms: N_6  and  C_13 
REMARK    2  A    between atoms: C_8  and  C_17 
REMARK    3  A    between atoms: C_8  and  C_10 
REMARK    4  A    between atoms: C_10  and  C_27 
REMARK    5  A    between atoms: N_11  and  C_27 
REMARK       I    between atoms: N_11  and  C_29 
REMARK    6  A    between atoms: C_12  and  C_13 
REMARK    7  A    between atoms: C_12  and  C_23 
REMARK    8  A    between atoms: C_13  and  C_29 
REMARK    9  A    between atoms: C_25  and  C_27 
ROOT
HETATM    1  C           1     -20.511  -5.848  -5.105  0.00  0.00     0.278 C 
ENDROOT
BRANCH   1   2
HETATM    2  N           1     -20.102  -4.442  -4.780  0.00  0.00    -0.066 N 
HETATM    3  H           1     -20.915  -3.927  -4.373  0.00  0.00     0.275 HD
HETATM    4  H           1     -19.320  -4.459  -4.086  0.00  0.00     0.275 HD
HETATM    5  H           1     -19.785  -3.962  -5.652  0.00  0.00     0.275 HD
ENDBRANCH   1   2
BRANCH   1   6
HETATM    6  C           1     -21.652  -6.270  -4.189  0.00  0.00     0.083 C 
BRANCH   6   7
HETATM    7  C           1     -21.211  -7.420  -3.338  0.00  0.00    -0.028 A 
HETATM    8  C           1     -20.397  -8.456  -3.734  0.00  0.00     0.096 A 
HETATM    9  N           1     -20.236  -9.295  -2.663  0.00  0.00    -0.365 N 
HETATM   10  H           1     -19.664 -10.175  -2.669  0.00  0.00     0.165 HD
HETATM   11  C           1     -20.936  -8.819  -1.577  0.00  0.00     0.042 A 
HETATM   12  C           1     -21.063  -9.341  -0.283  0.00  0.00     0.030 A 
HETATM   13  C           1     -21.560  -7.637  -1.976  0.00  0.00    -0.002 A 
HETATM   14  C           1     -21.853  -8.629   0.626  0.00  0.00     0.002 A 
HETATM   15  C           1     -22.487  -7.445   0.254  0.00  0.00     0.001 A 
HETATM   16  C           1     -22.350  -6.938  -1.044  0.00  0.00     0.014 A 
ENDBRANCH   6   7
ENDBRANCH   1   6
BRANCH   1  17
HETATM   17  C           1     -20.967  -5.919  -6.542  0.00  0.00     0.249 C 
HETATM   18  O           1     -21.118  -6.992  -7.076  0.00  0.00    -0.271 OA
HETATM   19  N           1     -21.210  -4.767  -7.241  0.00  0.00    -0.345 N 
HETATM   20  H           1     -21.083  -3.867  -6.794  0.00  0.00     0.163 HD
BRANCH  19  21
HETATM   21  C           1     -21.648  -4.835  -8.621  0.00  0.00     0.186 C 
BRANCH  21  22
HETATM   22  C           1     -22.854  -3.927  -8.818  0.00  0.00     0.046 C 
BRANCH  22  23
HETATM   23  C           1     -23.912  -4.656  -9.635  0.00  0.00     0.116 C 
BRANCH  23  24
HETATM   24  C           1     -24.221  -3.865 -10.882  0.00  0.00     0.172 C 
HETATM   25  O           1     -25.212  -3.102 -10.908  0.00  0.00    -0.648 OA
HETATM   26  O           1     -23.488  -3.973 -11.888  0.00  0.00    -0.648 OA
ENDBRANCH  23  24
ENDBRANCH  22  23
ENDBRANCH  21  22
BRANCH  21  27
HETATM   27  C           1     -20.527  -4.384  -9.527  0.00  0.00     0.196 C 
HETATM   28  O           1     -20.575  -4.635 -10.751  0.00  0.00    -0.646 OA
HETATM   29  O           1     -19.554  -3.762  -9.053  0.00  0.00    -0.646 OA
ENDBRANCH  21  27
ENDBRANCH  19  21
ENDBRANCH   1  17
TORSDOF 9
ENDMDL
MODEL 6
REMARK VINA RESULT:      -7.6      1.324      2.175
REMARK  9 active torsions:
REMARK  status: ('A' for Active; 'I' for Inactive)
REMARK    1  A    between atoms: N_6  and  C_13 
REMARK    2  A    between atoms: C_8  and  C_17 
REMARK    3  A    between atoms: C_8  and  C_10 
REMARK    4  A    between atoms: C_10  and  C_27 
REMARK    5  A    between atoms: N_11  and  C_27 
REMARK       I    between atoms: N_11  and  C_29 
REMARK    6  A    between atoms: C_12  and  C_13 
REMARK    7  A    between atoms: C_12  and  C_23 
REMARK    8  A    between atoms: C_13  and  C_29 
REMARK    9  A    between atoms: C_25  and  C_27 
ROOT
HETATM    1  C           1     -20.939  -5.336  -6.690  0.00  0.00     0.278 C 
ENDROOT
BRANCH   1   2
HETATM    2  N           1     -20.183  -4.637  -5.600  0.00  0.00    -0.066 N 
HETATM    3  H           1     -19.157  -4.693  -5.794  0.00  0.00     0.275 HD
HETATM    4  H           1     -20.474  -3.633  -5.562  0.00  0.00     0.275 HD
HETATM    5  H           1     -20.390  -5.095  -4.684  0.00  0.00     0.275 HD
ENDBRANCH   1   2
BRANCH   1   6
HETATM    6  C           1     -22.039  -6.192  -6.077  0.00  0.00     0.083 C 
BRANCH   6   7
HETATM    7  C           1     -21.587  -6.711  -4.748  0.00  0.00    -0.028 A 
HETATM    8  C           1     -22.075  -6.330  -3.519  0.00  0.00     0.096 A 
HETATM    9  N           1     -21.398  -7.037  -2.561  0.00  0.00    -0.365 N 
HETATM   10  H           1     -21.559  -6.954  -1.527  0.00  0.00     0.165 HD
HETATM   11  C           1     -20.474  -7.871  -3.150  0.00  0.00     0.042 A 
HETATM   12  C           1     -19.567  -8.769  -2.572  0.00  0.00     0.030 A 
HETATM   13  C           1     -20.573  -7.684  -4.529  0.00  0.00    -0.002 A 
HETATM   14  C           1     -18.739  -9.494  -3.434  0.00  0.00     0.002 A 
HETATM   15  C           1     -18.816  -9.328  -4.815  0.00  0.00     0.001 A 
HETATM   16  C           1     -19.728  -8.426  -5.376  0.00  0.00     0.014 A 
ENDBRANCH   6   7
ENDBRANCH   1   6
BRANCH   1  17
HETATM   17  C           1     -21.553  -4.312  -7.613  0.00  0.00     0.249 C 
HETATM   18  O           1     -21.549  -3.144  -7.308  0.00  0.00    -0.271 OA
HETATM   19  N           1     -22.113  -4.708  -8.798  0.00  0.00    -0.345 N 
HETATM   20  H           1     -22.116  -5.687  -9.055  0.00  0.00     0.163 HD
BRANCH  19  21
HETATM   21  C           1     -22.702  -3.724  -9.685  0.00  0.00     0.186 C 
BRANCH  21  22
HETATM   22  C           1     -22.208  -3.959 -11.106  0.00  0.00     0.046 C 
BRANCH  22  23
HETATM   23  C           1     -22.420  -2.699 -11.934  0.00  0.00     0.116 C 
BRANCH  23  24
HETATM   24  C           1     -23.221  -3.035 -13.168  0.00  0.00     0.172 C 
HETATM   25  O           1     -22.719  -2.871 -14.302  0.00  0.00    -0.648 OA
HETATM   26  O           1     -24.385  -3.475 -13.057  0.00  0.00    -0.648 OA
ENDBRANCH  23  24
ENDBRANCH  22  23
ENDBRANCH  21  22
BRANCH  21  27
HETATM   27  C           1     -24.206  -3.852  -9.649  0.00  0.00     0.196 C 
HETATM   28  O           1     -24.743  -4.960  -9.863  0.00  0.00    -0.646 OA
HETATM   29  O           1     -24.912  -2.850  -9.406  0.00  0.00    -0.646 OA
ENDBRANCH  21  27
ENDBRANCH  19  21
ENDBRANCH   1  17
TORSDOF 9
ENDMDL
MODEL 7
REMARK VINA RESULT:      -7.3      3.348      8.025
REMARK  9 active torsions:
REMARK  status: ('A' for Active; 'I' for Inactive)
REMARK    1  A    between atoms: N_6  and  C_13 
REMARK    2  A    between atoms: C_8  and  C_17 
REMARK    3  A    between atoms: C_8  and  C_10 
REMARK    4  A    between atoms: C_10  and  C_27 
REMARK    5  A    between atoms: N_11  and  C_27 
REMARK       I    between atoms: N_11  and  C_29 
REMARK    6  A    between atoms: C_12  and  C_13 
REMARK    7  A    between atoms: C_12  and  C_23 
REMARK    8  A    between atoms: C_13  and  C_29 
REMARK    9  A    between atoms: C_25  and  C_27 
ROOT
HETATM    1  C           1     -20.399  -5.359  -6.249  0.00  0.00     0.278 C 
ENDROOT
BRANCH   1   2
HETATM    2  N           1     -20.056  -6.236  -7.416  0.00  0.00    -0.066 N 
HETATM    3  H           1     -19.673  -5.651  -8.193  0.00  0.00     0.275 HD
HETATM    4  H           1     -19.339  -6.939  -7.125  0.00  0.00     0.275 HD
HETATM    5  H           1     -20.916  -6.731  -7.744  0.00  0.00     0.275 HD
ENDBRANCH   1   2
BRANCH   1   6
HETATM    6  C           1     -21.100  -4.102  -6.748  0.00  0.00     0.083 C 
BRANCH   6   7
HETATM    7  C           1     -21.086  -4.082  -8.244  0.00  0.00    -0.028 A 
HETATM    8  C           1     -19.967  -4.085  -9.045  0.00  0.00     0.096 A 
HETATM    9  N           1     -20.385  -4.062 -10.350  0.00  0.00    -0.365 N 
HETATM   10  H           1     -19.749  -4.058 -11.184  0.00  0.00     0.165 HD
HETATM   11  C           1     -21.761  -4.042 -10.408  0.00  0.00     0.042 A 
HETATM   12  C           1     -22.619  -4.015 -11.514  0.00  0.00     0.030 A 
HETATM   13  C           1     -22.227  -4.054  -9.093  0.00  0.00    -0.002 A 
HETATM   14  C           1     -23.995  -4.000 -11.263  0.00  0.00     0.002 A 
HETATM   15  C           1     -24.489  -4.012  -9.961  0.00  0.00     0.001 A 
HETATM   16  C           1     -23.616  -4.039  -8.866  0.00  0.00     0.014 A 
ENDBRANCH   6   7
ENDBRANCH   1   6
BRANCH   1  17
HETATM   17  C           1     -21.314  -6.106  -5.310  0.00  0.00     0.249 C 
HETATM   18  O           1     -22.510  -5.951  -5.380  0.00  0.00    -0.271 OA
HETATM   19  N           1     -20.788  -6.962  -4.379  0.00  0.00    -0.345 N 
HETATM   20  H           1     -19.786  -7.093  -4.320  0.00  0.00     0.163 HD
BRANCH  19  21
HETATM   21  C           1     -21.667  -7.680  -3.477  0.00  0.00     0.186 C 
BRANCH  21  22
HETATM   22  C           1     -21.156  -9.102  -3.294  0.00  0.00     0.046 C 
BRANCH  22  23
HETATM   23  C           1     -21.832 -10.020  -4.304  0.00  0.00     0.116 C 
BRANCH  23  24
HETATM   24  C           1     -20.917 -10.234  -5.484  0.00  0.00     0.172 C 
HETATM   25  O           1     -19.806  -9.661  -5.524  0.00  0.00    -0.648 OA
HETATM   26  O           1     -21.269 -10.983  -6.421  0.00  0.00    -0.648 OA
ENDBRANCH  23  24
ENDBRANCH  22  23
ENDBRANCH  21  22
BRANCH  21  27
HETATM   27  C           1     -21.695  -6.981  -2.140  0.00  0.00     0.196 C 
HETATM   28  O           1     -22.290  -5.888  -2.019  0.00  0.00    -0.646 OA
HETATM   29  O           1     -21.123  -7.494  -1.155  0.00  0.00    -0.646 OA
ENDBRANCH  21  27
ENDBRANCH  19  21
ENDBRANCH   1  17
TORSDOF 9
ENDMDL
MODEL 8
REMARK VINA RESULT:      -7.3      4.523      8.839
REMARK  9 active torsions:
REMARK  status: ('A' for Active; 'I' for Inactive)
REMARK    1  A    between atoms: N_6  and  C_13 
REMARK    2  A    between atoms: C_8  and  C_17 
REMARK    3  A    between atoms: C_8  and  C_10 
REMARK    4  A    between atoms: C_10  and  C_27 
REMARK    5  A    between atoms: N_11  and  C_27 
REMARK       I    between atoms: N_11  and  C_29 
REMARK    6  A    between atoms: C_12  and  C_13 
REMARK    7  A    between atoms: C_12  and  C_23 
REMARK    8  A    between atoms: C_13  and  C_29 
REMARK    9  A    between atoms: C_25  and  C_27 
ROOT
HETATM    1  C           1     -21.668  -6.559  -5.331  0.00  0.00     0.278 C 
ENDROOT
BRANCH   1   2
HETATM    2  N           1     -21.777  -6.029  -3.932  0.00  0.00    -0.066 N 
HETATM    3  H           1     -22.778  -5.823  -3.714  0.00  0.00     0.275 HD
HETATM    4  H           1     -21.414  -6.742  -3.259  0.00  0.00     0.275 HD
HETATM    5  H           1     -21.215  -5.152  -3.849  0.00  0.00     0.275 HD
ENDBRANCH   1   2
BRANCH   1   6
HETATM    6  C           1     -20.882  -5.576  -6.188  0.00  0.00     0.083 C 
BRANCH   6   7
HETATM    7  C           1     -21.796  -4.948  -7.193  0.00  0.00    -0.028 A 
HETATM    8  C           1     -23.110  -4.596  -6.987  0.00  0.00     0.096 A 
HETATM    9  N           1     -23.587  -4.056  -8.152  0.00  0.00    -0.365 N 
HETATM   10  H           1     -24.564  -3.697  -8.292  0.00  0.00     0.165 HD
HETATM   11  C           1     -22.602  -4.053  -9.113  0.00  0.00     0.042 A 
HETATM   12  C           1     -22.633  -3.603 -10.439  0.00  0.00     0.030 A 
HETATM   13  C           1     -21.462  -4.611  -8.534  0.00  0.00    -0.002 A 
HETATM   14  C           1     -21.461  -3.729 -11.192  0.00  0.00     0.002 A 
HETATM   15  C           1     -20.308  -4.282 -10.639  0.00  0.00     0.001 A 
HETATM   16  C           1     -20.294  -4.728  -9.312  0.00  0.00     0.014 A 
ENDBRANCH   6   7
ENDBRANCH   1   6
BRANCH   1  17
HETATM   17  C           1     -20.955  -7.890  -5.309  0.00  0.00     0.249 C 
HETATM   18  O           1     -21.376  -8.812  -5.966  0.00  0.00    -0.271 OA
HETATM   19  N           1     -19.830  -8.051  -4.546  0.00  0.00    -0.345 N 
HETATM   20  H           1     -19.476  -7.278  -3.995  0.00  0.00     0.163 HD
BRANCH  19  21
HETATM   21  C           1     -19.145  -9.329  -4.526  0.00  0.00     0.186 C 
BRANCH  21  22
HETATM   22  C           1     -18.011  -9.314  -5.541  0.00  0.00     0.046 C 
BRANCH  22  23
HETATM   23  C           1     -17.903 -10.681  -6.204  0.00  0.00     0.116 C 
BRANCH  23  24
HETATM   24  C           1     -16.621 -11.351  -5.775  0.00  0.00     0.172 C 
HETATM   25  O           1     -15.593 -11.239  -6.477  0.00  0.00    -0.648 OA
HETATM   26  O           1     -16.587 -12.017  -4.718  0.00  0.00    -0.648 OA
ENDBRANCH  23  24
ENDBRANCH  22  23
ENDBRANCH  21  22
BRANCH  21  27
HETATM   27  C           1     -18.581  -9.575  -3.147  0.00  0.00     0.196 C 
HETATM   28  O           1     -17.393  -9.276  -2.897  0.00  0.00    -0.646 OA
HETATM   29  O           1     -19.300 -10.076  -2.258  0.00  0.00    -0.646 OA
ENDBRANCH  21  27
ENDBRANCH  19  21
ENDBRANCH   1  17
TORSDOF 9
ENDMDL
MODEL 9
REMARK VINA RESULT:      -7.1      4.781      7.663
REMARK  9 active torsions:
REMARK  status: ('A' for Active; 'I' for Inactive)
REMARK    1  A    between atoms: N_6  and  C_13 
REMARK    2  A    between atoms: C_8  and  C_17 
REMARK    3  A    between atoms: C_8  and  C_10 
REMARK    4  A    between atoms: C_10  and  C_27 
REMARK    5  A    between atoms: N_11  and  C_27 
REMARK       I    between atoms: N_11  and  C_29 
REMARK    6  A    between atoms: C_12  and  C_13 
REMARK    7  A    between atoms: C_12  and  C_23 
REMARK    8  A    between atoms: C_13  and  C_29 
REMARK    9  A    between atoms: C_25  and  C_27 
ROOT
HETATM    1  C           1     -23.444  -3.829 -13.360  0.00  0.00     0.278 C 
ENDROOT
BRANCH   1   2
HETATM    2  N           1     -23.134  -3.074 -14.618  0.00  0.00    -0.066 N 
HETATM    3  H           1     -23.228  -2.048 -14.443  0.00  0.00     0.275 HD
HETATM    4  H           1     -22.156  -3.287 -14.920  0.00  0.00     0.275 HD
HETATM    5  H           1     -23.801  -3.362 -15.369  0.00  0.00     0.275 HD
ENDBRANCH   1   2
BRANCH   1   6
HETATM    6  C           1     -24.312  -2.968 -12.453  0.00  0.00     0.083 C 
BRANCH   6   7
HETATM    7  C           1     -24.001  -3.277 -11.022  0.00  0.00    -0.028 A 
HETATM    8  C           1     -24.899  -3.292  -9.980  0.00  0.00     0.096 A 
HETATM    9  N           1     -24.215  -3.620  -8.840  0.00  0.00    -0.365 N 
HETATM   10  H           1     -24.644  -3.707  -7.886  0.00  0.00     0.165 HD
HETATM   11  C           1     -22.882  -3.817  -9.125  0.00  0.00     0.042 A 
HETATM   12  C           1     -21.818  -4.162  -8.283  0.00  0.00     0.030 A 
HETATM   13  C           1     -22.721  -3.607 -10.495  0.00  0.00    -0.002 A 
HETATM   14  C           1     -20.552  -4.295  -8.863  0.00  0.00     0.002 A 
HETATM   15  C           1     -20.362  -4.092 -10.228  0.00  0.00     0.001 A 
HETATM   16  C           1     -21.437  -3.747 -11.056  0.00  0.00     0.014 A 
ENDBRANCH   6   7
ENDBRANCH   1   6
BRANCH   1  17
HETATM   17  C           1     -24.181  -5.100 -13.705  0.00  0.00     0.249 C 
HETATM   18  O           1     -24.235  -6.004 -12.905  0.00  0.00    -0.271 OA
HETATM   19  N           1     -24.791  -5.228 -14.924  0.00  0.00    -0.345 N 
HETATM   20  H           1     -24.747  -4.471 -15.595  0.00  0.00     0.163 HD
BRANCH  19  21
HETATM   21  C           1     -25.499  -6.449 -15.255  0.00  0.00     0.186 C 
BRANCH  21  22
HETATM   22  C           1     -26.918  -6.112 -15.691  0.00  0.00     0.046 C 
BRANCH  22  23
HETATM   23  C           1     -27.774  -7.371 -15.660  0.00  0.00     0.116 C 
BRANCH  23  24
HETATM   24  C           1     -28.968  -7.193 -16.565  0.00  0.00     0.172 C 
HETATM   25  O           1     -29.496  -8.190 -17.104  0.00  0.00    -0.648 OA
HETATM   26  O           1     -29.427  -6.051 -16.777  0.00  0.00    -0.648 OA
ENDBRANCH  23  24
ENDBRANCH  22  23
ENDBRANCH  21  22
BRANCH  21  27
HETATM   27  C           1     -24.783  -7.156 -16.380  0.00  0.00     0.196 C 
HETATM   28  O           1     -24.221  -8.253 -16.170  0.00  0.00    -0.646 OA
HETATM   29  O           1     -24.753  -6.646 -17.520  0.00  0.00    -0.646 OA
ENDBRANCH  21  27
ENDBRANCH  19  21
ENDBRANCH   1  17
TORSDOF 9
ENDMDL
