MODEL 1
REMARK VINA RESULT:      -9.5      0.000      0.000
REMARK  10 active torsions:
REMARK  status: ('A' for Active; 'I' for Inactive)
REMARK    1  A    between atoms: C_2  and  C_3 
REMARK    2  A    between atoms: C_2  and  C_17 
REMARK    3  A    between atoms: C_3  and  N_4 
REMARK       I    between atoms: N_4  and  C_24 
REMARK    4  A    between atoms: C_8  and  C_19 
REMARK       I    between atoms: N_10  and  C_24 
REMARK    5  A    between atoms: C_14  and  C_15 
REMARK    6  A    between atoms: C_14  and  C_19 
REMARK    7  A    between atoms: C_14  and  N_29 
REMARK       I    between atoms: C_15  and  N_21 
REMARK    8  A    between atoms: C_17  and  C_31 
REMARK    9  A    between atoms: N_21  and  C_31 
REMARK   10  A    between atoms: C_30  and  C_31 
ROOT
HETATM    1  C           1     -21.548  -4.363  -7.559  0.00  0.00     0.249 C 
HETATM    2  N           1     -22.129  -4.732  -8.744  0.00  0.00    -0.345 N 
HETATM    3  H           1     -22.193  -5.710  -8.993  0.00  0.00     0.163 HD
HETATM    4  O           1     -21.472  -3.195  -7.263  0.00  0.00    -0.271 OA
ENDROOT
BRANCH   1   5
HETATM    5  C           1     -21.005  -5.417  -6.626  0.00  0.00     0.278 C 
BRANCH   5   6
HETATM    6  C           1     -22.108  -5.876  -5.682  0.00  0.00     0.083 C 
BRANCH   6   7
HETATM    7  C           1     -21.602  -6.998  -4.830  0.00  0.00    -0.028 A 
HETATM    8  C           1     -20.950  -8.125  -5.277  0.00  0.00     0.096 A 
HETATM    9  N           1     -20.656  -8.898  -4.184  0.00  0.00    -0.365 N 
HETATM   10  C           1     -21.107  -8.290  -3.034  0.00  0.00     0.042 A 
HETATM   11  H           1     -20.159  -9.823  -4.220  0.00  0.00     0.165 HD
HETATM   12  C           1     -21.708  -7.090  -3.414  0.00  0.00    -0.002 A 
HETATM   13  C           1     -21.029  -8.708  -1.701  0.00  0.00     0.030 A 
HETATM   14  C           1     -22.258  -6.262  -2.417  0.00  0.00     0.014 A 
HETATM   15  C           1     -22.188  -6.664  -1.078  0.00  0.00     0.001 A 
HETATM   16  C           1     -21.584  -7.870  -0.728  0.00  0.00     0.002 A 
ENDBRANCH   6   7
ENDBRANCH   5   6
BRANCH   5  17
HETATM   17  N           1     -19.873  -4.841  -5.828  0.00  0.00    -0.066 N 
HETATM   18  H           1     -19.959  -5.143  -4.832  0.00  0.00     0.275 HD
HETATM   19  H           1     -18.965  -5.181  -6.218  0.00  0.00     0.275 HD
HETATM   20  H           1     -19.906  -3.797  -5.880  0.00  0.00     0.275 HD
ENDBRANCH   5  17
ENDBRANCH   1   5
BRANCH   2  21
HETATM   21  C           1     -22.651  -3.719  -9.641  0.00  0.00     0.185 C 
BRANCH  21  22
HETATM   22  C           1     -22.068  -3.924 -11.034  0.00  0.00     0.038 C 
BRANCH  22  23
HETATM   23  C           1     -22.316  -2.680 -11.877  0.00  0.00     0.023 C 
BRANCH  23  24
HETATM   24  C           1     -23.158  -3.049 -13.092  0.00  0.00     0.138 C 
BRANCH  24  25
HETATM   25  N           1     -23.943  -1.882 -13.517  0.00  0.00    -0.227 N 
HETATM   26  C           1     -23.752  -1.372 -14.660  0.00  0.00     0.665 C 
HETATM   27  N           1     -24.448  -0.340 -15.036  0.00  0.00    -0.235 N 
HETATM   28  N           1     -22.885  -1.869 -15.437  0.00  0.00    -0.235 N 
HETATM   29  H           1     -25.164   0.069 -14.394  0.00  0.00     0.174 HD
HETATM   30  H           1     -24.291   0.080 -15.979  0.00  0.00     0.174 HD
HETATM   31  H           1     -22.324  -2.702 -15.134  0.00  0.00     0.174 HD
HETATM   32  H           1     -22.727  -1.446 -16.385  0.00  0.00     0.174 HD
HETATM   33  H           1     -24.663  -1.471 -12.872  0.00  0.00     0.177 HD
ENDBRANCH  24  25
ENDBRANCH  23  24
ENDBRANCH  22  23
ENDBRANCH  21  22
BRANCH  21  34
HETATM   34  C           1     -24.155  -3.831  -9.704  0.00  0.00     0.196 C 
HETATM   35  O           1     -24.866  -2.835  -9.452  0.00  0.00    -0.646 OA
HETATM   36  O           1     -24.688  -4.920 -10.008  0.00  0.00    -0.646 OA
ENDBRANCH  21  34
ENDBRANCH   2  21
TORSDOF 10
ENDMDL
MODEL 2
REMARK VINA RESULT:      -8.4      1.942      3.252
REMARK  10 active torsions:
REMARK  status: ('A' for Active; 'I' for Inactive)
REMARK    1  A    between atoms: C_2  and  C_3 
REMARK    2  A    between atoms: C_2  and  C_17 
REMARK    3  A    between atoms: C_3  and  N_4 
REMARK       I    between atoms: N_4  and  C_24 
REMARK    4  A    between atoms: C_8  and  C_19 
REMARK       I    between atoms: N_10  and  C_24 
REMARK    5  A    between atoms: C_14  and  C_15 
REMARK    6  A    between atoms: C_14  and  C_19 
REMARK    7  A    between atoms: C_14  and  N_29 
REMARK       I    between atoms: C_15  and  N_21 
REMARK    8  A    between atoms: C_17  and  C_31 
REMARK    9  A    between atoms: N_21  and  C_31 
REMARK   10  A    between atoms: C_30  and  C_31 
ROOT
HETATM    1  C           1     -20.606  -7.039  -6.505  0.00  0.00     0.249 C 
HETATM    2  N           1     -21.430  -6.179  -7.180  0.00  0.00    -0.345 N 
HETATM    3  H           1     -22.417  -6.144  -6.960  0.00  0.00     0.163 HD
HETATM    4  O           1     -19.429  -7.080  -6.769  0.00  0.00    -0.271 OA
ENDROOT
BRANCH   1   5
HETATM    5  C           1     -21.170  -7.935  -5.429  0.00  0.00     0.278 C 
BRANCH   5   6
HETATM    6  C           1     -20.305  -7.836  -4.181  0.00  0.00     0.083 C 
BRANCH   6   7
HETATM    7  C           1     -21.116  -7.277  -3.053  0.00  0.00    -0.028 A 
HETATM    8  C           1     -21.554  -5.977  -2.937  0.00  0.00     0.096 A 
HETATM    9  N           1     -22.260  -5.877  -1.766  0.00  0.00    -0.365 N 
HETATM   10  C           1     -22.287  -7.093  -1.121  0.00  0.00     0.042 A 
HETATM   11  H           1     -22.715  -4.999  -1.413  0.00  0.00     0.165 HD
HETATM   12  C           1     -21.573  -7.993  -1.912  0.00  0.00    -0.002 A 
HETATM   13  C           1     -22.884  -7.460   0.090  0.00  0.00     0.030 A 
HETATM   14  C           1     -21.446  -9.325  -1.477  0.00  0.00     0.014 A 
HETATM   15  C           1     -22.037  -9.710  -0.267  0.00  0.00     0.001 A 
HETATM   16  C           1     -22.744  -8.790   0.503  0.00  0.00     0.002 A 
ENDBRANCH   6   7
ENDBRANCH   5   6
BRANCH   5  17
HETATM   17  N           1     -21.182  -9.353  -5.917  0.00  0.00    -0.066 N 
HETATM   18  H           1     -20.294  -9.825  -5.638  0.00  0.00     0.275 HD
HETATM   19  H           1     -21.994  -9.859  -5.496  0.00  0.00     0.275 HD
HETATM   20  H           1     -21.268  -9.362  -6.959  0.00  0.00     0.275 HD
ENDBRANCH   5  17
ENDBRANCH   1   5
BRANCH   2  21
HETATM   21  C           1     -20.888  -5.317  -8.214  0.00  0.00     0.185 C 
BRANCH  21  22
HETATM   22  C           1     -21.991  -4.949  -9.199  0.00  0.00     0.038 C 
BRANCH  22  23
HETATM   23  C           1     -21.376  -4.280 -10.422  0.00  0.00     0.023 C 
BRANCH  23  24
HETATM   24  C           1     -22.467  -3.575 -11.216  0.00  0.00     0.138 C 
BRANCH  24  25
HETATM   25  N           1     -22.132  -3.610 -12.647  0.00  0.00    -0.227 N 
HETATM   26  C           1     -22.812  -2.933 -13.473  0.00  0.00     0.665 C 
HETATM   27  N           1     -22.516  -2.963 -14.739  0.00  0.00    -0.235 N 
HETATM   28  N           1     -23.780  -2.225 -13.067  0.00  0.00    -0.235 N 
HETATM   29  H           1     -21.717  -3.547 -15.074  0.00  0.00     0.174 HD
HETATM   30  H           1     -23.076  -2.405 -15.421  0.00  0.00     0.174 HD
HETATM   31  H           1     -24.019  -2.200 -12.045  0.00  0.00     0.174 HD
HETATM   32  H           1     -24.344  -1.664 -13.752  0.00  0.00     0.174 HD
HETATM   33  H           1     -21.330  -4.197 -12.984  0.00  0.00     0.177 HD
ENDBRANCH  24  25
ENDBRANCH  23  24
ENDBRANCH  22  23
ENDBRANCH  21  22
BRANCH  21  34
HETATM   34  C           1     -20.338  -4.061  -7.583  0.00  0.00     0.196 C 
HETATM   35  O           1     -21.107  -3.266  -7.001  0.00  0.00    -0.646 OA
HETATM   36  O           1     -19.114  -3.816  -7.643  0.00  0.00    -0.646 OA
ENDBRANCH  21  34
ENDBRANCH   2  21
TORSDOF 10
ENDMDL
MODEL 3
REMARK VINA RESULT:      -8.4      2.027      2.617
REMARK  10 active torsions:
REMARK  status: ('A' for Active; 'I' for Inactive)
REMARK    1  A    between atoms: C_2  and  C_3 
REMARK    2  A    between atoms: C_2  and  C_17 
REMARK    3  A    between atoms: C_3  and  N_4 
REMARK       I    between atoms: N_4  and  C_24 
REMARK    4  A    between atoms: C_8  and  C_19 
REMARK       I    between atoms: N_10  and  C_24 
REMARK    5  A    between atoms: C_14  and  C_15 
REMARK    6  A    between atoms: C_14  and  C_19 
REMARK    7  A    between atoms: C_14  and  N_29 
REMARK       I    between atoms: C_15  and  N_21 
REMARK    8  A    between atoms: C_17  and  C_31 
REMARK    9  A    between atoms: N_21  and  C_31 
REMARK   10  A    between atoms: C_30  and  C_31 
ROOT
HETATM    1  C           1     -21.028  -5.880  -6.610  0.00  0.00     0.249 C 
HETATM    2  N           1     -21.348  -4.715  -7.255  0.00  0.00    -0.345 N 
HETATM    3  H           1     -21.241  -3.828  -6.780  0.00  0.00     0.163 HD
HETATM    4  O           1     -21.156  -6.939  -7.177  0.00  0.00    -0.271 OA
ENDROOT
BRANCH   1   5
HETATM    5  C           1     -20.514  -5.840  -5.192  0.00  0.00     0.278 C 
BRANCH   5   6
HETATM    6  C           1     -21.633  -6.228  -4.235  0.00  0.00     0.083 C 
BRANCH   6   7
HETATM    7  C           1     -21.179  -7.361  -3.368  0.00  0.00    -0.028 A 
HETATM    8  C           1     -20.334  -8.380  -3.743  0.00  0.00     0.096 A 
HETATM    9  N           1     -20.171  -9.207  -2.662  0.00  0.00    -0.365 N 
HETATM   10  C           1     -20.898  -8.739  -1.590  0.00  0.00     0.042 A 
HETATM   11  H           1     -19.577 -10.074  -2.653  0.00  0.00     0.165 HD
HETATM   12  C           1     -21.543  -7.575  -2.010  0.00  0.00    -0.002 A 
HETATM   13  C           1     -21.032  -9.253  -0.296  0.00  0.00     0.030 A 
HETATM   14  C           1     -22.362  -6.887  -1.095  0.00  0.00     0.014 A 
HETATM   15  C           1     -22.507  -7.387   0.205  0.00  0.00     0.001 A 
HETATM   16  C           1     -21.851  -8.553   0.596  0.00  0.00     0.002 A 
ENDBRANCH   6   7
ENDBRANCH   5   6
BRANCH   5  17
HETATM   17  N           1     -20.040  -4.454  -4.871  0.00  0.00    -0.066 N 
HETATM   18  H           1     -19.450  -4.477  -4.010  0.00  0.00     0.275 HD
HETATM   19  H           1     -19.477  -4.085  -5.670  0.00  0.00     0.275 HD
HETATM   20  H           1     -20.866  -3.833  -4.710  0.00  0.00     0.275 HD
ENDBRANCH   5  17
ENDBRANCH   1   5
BRANCH   2  21
HETATM   21  C           1     -21.842  -4.753  -8.618  0.00  0.00     0.185 C 
BRANCH  21  22
HETATM   22  C           1     -23.000  -3.774  -8.767  0.00  0.00     0.038 C 
BRANCH  22  23
HETATM   23  C           1     -24.074  -4.389  -9.655  0.00  0.00     0.023 C 
BRANCH  23  24
HETATM   24  C           1     -24.487  -3.384 -10.722  0.00  0.00     0.138 C 
BRANCH  24  25
HETATM   25  N           1     -23.321  -3.038 -11.548  0.00  0.00    -0.227 N 
HETATM   26  C           1     -23.200  -3.527 -12.709  0.00  0.00     0.665 C 
HETATM   27  N           1     -22.169  -3.221 -13.440  0.00  0.00    -0.235 N 
HETATM   28  N           1     -24.084  -4.313 -13.160  0.00  0.00    -0.235 N 
HETATM   29  H           1     -21.439  -2.572 -13.067  0.00  0.00     0.174 HD
HETATM   30  H           1     -22.069  -3.624 -14.398  0.00  0.00     0.174 HD
HETATM   31  H           1     -24.917  -4.560 -12.571  0.00  0.00     0.174 HD
HETATM   32  H           1     -23.984  -4.718 -14.123  0.00  0.00     0.174 HD
HETATM   33  H           1     -22.588  -2.386 -11.174  0.00  0.00     0.177 HD
ENDBRANCH  24  25
ENDBRANCH  23  24
ENDBRANCH  22  23
ENDBRANCH  21  22
BRANCH  21  34
HETATM   34  C           1     -20.732  -4.365  -9.565  0.00  0.00     0.196 C 
HETATM   35  O           1     -20.840  -4.610 -10.786  0.00  0.00    -0.646 OA
HETATM   36  O           1     -19.706  -3.801  -9.128  0.00  0.00    -0.646 OA
ENDBRANCH  21  34
ENDBRANCH   2  21
TORSDOF 10
ENDMDL
MODEL 4
REMARK VINA RESULT:      -8.2      2.938      9.902
REMARK  10 active torsions:
REMARK  status: ('A' for Active; 'I' for Inactive)
REMARK    1  A    between atoms: C_2  and  C_3 
REMARK    2  A    between atoms: C_2  and  C_17 
REMARK    3  A    between atoms: C_3  and  N_4 
REMARK       I    between atoms: N_4  and  C_24 
REMARK    4  A    between atoms: C_8  and  C_19 
REMARK       I    between atoms: N_10  and  C_24 
REMARK    5  A    between atoms: C_14  and  C_15 
REMARK    6  A    between atoms: C_14  and  C_19 
REMARK    7  A    between atoms: C_14  and  N_29 
REMARK       I    between atoms: C_15  and  N_21 
REMARK    8  A    between atoms: C_17  and  C_31 
REMARK    9  A    between atoms: N_21  and  C_31 
REMARK   10  A    between atoms: C_30  and  C_31 
ROOT
HETATM    1  C           1     -20.999  -5.636  -6.385  0.00  0.00     0.249 C 
HETATM    2  N           1     -21.545  -6.501  -5.474  0.00  0.00    -0.345 N 
HETATM    3  H           1     -22.544  -6.501  -5.311  0.00  0.00     0.163 HD
HETATM    4  O           1     -19.807  -5.638  -6.578  0.00  0.00    -0.271 OA
ENDROOT
BRANCH   1   5
HETATM    5  C           1     -21.887  -4.683  -7.146  0.00  0.00     0.278 C 
BRANCH   5   6
HETATM    6  C           1     -21.702  -4.901  -8.641  0.00  0.00     0.083 C 
BRANCH   6   7
HETATM    7  C           1     -22.898  -4.378  -9.375  0.00  0.00    -0.028 A 
HETATM    8  C           1     -24.176  -4.277  -8.873  0.00  0.00     0.096 A 
HETATM    9  N           1     -24.971  -3.752  -9.858  0.00  0.00    -0.365 N 
HETATM   10  C           1     -24.228  -3.509 -10.992  0.00  0.00     0.042 A 
HETATM   11  H           1     -25.999  -3.561  -9.761  0.00  0.00     0.165 HD
HETATM   12  C           1     -22.917  -3.896 -10.713  0.00  0.00    -0.002 A 
HETATM   13  C           1     -24.613  -2.982 -12.229  0.00  0.00     0.030 A 
HETATM   14  C           1     -21.940  -3.751 -11.715  0.00  0.00     0.014 A 
HETATM   15  C           1     -22.308  -3.225 -12.960  0.00  0.00     0.001 A 
HETATM   16  C           1     -23.626  -2.848 -13.211  0.00  0.00     0.002 A 
ENDBRANCH   6   7
ENDBRANCH   5   6
BRANCH   5  17
HETATM   17  N           1     -21.518  -3.272  -6.798  0.00  0.00    -0.066 N 
HETATM   18  H           1     -20.730  -2.957  -7.407  0.00  0.00     0.275 HD
HETATM   19  H           1     -22.344  -2.649  -6.947  0.00  0.00     0.275 HD
HETATM   20  H           1     -21.223  -3.226  -5.796  0.00  0.00     0.275 HD
ENDBRANCH   5  17
ENDBRANCH   1   5
BRANCH   2  21
HETATM   21  C           1     -20.692  -7.418  -4.743  0.00  0.00     0.185 C 
BRANCH  21  22
HETATM   22  C           1     -20.680  -7.034  -3.268  0.00  0.00     0.038 C 
BRANCH  22  23
HETATM   23  C           1     -21.956  -6.276  -2.930  0.00  0.00     0.023 C 
BRANCH  23  24
HETATM   24  C           1     -22.344  -6.554  -1.484  0.00  0.00     0.138 C 
BRANCH  24  25
HETATM   25  N           1     -21.985  -7.937  -1.137  0.00  0.00    -0.227 N 
HETATM   26  C           1     -22.577  -8.525  -0.185  0.00  0.00     0.665 C 
HETATM   27  N           1     -22.259  -9.748   0.122  0.00  0.00    -0.235 N 
HETATM   28  N           1     -23.480  -7.923   0.468  0.00  0.00    -0.235 N 
HETATM   29  H           1     -21.515 -10.245  -0.417  0.00  0.00     0.174 HD
HETATM   30  H           1     -22.748 -10.234   0.906  0.00  0.00     0.174 HD
HETATM   31  H           1     -23.737  -6.936   0.220  0.00  0.00     0.174 HD
HETATM   32  H           1     -23.970  -8.411   1.256  0.00  0.00     0.174 HD
HETATM   33  H           1     -21.236  -8.436  -1.678  0.00  0.00     0.177 HD
ENDBRANCH  24  25
ENDBRANCH  23  24
ENDBRANCH  22  23
ENDBRANCH  21  22
BRANCH  21  34
HETATM   34  C           1     -21.221  -8.824  -4.891  0.00  0.00     0.196 C 
HETATM   35  O           1     -21.862  -9.352  -3.958  0.00  0.00    -0.646 OA
HETATM   36  O           1     -21.017  -9.460  -5.948  0.00  0.00    -0.646 OA
ENDBRANCH  21  34
ENDBRANCH   2  21
TORSDOF 10
ENDMDL
MODEL 5
REMARK VINA RESULT:      -7.9      3.046      9.997
REMARK  10 active torsions:
REMARK  status: ('A' for Active; 'I' for Inactive)
REMARK    1  A    between atoms: C_2  and  C_3 
REMARK    2  A    between atoms: C_2  and  C_17 
REMARK    3  A    between atoms: C_3  and  N_4 
REMARK       I    between atoms: N_4  and  C_24 
REMARK    4  A    between atoms: C_8  and  C_19 
REMARK       I    between atoms: N_10  and  C_24 
REMARK    5  A    between atoms: C_14  and  C_15 
REMARK    6  A    between atoms: C_14  and  C_19 
REMARK    7  A    between atoms: C_14  and  N_29 
REMARK       I    between atoms: C_15  and  N_21 
REMARK    8  A    between atoms: C_17  and  C_31 
REMARK    9  A    between atoms: N_21  and  C_31 
REMARK   10  A    between atoms: C_30  and  C_31 
ROOT
HETATM    1  C           1     -21.361  -5.721  -5.777  0.00  0.00     0.249 C 
HETATM    2  N           1     -21.413  -7.061  -5.497  0.00  0.00    -0.345 N 
HETATM    3  H           1     -22.006  -7.670  -6.046  0.00  0.00     0.163 HD
HETATM    4  O           1     -20.653  -4.995  -5.120  0.00  0.00    -0.271 OA
ENDROOT
BRANCH   1   5
HETATM    5  C           1     -22.187  -5.153  -6.904  0.00  0.00     0.278 C 
BRANCH   5   6
HETATM    6  C           1     -21.546  -3.866  -7.405  0.00  0.00     0.083 C 
BRANCH   6   7
HETATM    7  C           1     -21.345  -3.951  -8.886  0.00  0.00    -0.028 A 
HETATM    8  C           1     -20.162  -4.240  -9.527  0.00  0.00     0.096 A 
HETATM    9  N           1     -20.402  -4.220 -10.877  0.00  0.00    -0.365 N 
HETATM   10  C           1     -21.724  -3.924 -11.121  0.00  0.00     0.042 A 
HETATM   11  H           1     -19.681  -4.405 -11.617  0.00  0.00     0.165 HD
HETATM   12  C           1     -22.341  -3.749  -9.881  0.00  0.00    -0.002 A 
HETATM   13  C           1     -22.413  -3.798 -12.332  0.00  0.00     0.030 A 
HETATM   14  C           1     -23.712  -3.435  -9.845  0.00  0.00     0.014 A 
HETATM   15  C           1     -24.417  -3.305 -11.048  0.00  0.00     0.001 A 
HETATM   16  C           1     -23.775  -3.484 -12.271  0.00  0.00     0.002 A 
ENDBRANCH   6   7
ENDBRANCH   5   6
BRANCH   5  17
HETATM   17  N           1     -23.573  -4.862  -6.410  0.00  0.00    -0.066 N 
HETATM   18  H           1     -23.969  -5.717  -5.959  0.00  0.00     0.275 HD
HETATM   19  H           1     -23.537  -4.085  -5.712  0.00  0.00     0.275 HD
HETATM   20  H           1     -24.178  -4.581  -7.215  0.00  0.00     0.275 HD
ENDBRANCH   5  17
ENDBRANCH   1   5
BRANCH   2  21
HETATM   21  C           1     -20.619  -7.607  -4.414  0.00  0.00     0.185 C 
BRANCH  21  22
HETATM   22  C           1     -21.529  -7.964  -3.246  0.00  0.00     0.038 C 
BRANCH  22  23
HETATM   23  C           1     -21.467  -6.862  -2.197  0.00  0.00     0.023 C 
BRANCH  23  24
HETATM   24  C           1     -22.219  -7.305  -0.949  0.00  0.00     0.138 C 
BRANCH  24  25
HETATM   25  N           1     -21.329  -8.106  -0.098  0.00  0.00    -0.227 N 
HETATM   26  C           1     -21.674  -9.270   0.262  0.00  0.00     0.665 C 
HETATM   27  N           1     -20.887  -9.979   1.015  0.00  0.00    -0.235 N 
HETATM   28  N           1     -22.787  -9.744  -0.114  0.00  0.00    -0.235 N 
HETATM   29  H           1     -19.968  -9.588   1.324  0.00  0.00     0.174 HD
HETATM   30  H           1     -21.171 -10.939   1.311  0.00  0.00     0.174 HD
HETATM   31  H           1     -23.423  -9.172  -0.722  0.00  0.00     0.174 HD
HETATM   32  H           1     -23.073 -10.709   0.184  0.00  0.00     0.174 HD
HETATM   33  H           1     -20.406  -7.713   0.214  0.00  0.00     0.177 HD
ENDBRANCH  24  25
ENDBRANCH  23  24
ENDBRANCH  22  23
ENDBRANCH  21  22
BRANCH  21  34
HETATM   34  C           1     -19.904  -8.848  -4.891  0.00  0.00     0.196 C 
HETATM   35  O           1     -18.737  -9.082  -4.509  0.00  0.00    -0.646 OA
HETATM   36  O           1     -20.478  -9.641  -5.668  0.00  0.00    -0.646 OA
ENDBRANCH  21  34
ENDBRANCH   2  21
TORSDOF 10
ENDMDL
MODEL 6
REMARK VINA RESULT:      -7.9      3.504      9.687
REMARK  10 active torsions:
REMARK  status: ('A' for Active; 'I' for Inactive)
REMARK    1  A    between atoms: C_2  and  C_3 
REMARK    2  A    between atoms: C_2  and  C_17 
REMARK    3  A    between atoms: C_3  and  N_4 
REMARK       I    between atoms: N_4  and  C_24 
REMARK    4  A    between atoms: C_8  and  C_19 
REMARK       I    between atoms: N_10  and  C_24 
REMARK    5  A    between atoms: C_14  and  C_15 
REMARK    6  A    between atoms: C_14  and  C_19 
REMARK    7  A    between atoms: C_14  and  N_29 
REMARK       I    between atoms: C_15  and  N_21 
REMARK    8  A    between atoms: C_17  and  C_31 
REMARK    9  A    between atoms: N_21  and  C_31 
REMARK   10  A    between atoms: C_30  and  C_31 
ROOT
HETATM    1  C           1     -20.849  -6.402  -4.810  0.00  0.00     0.249 C 
HETATM    2  N           1     -20.340  -7.595  -5.250  0.00  0.00    -0.345 N 
HETATM    3  H           1     -20.042  -7.695  -6.211  0.00  0.00     0.163 HD
HETATM    4  O           1     -21.205  -6.284  -3.662  0.00  0.00    -0.271 OA
ENDROOT
BRANCH   1   5
HETATM    5  C           1     -20.963  -5.235  -5.760  0.00  0.00     0.278 C 
BRANCH   5   6
HETATM    6  C           1     -21.049  -5.751  -7.190  0.00  0.00     0.083 C 
BRANCH   6   7
HETATM    7  C           1     -22.015  -4.911  -7.967  0.00  0.00    -0.028 A 
HETATM    8  C           1     -23.251  -4.487  -7.535  0.00  0.00     0.096 A 
HETATM    9  N           1     -23.813  -3.745  -8.541  0.00  0.00    -0.365 N 
HETATM   10  C           1     -22.960  -3.681  -9.620  0.00  0.00     0.042 A 
HETATM   11  H           1     -24.759  -3.290  -8.495  0.00  0.00     0.165 HD
HETATM   12  C           1     -21.818  -4.409  -9.284  0.00  0.00    -0.002 A 
HETATM   13  C           1     -23.111  -3.040 -10.855  0.00  0.00     0.030 A 
HETATM   14  C           1     -20.774  -4.504 -10.223  0.00  0.00     0.014 A 
HETATM   15  C           1     -20.909  -3.869 -11.463  0.00  0.00     0.001 A 
HETATM   16  C           1     -22.061  -3.149 -11.772  0.00  0.00     0.002 A 
ENDBRANCH   6   7
ENDBRANCH   5   6
BRANCH   5  17
HETATM   17  N           1     -19.757  -4.356  -5.618  0.00  0.00    -0.066 N 
HETATM   18  H           1     -19.163  -4.702  -4.831  0.00  0.00     0.275 HD
HETATM   19  H           1     -19.205  -4.376  -6.506  0.00  0.00     0.275 HD
HETATM   20  H           1     -20.061  -3.376  -5.419  0.00  0.00     0.275 HD
ENDBRANCH   5  17
ENDBRANCH   1   5
BRANCH   2  21
HETATM   21  C           1     -20.230  -8.716  -4.336  0.00  0.00     0.185 C 
BRANCH  21  22
HETATM   22  C           1     -21.486  -9.573  -4.430  0.00  0.00     0.038 C 
BRANCH  22  23
HETATM   23  C           1     -21.887 -10.040  -3.036  0.00  0.00     0.023 C 
BRANCH  23  24
HETATM   24  C           1     -21.371  -9.049  -2.001  0.00  0.00     0.138 C 
BRANCH  24  25
HETATM   25  N           1     -22.259  -9.056  -0.830  0.00  0.00    -0.227 N 
HETATM   26  C           1     -22.676  -7.964  -0.345  0.00  0.00     0.665 C 
HETATM   27  N           1     -23.462  -7.970   0.691  0.00  0.00    -0.235 N 
HETATM   28  N           1     -22.329  -6.865  -0.869  0.00  0.00    -0.235 N 
HETATM   29  H           1     -23.749  -8.877   1.123  0.00  0.00     0.174 HD
HETATM   30  H           1     -23.807  -7.069   1.091  0.00  0.00     0.174 HD
HETATM   31  H           1     -21.695  -6.860  -1.706  0.00  0.00     0.174 HD
HETATM   32  H           1     -22.675  -5.959  -0.467  0.00  0.00     0.174 HD
HETATM   33  H           1     -22.547  -9.968  -0.395  0.00  0.00     0.177 HD
ENDBRANCH  24  25
ENDBRANCH  23  24
ENDBRANCH  22  23
ENDBRANCH  21  22
BRANCH  21  34
HETATM   34  C           1     -19.025  -9.548  -4.705  0.00  0.00     0.196 C 
HETATM   35  O           1     -18.521 -10.323  -3.865  0.00  0.00    -0.646 OA
HETATM   36  O           1     -18.533  -9.460  -5.851  0.00  0.00    -0.646 OA
ENDBRANCH  21  34
ENDBRANCH   2  21
TORSDOF 10
ENDMDL
MODEL 7
REMARK VINA RESULT:      -7.7      3.218      9.687
REMARK  10 active torsions:
REMARK  status: ('A' for Active; 'I' for Inactive)
REMARK    1  A    between atoms: C_2  and  C_3 
REMARK    2  A    between atoms: C_2  and  C_17 
REMARK    3  A    between atoms: C_3  and  N_4 
REMARK       I    between atoms: N_4  and  C_24 
REMARK    4  A    between atoms: C_8  and  C_19 
REMARK       I    between atoms: N_10  and  C_24 
REMARK    5  A    between atoms: C_14  and  C_15 
REMARK    6  A    between atoms: C_14  and  C_19 
REMARK    7  A    between atoms: C_14  and  N_29 
REMARK       I    between atoms: C_15  and  N_21 
REMARK    8  A    between atoms: C_17  and  C_31 
REMARK    9  A    between atoms: N_21  and  C_31 
REMARK   10  A    between atoms: C_30  and  C_31 
ROOT
HETATM    1  C           1     -21.237  -6.313  -5.294  0.00  0.00     0.249 C 
HETATM    2  N           1     -21.196  -6.218  -3.928  0.00  0.00    -0.345 N 
HETATM    3  H           1     -20.957  -5.338  -3.489  0.00  0.00     0.163 HD
HETATM    4  O           1     -21.522  -7.364  -5.817  0.00  0.00    -0.271 OA
ENDROOT
BRANCH   1   5
HETATM    5  C           1     -20.926  -5.106  -6.144  0.00  0.00     0.278 C 
BRANCH   5   6
HETATM    6  C           1     -20.988  -5.491  -7.615  0.00  0.00     0.083 C 
BRANCH   6   7
HETATM    7  C           1     -22.104  -4.746  -8.280  0.00  0.00    -0.028 A 
HETATM    8  C           1     -23.294  -4.378  -7.696  0.00  0.00     0.096 A 
HETATM    9  N           1     -24.036  -3.717  -8.640  0.00  0.00    -0.365 N 
HETATM   10  C           1     -23.345  -3.650  -9.828  0.00  0.00     0.042 A 
HETATM   11  H           1     -24.995  -3.319  -8.478  0.00  0.00     0.165 HD
HETATM   12  C           1     -22.123  -4.292  -9.628  0.00  0.00    -0.002 A 
HETATM   13  C           1     -23.705  -3.075 -11.052  0.00  0.00     0.030 A 
HETATM   14  C           1     -21.213  -4.366 -10.700  0.00  0.00     0.014 A 
HETATM   15  C           1     -21.557  -3.796 -11.931  0.00  0.00     0.001 A 
HETATM   16  C           1     -22.786  -3.162 -12.103  0.00  0.00     0.002 A 
ENDBRANCH   6   7
ENDBRANCH   5   6
BRANCH   5  17
HETATM   17  N           1     -19.551  -4.606  -5.816  0.00  0.00    -0.066 N 
HETATM   18  H           1     -18.886  -4.895  -6.569  0.00  0.00     0.275 HD
HETATM   19  H           1     -19.566  -3.564  -5.746  0.00  0.00     0.275 HD
HETATM   20  H           1     -19.240  -5.013  -4.904  0.00  0.00     0.275 HD
ENDBRANCH   5  17
ENDBRANCH   1   5
BRANCH   2  21
HETATM   21  C           1     -21.495  -7.378  -3.111  0.00  0.00     0.185 C 
BRANCH  21  22
HETATM   22  C           1     -20.210  -8.144  -2.826  0.00  0.00     0.038 C 
BRANCH  22  23
HETATM   23  C           1     -20.375  -9.594  -3.261  0.00  0.00     0.023 C 
BRANCH  23  24
HETATM   24  C           1     -19.173 -10.014  -4.097  0.00  0.00     0.138 C 
BRANCH  24  25
HETATM   25  N           1     -17.974  -9.310  -3.619  0.00  0.00    -0.227 N 
HETATM   26  C           1     -16.970  -9.970  -3.219  0.00  0.00     0.665 C 
HETATM   27  N           1     -15.909  -9.348  -2.797  0.00  0.00    -0.235 N 
HETATM   28  N           1     -16.998 -11.236  -3.233  0.00  0.00    -0.235 N 
HETATM   29  H           1     -15.886  -8.303  -2.786  0.00  0.00     0.174 HD
HETATM   30  H           1     -15.080  -9.892  -2.468  0.00  0.00     0.174 HD
HETATM   31  H           1     -17.854 -11.738  -3.574  0.00  0.00     0.174 HD
HETATM   32  H           1     -16.165 -11.782  -2.902  0.00  0.00     0.174 HD
HETATM   33  H           1     -17.950  -8.261  -3.608  0.00  0.00     0.177 HD
ENDBRANCH  24  25
ENDBRANCH  23  24
ENDBRANCH  22  23
ENDBRANCH  21  22
BRANCH  21  34
HETATM   34  C           1     -22.113  -6.930  -1.809  0.00  0.00     0.196 C 
HETATM   35  O           1     -22.426  -5.731  -1.646  0.00  0.00    -0.646 OA
HETATM   36  O           1     -22.310  -7.757  -0.893  0.00  0.00    -0.646 OA
ENDBRANCH  21  34
ENDBRANCH   2  21
TORSDOF 10
ENDMDL
MODEL 8
REMARK VINA RESULT:      -7.7      2.715      4.139
REMARK  10 active torsions:
REMARK  status: ('A' for Active; 'I' for Inactive)
REMARK    1  A    between atoms: C_2  and  C_3 
REMARK    2  A    between atoms: C_2  and  C_17 
REMARK    3  A    between atoms: C_3  and  N_4 
REMARK       I    between atoms: N_4  and  C_24 
REMARK    4  A    between atoms: C_8  and  C_19 
REMARK       I    between atoms: N_10  and  C_24 
REMARK    5  A    between atoms: C_14  and  C_15 
REMARK    6  A    between atoms: C_14  and  C_19 
REMARK    7  A    between atoms: C_14  and  N_29 
REMARK       I    between atoms: C_15  and  N_21 
REMARK    8  A    between atoms: C_17  and  C_31 
REMARK    9  A    between atoms: N_21  and  C_31 
REMARK   10  A    between atoms: C_30  and  C_31 
ROOT
HETATM    1  C           1     -20.356  -7.676  -5.793  0.00  0.00     0.249 C 
HETATM    2  N           1     -21.320  -6.717  -5.960  0.00  0.00    -0.345 N 
HETATM    3  H           1     -22.189  -6.778  -5.444  0.00  0.00     0.163 HD
HETATM    4  O           1     -19.320  -7.603  -6.409  0.00  0.00    -0.271 OA
ENDROOT
BRANCH   1   5
HETATM    5  C           1     -20.589  -8.822  -4.840  0.00  0.00     0.278 C 
BRANCH   5   6
HETATM    6  C           1     -19.432  -8.906  -3.855  0.00  0.00     0.083 C 
BRANCH   6   7
HETATM    7  C           1     -19.947  -9.327  -2.513  0.00  0.00    -0.028 A 
HETATM    8  C           1     -19.621 -10.487  -1.847  0.00  0.00     0.096 A 
HETATM    9  N           1     -20.302 -10.491  -0.658  0.00  0.00    -0.365 N 
HETATM   10  C           1     -21.065  -9.351  -0.541  0.00  0.00     0.042 A 
HETATM   11  H           1     -20.249 -11.256   0.061  0.00  0.00     0.165 HD
HETATM   12  C           1     -20.858  -8.600  -1.698  0.00  0.00    -0.002 A 
HETATM   13  C           1     -21.912  -8.932   0.491  0.00  0.00     0.030 A 
HETATM   14  C           1     -21.528  -7.370  -1.836  0.00  0.00     0.014 A 
HETATM   15  C           1     -22.380  -6.935  -0.813  0.00  0.00     0.001 A 
HETATM   16  C           1     -22.568  -7.707   0.331  0.00  0.00     0.002 A 
ENDBRANCH   6   7
ENDBRANCH   5   6
BRANCH   5  17
HETATM   17  N           1     -20.681 -10.103  -5.613  0.00  0.00    -0.066 N 
HETATM   18  H           1     -19.903 -10.740  -5.328  0.00  0.00     0.275 HD
HETATM   19  H           1     -21.598 -10.564  -5.416  0.00  0.00     0.275 HD
HETATM   20  H           1     -20.606  -9.899  -6.636  0.00  0.00     0.275 HD
ENDBRANCH   5  17
ENDBRANCH   1   5
BRANCH   2  21
HETATM   21  C           1     -21.096  -5.616  -6.875  0.00  0.00     0.185 C 
BRANCH  21  22
HETATM   22  C           1     -22.371  -4.790  -7.000  0.00  0.00     0.038 C 
BRANCH  22  23
HETATM   23  C           1     -22.253  -3.852  -8.194  0.00  0.00     0.023 C 
BRANCH  23  24
HETATM   24  C           1     -22.605  -4.606  -9.469  0.00  0.00     0.138 C 
BRANCH  24  25
HETATM   25  N           1     -21.906  -3.997 -10.609  0.00  0.00    -0.227 N 
HETATM   26  C           1     -22.338  -4.172 -11.786  0.00  0.00     0.665 C 
HETATM   27  N           1     -21.719  -3.633 -12.794  0.00  0.00    -0.235 N 
HETATM   28  N           1     -23.375  -4.872 -11.981  0.00  0.00    -0.235 N 
HETATM   29  H           1     -20.864  -3.055 -12.633  0.00  0.00     0.174 HD
HETATM   30  H           1     -22.076  -3.777 -13.765  0.00  0.00     0.174 HD
HETATM   31  H           1     -23.875  -5.307 -11.167  0.00  0.00     0.174 HD
HETATM   32  H           1     -23.734  -5.017 -12.956  0.00  0.00     0.174 HD
HETATM   33  H           1     -21.046  -3.416 -10.447  0.00  0.00     0.177 HD
ENDBRANCH  24  25
ENDBRANCH  23  24
ENDBRANCH  22  23
ENDBRANCH  21  22
BRANCH  21  34
HETATM   34  C           1     -19.982  -4.743  -6.348  0.00  0.00     0.196 C 
HETATM   35  O           1     -19.024  -4.438  -7.090  0.00  0.00    -0.646 OA
HETATM   36  O           1     -20.019  -4.326  -5.170  0.00  0.00    -0.646 OA
ENDBRANCH  21  34
ENDBRANCH   2  21
TORSDOF 10
ENDMDL
MODEL 9
REMARK VINA RESULT:      -7.2      3.541      5.656
REMARK  10 active torsions:
REMARK  status: ('A' for Active; 'I' for Inactive)
REMARK    1  A    between atoms: C_2  and  C_3 
REMARK    2  A    between atoms: C_2  and  C_17 
REMARK    3  A    between atoms: C_3  and  N_4 
REMARK       I    between atoms: N_4  and  C_24 
REMARK    4  A    between atoms: C_8  and  C_19 
REMARK       I    between atoms: N_10  and  C_24 
REMARK    5  A    between atoms: C_14  and  C_15 
REMARK    6  A    between atoms: C_14  and  C_19 
REMARK    7  A    between atoms: C_14  and  N_29 
REMARK       I    between atoms: C_15  and  N_21 
REMARK    8  A    between atoms: C_17  and  C_31 
REMARK    9  A    between atoms: N_21  and  C_31 
REMARK   10  A    between atoms: C_30  and  C_31 
ROOT
HETATM    1  C           1     -20.008  -9.102  -4.211  0.00  0.00     0.249 C 
HETATM    2  N           1     -20.876  -8.306  -4.910  0.00  0.00    -0.345 N 
HETATM    3  H           1     -21.598  -8.723  -5.482  0.00  0.00     0.163 HD
HETATM    4  O           1     -19.146  -8.602  -3.529  0.00  0.00    -0.271 OA
ENDROOT
BRANCH   1   5
HETATM    5  C           1     -20.130 -10.603  -4.293  0.00  0.00     0.278 C 
BRANCH   5   6
HETATM    6  C           1     -21.322 -11.062  -3.465  0.00  0.00     0.083 C 
BRANCH   6   7
HETATM    7  C           1     -20.966 -11.024  -2.011  0.00  0.00    -0.028 A 
HETATM    8  C           1     -20.285 -11.999  -1.318  0.00  0.00     0.096 A 
HETATM    9  N           1     -20.164 -11.581  -0.019  0.00  0.00    -0.365 N 
HETATM   10  C           1     -20.756 -10.348   0.142  0.00  0.00     0.042 A 
HETATM   11  H           1     -19.688 -12.124   0.744  0.00  0.00     0.165 HD
HETATM   12  C           1     -21.269  -9.975  -1.100  0.00  0.00    -0.002 A 
HETATM   13  C           1     -20.874  -9.545   1.281  0.00  0.00     0.030 A 
HETATM   14  C           1     -21.933  -8.739  -1.215  0.00  0.00     0.014 A 
HETATM   15  C           1     -22.060  -7.922  -0.085  0.00  0.00     0.001 A 
HETATM   16  C           1     -21.538  -8.321   1.143  0.00  0.00     0.002 A 
ENDBRANCH   6   7
ENDBRANCH   5   6
BRANCH   5  17
HETATM   17  N           1     -18.879 -11.235  -3.760  0.00  0.00    -0.066 N 
HETATM   18  H           1     -18.107 -11.123  -4.455  0.00  0.00     0.275 HD
HETATM   19  H           1     -18.610 -10.772  -2.862  0.00  0.00     0.275 HD
HETATM   20  H           1     -19.048 -12.253  -3.590  0.00  0.00     0.275 HD
ENDBRANCH   5  17
ENDBRANCH   1   5
BRANCH   2  21
HETATM   21  C           1     -20.758  -6.862  -4.831  0.00  0.00     0.185 C 
BRANCH  21  22
HETATM   22  C           1     -20.432  -6.302  -6.210  0.00  0.00     0.038 C 
BRANCH  22  23
HETATM   23  C           1     -20.060  -4.830  -6.085  0.00  0.00     0.023 C 
BRANCH  23  24
HETATM   24  C           1     -20.575  -4.072  -7.302  0.00  0.00     0.138 C 
BRANCH  24  25
HETATM   25  N           1     -22.040  -3.982  -7.241  0.00  0.00    -0.227 N 
HETATM   26  C           1     -22.725  -4.057  -8.303  0.00  0.00     0.665 C 
HETATM   27  N           1     -24.021  -3.978  -8.249  0.00  0.00    -0.235 N 
HETATM   28  N           1     -22.146  -4.212  -9.419  0.00  0.00    -0.235 N 
HETATM   29  H           1     -24.498  -3.851  -7.328  0.00  0.00     0.174 HD
HETATM   30  H           1     -24.586  -4.041  -9.125  0.00  0.00     0.174 HD
HETATM   31  H           1     -21.099  -4.277  -9.463  0.00  0.00     0.174 HD
HETATM   32  H           1     -22.714  -4.275 -10.300  0.00  0.00     0.174 HD
HETATM   33  H           1     -22.520  -3.854  -6.315  0.00  0.00     0.177 HD
ENDBRANCH  24  25
ENDBRANCH  23  24
ENDBRANCH  22  23
ENDBRANCH  21  22
BRANCH  21  34
HETATM   34  C           1     -22.064  -6.278  -4.349  0.00  0.00     0.196 C 
HETATM   35  O           1     -22.197  -5.953  -3.149  0.00  0.00    -0.646 OA
HETATM   36  O           1     -23.012  -6.120  -5.149  0.00  0.00    -0.646 OA
ENDBRANCH  21  34
ENDBRANCH   2  21
TORSDOF 10
ENDMDL
