MODEL 1
REMARK VINA RESULT:      -6.2      0.000      0.000
REMARK  10 active torsions:
REMARK  status: ('A' for Active; 'I' for Inactive)
REMARK       I    between atoms: C_2  and  N_3 
REMARK    1  A    between atoms: C_2  and  C_4 
REMARK    2  A    between atoms: C_4  and  C_5 
REMARK    3  A    between atoms: C_5  and  C_6 
REMARK    4  A    between atoms: C_5  and  N_9 
REMARK       I    between atoms: N_9  and  C_10 
REMARK    5  A    between atoms: C_10  and  C_11 
REMARK    6  A    between atoms: C_11  and  C_12 
REMARK    7  A    between atoms: C_11  and  N_18 
REMARK    8  A    between atoms: C_12  and  O_13 
REMARK    9  A    between atoms: O_13  and  P_14 
REMARK   10  A    between atoms: P_14  and  O_15 
ROOT
HETATM    1  N           1     -21.807  -4.802  -8.580  0.00  0.00    -0.344 N 
HETATM    2  C           1     -23.128  -4.442  -8.619  0.00  0.00     0.251 C 
HETATM    3  O           1     -23.709  -4.162  -7.598  0.00  0.00    -0.271 OA
HETATM    4  H           1     -21.321  -5.037  -9.436  0.00  0.00     0.163 HD
ENDROOT
BRANCH   2   5
HETATM    5  C           1     -23.857  -4.395  -9.939  0.00  0.00     0.298 C 
BRANCH   5   6
HETATM    6  C           1     -23.061  -3.557 -10.931  0.00  0.00     0.224 C 
BRANCH   6   7
HETATM    7  O           1     -23.944  -2.856 -11.765  0.00  0.00    -0.287 OA
BRANCH   7   8
HETATM    8  P           1     -23.706  -3.028 -13.352  0.00  0.00     0.406 P 
HETATM    9  O           1     -24.483  -4.187 -13.845  0.00  0.00    -0.624 OA
HETATM   10  O           1     -24.148  -1.802 -14.054  0.00  0.00    -0.624 OA
BRANCH   8  11
HETATM   11  O           1     -22.135  -3.274 -13.638  0.00  0.00    -0.300 OA
HETATM   12  H           1     -21.688  -2.875 -12.911  0.00  0.00     0.223 HD
ENDBRANCH   8  11
ENDBRANCH   7   8
ENDBRANCH   6   7
ENDBRANCH   5   6
BRANCH   5  13
HETATM   13  N           1     -25.211  -3.781  -9.739  0.00  0.00    -0.064 N 
HETATM   14  H           1     -25.833  -4.459  -9.245  0.00  0.00     0.275 HD
HETATM   15  H           1     -25.118  -2.912  -9.166  0.00  0.00     0.275 HD
HETATM   16  H           1     -25.626  -3.542 -10.668  0.00  0.00     0.275 HD
ENDBRANCH   5  13
ENDBRANCH   2   5
BRANCH   1  17
HETATM   17  C           1     -21.106  -4.847  -7.311  0.00  0.00     0.194 C 
BRANCH  17  18
HETATM   18  C           1     -21.085  -6.280  -6.795  0.00  0.00     0.138 C 
BRANCH  18  19
HETATM   19  C           1     -21.637  -6.318  -5.391  0.00  0.00     0.217 C 
HETATM   20  O           1     -20.901  -6.541  -4.459  0.00  0.00    -0.274 OA
HETATM   21  N           1     -22.970  -6.101  -5.173  0.00  0.00    -0.370 N 
HETATM   22  H           1     -23.586  -5.915  -5.954  0.00  0.00     0.159 HD
HETATM   23  H           1     -23.340  -6.127  -4.231  0.00  0.00     0.159 HD
ENDBRANCH  18  19
ENDBRANCH  17  18
BRANCH  17  24
HETATM   24  C           1     -19.691  -4.359  -7.501  0.00  0.00     0.197 C 
HETATM   25  O           1     -18.788  -4.742  -6.725  0.00  0.00    -0.646 OA
HETATM   26  O           1     -19.421  -3.573  -8.434  0.00  0.00    -0.646 OA
ENDBRANCH  17  24
ENDBRANCH   1  17
TORSDOF 10
ENDMDL
MODEL 2
REMARK VINA RESULT:      -6.1      3.050      7.134
REMARK  10 active torsions:
REMARK  status: ('A' for Active; 'I' for Inactive)
REMARK       I    between atoms: C_2  and  N_3 
REMARK    1  A    between atoms: C_2  and  C_4 
REMARK    2  A    between atoms: C_4  and  C_5 
REMARK    3  A    between atoms: C_5  and  C_6 
REMARK    4  A    between atoms: C_5  and  N_9 
REMARK       I    between atoms: N_9  and  C_10 
REMARK    5  A    between atoms: C_10  and  C_11 
REMARK    6  A    between atoms: C_11  and  C_12 
REMARK    7  A    between atoms: C_11  and  N_18 
REMARK    8  A    between atoms: C_12  and  O_13 
REMARK    9  A    between atoms: O_13  and  P_14 
REMARK   10  A    between atoms: P_14  and  O_15 
ROOT
HETATM    1  N           1     -23.245  -4.212  -8.636  0.00  0.00    -0.344 N 
HETATM    2  C           1     -22.143  -4.175  -7.824  0.00  0.00     0.251 C 
HETATM    3  O           1     -21.122  -3.659  -8.212  0.00  0.00    -0.271 OA
HETATM    4  H           1     -24.100  -4.645  -8.311  0.00  0.00     0.163 HD
ENDROOT
BRANCH   2   5
HETATM    5  C           1     -22.204  -4.781  -6.443  0.00  0.00     0.298 C 
BRANCH   5   6
HETATM    6  C           1     -21.196  -5.919  -6.341  0.00  0.00     0.224 C 
BRANCH   6   7
HETATM    7  O           1     -20.664  -5.957  -5.044  0.00  0.00    -0.287 OA
BRANCH   7   8
HETATM    8  P           1     -21.447  -6.889  -3.984  0.00  0.00     0.406 P 
HETATM    9  O           1     -20.473  -7.513  -3.061  0.00  0.00    -0.624 OA
HETATM   10  O           1     -22.402  -6.063  -3.211  0.00  0.00    -0.624 OA
BRANCH   8  11
HETATM   11  O           1     -22.254  -8.044  -4.775  0.00  0.00    -0.300 OA
HETATM   12  H           1     -21.608  -8.468  -5.314  0.00  0.00     0.223 HD
ENDBRANCH   8  11
ENDBRANCH   7   8
ENDBRANCH   6   7
ENDBRANCH   5   6
BRANCH   5  13
HETATM   13  N           1     -23.584  -5.313  -6.192  0.00  0.00    -0.064 N 
HETATM   14  H           1     -23.671  -6.269  -6.604  0.00  0.00     0.275 HD
HETATM   15  H           1     -23.756  -5.361  -5.162  0.00  0.00     0.275 HD
HETATM   16  H           1     -24.288  -4.679  -6.633  0.00  0.00     0.275 HD
ENDBRANCH   5  13
ENDBRANCH   2   5
BRANCH   1  17
HETATM   17  C           1     -23.185  -3.630  -9.963  0.00  0.00     0.194 C 
BRANCH  17  18
HETATM   18  C           1     -22.639  -4.660 -10.943  0.00  0.00     0.138 C 
BRANCH  18  19
HETATM   19  C           1     -21.594  -4.016 -11.820  0.00  0.00     0.217 C 
HETATM   20  O           1     -20.448  -3.948 -11.443  0.00  0.00    -0.274 OA
HETATM   21  N           1     -21.943  -3.509 -13.042  0.00  0.00    -0.370 N 
HETATM   22  H           1     -22.902  -3.566 -13.358  0.00  0.00     0.159 HD
HETATM   23  H           1     -21.241  -3.077 -13.631  0.00  0.00     0.159 HD
ENDBRANCH  18  19
ENDBRANCH  17  18
BRANCH  17  24
HETATM   24  C           1     -24.571  -3.212 -10.391  0.00  0.00     0.197 C 
HETATM   25  O           1     -25.420  -2.892  -9.532  0.00  0.00    -0.646 OA
HETATM   26  O           1     -24.869  -3.187 -11.605  0.00  0.00    -0.646 OA
ENDBRANCH  17  24
ENDBRANCH   1  17
TORSDOF 10
ENDMDL
MODEL 3
REMARK VINA RESULT:      -5.7      4.423      8.648
REMARK  10 active torsions:
REMARK  status: ('A' for Active; 'I' for Inactive)
REMARK       I    between atoms: C_2  and  N_3 
REMARK    1  A    between atoms: C_2  and  C_4 
REMARK    2  A    between atoms: C_4  and  C_5 
REMARK    3  A    between atoms: C_5  and  C_6 
REMARK    4  A    between atoms: C_5  and  N_9 
REMARK       I    between atoms: N_9  and  C_10 
REMARK    5  A    between atoms: C_10  and  C_11 
REMARK    6  A    between atoms: C_11  and  C_12 
REMARK    7  A    between atoms: C_11  and  N_18 
REMARK    8  A    between atoms: C_12  and  O_13 
REMARK    9  A    between atoms: O_13  and  P_14 
REMARK   10  A    between atoms: P_14  and  O_15 
ROOT
HETATM    1  N           1     -20.970  -5.285  -5.078  0.00  0.00    -0.344 N 
HETATM    2  C           1     -21.456  -6.362  -4.385  0.00  0.00     0.251 C 
HETATM    3  O           1     -21.997  -7.266  -4.975  0.00  0.00    -0.271 OA
HETATM    4  H           1     -20.517  -4.527  -4.583  0.00  0.00     0.163 HD
ENDROOT
BRANCH   2   5
HETATM    5  C           1     -21.316  -6.418  -2.884  0.00  0.00     0.298 C 
BRANCH   5   6
HETATM    6  C           1     -21.285  -7.872  -2.430  0.00  0.00     0.224 C 
BRANCH   6   7
HETATM    7  O           1     -20.895  -7.933  -1.084  0.00  0.00    -0.287 OA
BRANCH   7   8
HETATM    8  P           1     -22.013  -8.462  -0.046  0.00  0.00     0.406 P 
HETATM    9  O           1     -23.102  -7.466   0.057  0.00  0.00    -0.624 OA
HETATM   10  O           1     -22.564  -9.749  -0.528  0.00  0.00    -0.624 OA
BRANCH   8  11
HETATM   11  O           1     -21.340  -8.676   1.407  0.00  0.00    -0.300 OA
HETATM   12  H           1     -21.625  -7.939   1.919  0.00  0.00     0.223 HD
ENDBRANCH   8  11
ENDBRANCH   7   8
ENDBRANCH   6   7
ENDBRANCH   5   6
BRANCH   5  13
HETATM   13  N           1     -22.482  -5.721  -2.247  0.00  0.00    -0.064 N 
HETATM   14  H           1     -22.177  -4.789  -1.886  0.00  0.00     0.275 HD
HETATM   15  H           1     -23.237  -5.588  -2.957  0.00  0.00     0.275 HD
HETATM   16  H           1     -22.843  -6.299  -1.456  0.00  0.00     0.275 HD
ENDBRANCH   5  13
ENDBRANCH   2   5
BRANCH   1  17
HETATM   17  C           1     -21.105  -5.232  -6.521  0.00  0.00     0.194 C 
BRANCH  17  18
HETATM   18  C           1     -21.523  -3.829  -6.939  0.00  0.00     0.138 C 
BRANCH  18  19
HETATM   19  C           1     -22.470  -3.913  -8.111  0.00  0.00     0.217 C 
HETATM   20  O           1     -22.048  -3.793  -9.237  0.00  0.00    -0.274 OA
HETATM   21  N           1     -23.805  -4.125  -7.899  0.00  0.00    -0.370 N 
HETATM   22  H           1     -24.158  -4.225  -6.956  0.00  0.00     0.159 HD
HETATM   23  H           1     -24.440  -4.181  -8.686  0.00  0.00     0.159 HD
ENDBRANCH  18  19
ENDBRANCH  17  18
BRANCH  17  24
HETATM   24  C           1     -19.782  -5.575  -7.162  0.00  0.00     0.197 C 
HETATM   25  O           1     -19.406  -6.766  -7.220  0.00  0.00    -0.646 OA
HETATM   26  O           1     -19.063  -4.668  -7.635  0.00  0.00    -0.646 OA
ENDBRANCH  17  24
ENDBRANCH   1  17
TORSDOF 10
ENDMDL
MODEL 4
REMARK VINA RESULT:      -5.4      4.056      6.760
REMARK  10 active torsions:
REMARK  status: ('A' for Active; 'I' for Inactive)
REMARK       I    between atoms: C_2  and  N_3 
REMARK    1  A    between atoms: C_2  and  C_4 
REMARK    2  A    between atoms: C_4  and  C_5 
REMARK    3  A    between atoms: C_5  and  C_6 
REMARK    4  A    between atoms: C_5  and  N_9 
REMARK       I    between atoms: N_9  and  C_10 
REMARK    5  A    between atoms: C_10  and  C_11 
REMARK    6  A    between atoms: C_11  and  C_12 
REMARK    7  A    between atoms: C_11  and  N_18 
REMARK    8  A    between atoms: C_12  and  O_13 
REMARK    9  A    between atoms: O_13  and  P_14 
REMARK   10  A    between atoms: P_14  and  O_15 
ROOT
HETATM    1  N           1     -21.634  -8.165  -2.887  0.00  0.00    -0.344 N 
HETATM    2  C           1     -20.998  -7.935  -4.077  0.00  0.00     0.251 C 
HETATM    3  O           1     -19.871  -8.336  -4.249  0.00  0.00    -0.271 OA
HETATM    4  H           1     -22.577  -7.829  -2.743  0.00  0.00     0.163 HD
ENDROOT
BRANCH   2   5
HETATM    5  C           1     -21.705  -7.181  -5.176  0.00  0.00     0.298 C 
BRANCH   5   6
HETATM    6  C           1     -20.686  -6.397  -5.993  0.00  0.00     0.224 C 
BRANCH   6   7
HETATM    7  O           1     -21.158  -6.240  -7.304  0.00  0.00    -0.287 OA
BRANCH   7   8
HETATM    8  P           1     -21.564  -4.739  -7.736  0.00  0.00     0.406 P 
HETATM    9  O           1     -20.573  -3.783  -7.193  0.00  0.00    -0.624 OA
HETATM   10  O           1     -21.589  -4.640  -9.213  0.00  0.00    -0.624 OA
BRANCH   8  11
HETATM   11  O           1     -23.027  -4.386  -7.149  0.00  0.00    -0.300 OA
HETATM   12  H           1     -23.297  -5.161  -6.685  0.00  0.00     0.223 HD
ENDBRANCH   8  11
ENDBRANCH   7   8
ENDBRANCH   6   7
ENDBRANCH   5   6
BRANCH   5  13
HETATM   13  N           1     -22.696  -6.231  -4.571  0.00  0.00    -0.064 N 
HETATM   14  H           1     -23.553  -6.756  -4.283  0.00  0.00     0.275 HD
HETATM   15  H           1     -22.272  -5.772  -3.734  0.00  0.00     0.275 HD
HETATM   16  H           1     -22.956  -5.503  -5.275  0.00  0.00     0.275 HD
ENDBRANCH   5  13
ENDBRANCH   2   5
BRANCH   1  17
HETATM   17  C           1     -20.953  -8.891  -1.831  0.00  0.00     0.194 C 
BRANCH  17  18
HETATM   18  C           1     -21.097  -8.130  -0.520  0.00  0.00     0.138 C 
BRANCH  18  19
HETATM   19  C           1     -22.419  -7.402  -0.501  0.00  0.00     0.217 C 
HETATM   20  O           1     -22.572  -6.411  -1.175  0.00  0.00    -0.274 OA
HETATM   21  N           1     -23.444  -7.865   0.278  0.00  0.00    -0.370 N 
HETATM   22  H           1     -23.316  -8.695   0.842  0.00  0.00     0.159 HD
HETATM   23  H           1     -24.331  -7.377   0.290  0.00  0.00     0.159 HD
ENDBRANCH  18  19
ENDBRANCH  17  18
BRANCH  17  24
HETATM   24  C           1     -21.567 -10.262  -1.687  0.00  0.00     0.197 C 
HETATM   25  O           1     -20.852 -11.282  -1.803  0.00  0.00    -0.646 OA
HETATM   26  O           1     -22.789 -10.378  -1.453  0.00  0.00    -0.646 OA
ENDBRANCH  17  24
ENDBRANCH   1  17
TORSDOF 10
ENDMDL
MODEL 5
REMARK VINA RESULT:      -5.4      3.418      7.103
REMARK  10 active torsions:
REMARK  status: ('A' for Active; 'I' for Inactive)
REMARK       I    between atoms: C_2  and  N_3 
REMARK    1  A    between atoms: C_2  and  C_4 
REMARK    2  A    between atoms: C_4  and  C_5 
REMARK    3  A    between atoms: C_5  and  C_6 
REMARK    4  A    between atoms: C_5  and  N_9 
REMARK       I    between atoms: N_9  and  C_10 
REMARK    5  A    between atoms: C_10  and  C_11 
REMARK    6  A    between atoms: C_11  and  C_12 
REMARK    7  A    between atoms: C_11  and  N_18 
REMARK    8  A    between atoms: C_12  and  O_13 
REMARK    9  A    between atoms: O_13  and  P_14 
REMARK   10  A    between atoms: P_14  and  O_15 
ROOT
HETATM    1  N           1     -21.853  -4.775  -7.151  0.00  0.00    -0.344 N 
HETATM    2  C           1     -21.427  -5.905  -6.506  0.00  0.00     0.251 C 
HETATM    3  O           1     -21.032  -6.853  -7.143  0.00  0.00    -0.271 OA
HETATM    4  H           1     -22.185  -3.982  -6.618  0.00  0.00     0.163 HD
ENDROOT
BRANCH   2   5
HETATM    5  C           1     -21.452  -5.967  -4.999  0.00  0.00     0.298 C 
BRANCH   5   6
HETATM    6  C           1     -20.588  -7.129  -4.523  0.00  0.00     0.224 C 
BRANCH   6   7
HETATM    7  O           1     -21.398  -8.092  -3.906  0.00  0.00    -0.287 OA
BRANCH   7   8
HETATM    8  P           1     -21.144  -9.622  -4.352  0.00  0.00     0.406 P 
HETATM    9  O           1     -19.892 -10.115  -3.735  0.00  0.00    -0.624 OA
HETATM   10  O           1     -22.278 -10.462  -3.906  0.00  0.00    -0.624 OA
BRANCH   8  11
HETATM   11  O           1     -21.017  -9.701  -5.960  0.00  0.00    -0.300 OA
HETATM   12  H           1     -20.542 -10.497  -6.130  0.00  0.00     0.223 HD
ENDBRANCH   8  11
ENDBRANCH   7   8
ENDBRANCH   6   7
ENDBRANCH   5   6
BRANCH   5  13
HETATM   13  N           1     -22.862  -6.170  -4.530  0.00  0.00    -0.064 N 
HETATM   14  H           1     -22.966  -7.135  -4.142  0.00  0.00     0.275 HD
HETATM   15  H           1     -23.086  -5.470  -3.788  0.00  0.00     0.275 HD
HETATM   16  H           1     -23.518  -6.048  -5.335  0.00  0.00     0.275 HD
ENDBRANCH   5  13
ENDBRANCH   2   5
BRANCH   1  17
HETATM   17  C           1     -21.829  -4.716  -8.600  0.00  0.00     0.194 C 
BRANCH  17  18
HETATM   18  C           1     -22.833  -3.677  -9.081  0.00  0.00     0.138 C 
BRANCH  18  19
HETATM   19  C           1     -23.986  -4.369  -9.765  0.00  0.00     0.217 C 
HETATM   20  O           1     -23.777  -5.293 -10.514  0.00  0.00    -0.274 OA
HETATM   21  N           1     -25.269  -3.949  -9.538  0.00  0.00    -0.370 N 
HETATM   22  H           1     -25.444  -3.175  -8.910  0.00  0.00     0.159 HD
HETATM   23  H           1     -26.042  -4.414  -9.997  0.00  0.00     0.159 HD
ENDBRANCH  18  19
ENDBRANCH  17  18
BRANCH  17  24
HETATM   24  C           1     -20.445  -4.333  -9.065  0.00  0.00     0.197 C 
HETATM   25  O           1     -19.688  -3.688  -8.307  0.00  0.00    -0.646 OA
HETATM   26  O           1     -20.057  -4.660 -10.207  0.00  0.00    -0.646 OA
ENDBRANCH  17  24
ENDBRANCH   1  17
TORSDOF 10
ENDMDL
MODEL 6
REMARK VINA RESULT:      -5.3      5.617      7.725
REMARK  10 active torsions:
REMARK  status: ('A' for Active; 'I' for Inactive)
REMARK       I    between atoms: C_2  and  N_3 
REMARK    1  A    between atoms: C_2  and  C_4 
REMARK    2  A    between atoms: C_4  and  C_5 
REMARK    3  A    between atoms: C_5  and  C_6 
REMARK    4  A    between atoms: C_5  and  N_9 
REMARK       I    between atoms: N_9  and  C_10 
REMARK    5  A    between atoms: C_10  and  C_11 
REMARK    6  A    between atoms: C_11  and  C_12 
REMARK    7  A    between atoms: C_11  and  N_18 
REMARK    8  A    between atoms: C_12  and  O_13 
REMARK    9  A    between atoms: O_13  and  P_14 
REMARK   10  A    between atoms: P_14  and  O_15 
ROOT
HETATM    1  N           1     -21.010  -8.268  -2.795  0.00  0.00    -0.344 N 
HETATM    2  C           1     -21.046  -9.336  -3.652  0.00  0.00     0.251 C 
HETATM    3  O           1     -21.706 -10.310  -3.377  0.00  0.00    -0.271 OA
HETATM    4  H           1     -20.457  -7.453  -3.025  0.00  0.00     0.163 HD
ENDROOT
BRANCH   2   5
HETATM    5  C           1     -20.262  -9.295  -4.940  0.00  0.00     0.298 C 
BRANCH   5   6
HETATM    6  C           1     -19.857  -7.858  -5.244  0.00  0.00     0.224 C 
BRANCH   6   7
HETATM    7  O           1     -20.737  -7.314  -6.191  0.00  0.00    -0.287 OA
BRANCH   7   8
HETATM    8  P           1     -21.469  -5.939  -5.770  0.00  0.00     0.406 P 
HETATM    9  O           1     -20.515  -5.075  -5.039  0.00  0.00    -0.624 OA
HETATM   10  O           1     -21.939  -5.238  -6.986  0.00  0.00    -0.624 OA
BRANCH   8  11
HETATM   11  O           1     -22.732  -6.269  -4.818  0.00  0.00    -0.300 OA
HETATM   12  H           1     -22.638  -7.180  -4.595  0.00  0.00     0.223 HD
ENDBRANCH   8  11
ENDBRANCH   7   8
ENDBRANCH   6   7
ENDBRANCH   5   6
BRANCH   5  13
HETATM   13  N           1     -21.110  -9.822  -6.059  0.00  0.00    -0.064 N 
HETATM   14  H           1     -20.523 -10.399  -6.701  0.00  0.00     0.275 HD
HETATM   15  H           1     -21.878 -10.411  -5.665  0.00  0.00     0.275 HD
HETATM   16  H           1     -21.522  -9.022  -6.590  0.00  0.00     0.275 HD
ENDBRANCH   5  13
ENDBRANCH   2   5
BRANCH   1  17
HETATM   17  C           1     -21.765  -8.308  -1.557  0.00  0.00     0.194 C 
BRANCH  17  18
HETATM   18  C           1     -20.841  -8.709  -0.414  0.00  0.00     0.138 C 
BRANCH  18  19
HETATM   19  C           1     -21.313 -10.012   0.182  0.00  0.00     0.217 C 
HETATM   20  O           1     -20.729 -10.492   1.124  0.00  0.00    -0.274 OA
HETATM   21  N           1     -22.403 -10.651  -0.344  0.00  0.00    -0.370 N 
HETATM   22  H           1     -22.893 -10.249  -1.133  0.00  0.00     0.159 HD
HETATM   23  H           1     -22.720 -11.525   0.056  0.00  0.00     0.159 HD
ENDBRANCH  18  19
ENDBRANCH  17  18
BRANCH  17  24
HETATM   24  C           1     -22.347  -6.944  -1.279  0.00  0.00     0.197 C 
HETATM   25  O           1     -22.209  -6.024  -2.115  0.00  0.00    -0.646 OA
HETATM   26  O           1     -22.966  -6.734  -0.214  0.00  0.00    -0.646 OA
ENDBRANCH  17  24
ENDBRANCH   1  17
TORSDOF 10
ENDMDL
MODEL 7
REMARK VINA RESULT:      -5.1      4.585      6.765
REMARK  10 active torsions:
REMARK  status: ('A' for Active; 'I' for Inactive)
REMARK       I    between atoms: C_2  and  N_3 
REMARK    1  A    between atoms: C_2  and  C_4 
REMARK    2  A    between atoms: C_4  and  C_5 
REMARK    3  A    between atoms: C_5  and  C_6 
REMARK    4  A    between atoms: C_5  and  N_9 
REMARK       I    between atoms: N_9  and  C_10 
REMARK    5  A    between atoms: C_10  and  C_11 
REMARK    6  A    between atoms: C_11  and  C_12 
REMARK    7  A    between atoms: C_11  and  N_18 
REMARK    8  A    between atoms: C_12  and  O_13 
REMARK    9  A    between atoms: O_13  and  P_14 
REMARK   10  A    between atoms: P_14  and  O_15 
ROOT
HETATM    1  N           1     -20.758  -7.609  -2.948  0.00  0.00    -0.344 N 
HETATM    2  C           1     -21.014  -7.876  -4.266  0.00  0.00     0.251 C 
HETATM    3  O           1     -21.987  -8.521  -4.575  0.00  0.00    -0.271 OA
HETATM    4  H           1     -19.942  -7.070  -2.689  0.00  0.00     0.163 HD
ENDROOT
BRANCH   2   5
HETATM    5  C           1     -20.078  -7.365  -5.334  0.00  0.00     0.298 C 
BRANCH   5   6
HETATM    6  C           1     -20.887  -6.724  -6.455  0.00  0.00     0.224 C 
BRANCH   6   7
HETATM    7  O           1     -21.407  -5.498  -6.014  0.00  0.00    -0.287 OA
BRANCH   7   8
HETATM    8  P           1     -22.051  -4.552  -7.153  0.00  0.00     0.406 P 
HETATM    9  O           1     -21.415  -3.217  -7.102  0.00  0.00    -0.624 OA
HETATM   10  O           1     -21.824  -5.158  -8.484  0.00  0.00    -0.624 OA
BRANCH   8  11
HETATM   11  O           1     -23.638  -4.402  -6.894  0.00  0.00    -0.300 OA
HETATM   12  H           1     -23.754  -4.575  -5.975  0.00  0.00     0.223 HD
ENDBRANCH   8  11
ENDBRANCH   7   8
ENDBRANCH   6   7
ENDBRANCH   5   6
BRANCH   5  13
HETATM   13  N           1     -19.279  -8.508  -5.886  0.00  0.00    -0.064 N 
HETATM   14  H           1     -19.016  -8.304  -6.877  0.00  0.00     0.275 HD
HETATM   15  H           1     -18.412  -8.634  -5.316  0.00  0.00     0.275 HD
HETATM   16  H           1     -19.850  -9.382  -5.851  0.00  0.00     0.275 HD
ENDBRANCH   5  13
ENDBRANCH   2   5
BRANCH   1  17
HETATM   17  C           1     -21.658  -8.101  -1.922  0.00  0.00     0.194 C 
BRANCH  17  18
HETATM   18  C           1     -20.857  -8.836  -0.856  0.00  0.00     0.138 C 
BRANCH  18  19
HETATM   19  C           1     -20.626 -10.262  -1.292  0.00  0.00     0.217 C 
HETATM   20  O           1     -21.271 -10.727  -2.202  0.00  0.00    -0.274 OA
HETATM   21  N           1     -19.688 -11.029  -0.657  0.00  0.00    -0.370 N 
HETATM   22  H           1     -19.148 -10.639   0.106  0.00  0.00     0.159 HD
HETATM   23  H           1     -19.533 -11.986  -0.949  0.00  0.00     0.159 HD
ENDBRANCH  18  19
ENDBRANCH  17  18
BRANCH  17  24
HETATM   24  C           1     -22.386  -6.939  -1.293  0.00  0.00     0.197 C 
HETATM   25  O           1     -22.941  -7.077  -0.181  0.00  0.00    -0.646 OA
HETATM   26  O           1     -22.435  -5.838  -1.884  0.00  0.00    -0.646 OA
ENDBRANCH  17  24
ENDBRANCH   1  17
TORSDOF 10
ENDMDL
MODEL 8
REMARK VINA RESULT:      -5.1      6.815      9.034
REMARK  10 active torsions:
REMARK  status: ('A' for Active; 'I' for Inactive)
REMARK       I    between atoms: C_2  and  N_3 
REMARK    1  A    between atoms: C_2  and  C_4 
REMARK    2  A    between atoms: C_4  and  C_5 
REMARK    3  A    between atoms: C_5  and  C_6 
REMARK    4  A    between atoms: C_5  and  N_9 
REMARK       I    between atoms: N_9  and  C_10 
REMARK    5  A    between atoms: C_10  and  C_11 
REMARK    6  A    between atoms: C_11  and  C_12 
REMARK    7  A    between atoms: C_11  and  N_18 
REMARK    8  A    between atoms: C_12  and  O_13 
REMARK    9  A    between atoms: O_13  and  P_14 
REMARK   10  A    between atoms: P_14  and  O_15 
ROOT
HETATM    1  N           1     -21.789  -9.395  -1.876  0.00  0.00    -0.344 N 
HETATM    2  C           1     -20.481  -9.639  -2.199  0.00  0.00     0.251 C 
HETATM    3  O           1     -19.897 -10.571  -1.699  0.00  0.00    -0.271 OA
HETATM    4  H           1     -22.277  -8.614  -2.295  0.00  0.00     0.163 HD
ENDROOT
BRANCH   2   5
HETATM    5  C           1     -19.767  -8.741  -3.180  0.00  0.00     0.298 C 
BRANCH   5   6
HETATM    6  C           1     -20.492  -8.774  -4.520  0.00  0.00     0.224 C 
BRANCH   6   7
HETATM    7  O           1     -21.747  -8.162  -4.388  0.00  0.00    -0.287 OA
BRANCH   7   8
HETATM    8  P           1     -21.759  -6.550  -4.451  0.00  0.00     0.406 P 
HETATM    9  O           1     -20.539  -6.073  -5.139  0.00  0.00    -0.624 OA
HETATM   10  O           1     -22.956  -6.094  -5.194  0.00  0.00    -0.624 OA
BRANCH   8  11
HETATM   11  O           1     -21.798  -5.952  -2.950  0.00  0.00    -0.300 OA
HETATM   12  H           1     -20.979  -6.210  -2.563  0.00  0.00     0.223 HD
ENDBRANCH   8  11
ENDBRANCH   7   8
ENDBRANCH   6   7
ENDBRANCH   5   6
BRANCH   5  13
HETATM   13  N           1     -18.358  -9.222  -3.363  0.00  0.00    -0.064 N 
HETATM   14  H           1     -17.837  -8.553  -3.973  0.00  0.00     0.275 HD
HETATM   15  H           1     -17.887  -9.283  -2.432  0.00  0.00     0.275 HD
HETATM   16  H           1     -18.368 -10.166  -3.811  0.00  0.00     0.275 HD
ENDBRANCH   5  13
ENDBRANCH   2   5
BRANCH   1  17
HETATM   17  C           1     -22.475 -10.258  -0.934  0.00  0.00     0.194 C 
BRANCH  17  18
HETATM   18  C           1     -23.334  -9.411  -0.005  0.00  0.00     0.138 C 
BRANCH  18  19
HETATM   19  C           1     -22.654  -8.088   0.245  0.00  0.00     0.217 C 
HETATM   20  O           1     -22.914  -7.135  -0.451  0.00  0.00    -0.274 OA
HETATM   21  N           1     -21.742  -7.966   1.258  0.00  0.00    -0.370 N 
HETATM   22  H           1     -21.524  -8.765   1.841  0.00  0.00     0.159 HD
HETATM   23  H           1     -21.286  -7.078   1.425  0.00  0.00     0.159 HD
ENDBRANCH  18  19
ENDBRANCH  17  18
BRANCH  17  24
HETATM   24  C           1     -23.352 -11.228  -1.686  0.00  0.00     0.197 C 
HETATM   25  O           1     -24.226 -11.883  -1.077  0.00  0.00    -0.646 OA
HETATM   26  O           1     -23.205 -11.377  -2.918  0.00  0.00    -0.646 OA
ENDBRANCH  17  24
ENDBRANCH   1  17
TORSDOF 10
ENDMDL
MODEL 9
REMARK VINA RESULT:      -5.0      5.347      8.133
REMARK  10 active torsions:
REMARK  status: ('A' for Active; 'I' for Inactive)
REMARK       I    between atoms: C_2  and  N_3 
REMARK    1  A    between atoms: C_2  and  C_4 
REMARK    2  A    between atoms: C_4  and  C_5 
REMARK    3  A    between atoms: C_5  and  C_6 
REMARK    4  A    between atoms: C_5  and  N_9 
REMARK       I    between atoms: N_9  and  C_10 
REMARK    5  A    between atoms: C_10  and  C_11 
REMARK    6  A    between atoms: C_11  and  C_12 
REMARK    7  A    between atoms: C_11  and  N_18 
REMARK    8  A    between atoms: C_12  and  O_13 
REMARK    9  A    between atoms: O_13  and  P_14 
REMARK   10  A    between atoms: P_14  and  O_15 
ROOT
HETATM    1  N           1     -21.689  -8.965  -1.454  0.00  0.00    -0.344 N 
HETATM    2  C           1     -21.719  -7.713  -2.008  0.00  0.00     0.251 C 
HETATM    3  O           1     -22.247  -6.802  -1.417  0.00  0.00    -0.271 OA
HETATM    4  H           1     -21.247  -9.728  -1.951  0.00  0.00     0.163 HD
ENDROOT
BRANCH   2   5
HETATM    5  C           1     -21.093  -7.472  -3.360  0.00  0.00     0.298 C 
BRANCH   5   6
HETATM    6  C           1     -21.302  -6.018  -3.765  0.00  0.00     0.224 C 
BRANCH   6   7
HETATM    7  O           1     -22.145  -5.961  -4.884  0.00  0.00    -0.287 OA
BRANCH   7   8
HETATM    8  P           1     -21.482  -5.396  -6.243  0.00  0.00     0.406 P 
HETATM    9  O           1     -22.506  -4.671  -7.028  0.00  0.00    -0.624 OA
HETATM   10  O           1     -20.374  -4.474  -5.905  0.00  0.00    -0.624 OA
BRANCH   8  11
HETATM   11  O           1     -20.909  -6.628  -7.116  0.00  0.00    -0.300 OA
HETATM   12  H           1     -21.360  -7.389  -6.791  0.00  0.00     0.223 HD
ENDBRANCH   8  11
ENDBRANCH   7   8
ENDBRANCH   6   7
ENDBRANCH   5   6
BRANCH   5  13
HETATM   13  N           1     -21.734  -8.370  -4.375  0.00  0.00    -0.064 N 
HETATM   14  H           1     -22.743  -8.118  -4.478  0.00  0.00     0.275 HD
HETATM   15  H           1     -21.252  -8.256  -5.295  0.00  0.00     0.275 HD
HETATM   16  H           1     -21.655  -9.364  -4.061  0.00  0.00     0.275 HD
ENDBRANCH   5  13
ENDBRANCH   2   5
BRANCH   1  17
HETATM   17  C           1     -22.291  -9.197  -0.155  0.00  0.00     0.194 C 
BRANCH  17  18
HETATM   18  C           1     -23.257 -10.370  -0.247  0.00  0.00     0.138 C 
BRANCH  18  19
HETATM   19  C           1     -22.867 -11.254  -1.407  0.00  0.00     0.217 C 
HETATM   20  O           1     -23.281 -11.012  -2.516  0.00  0.00    -0.274 OA
HETATM   21  N           1     -22.047 -12.330  -1.202  0.00  0.00    -0.370 N 
HETATM   22  H           1     -21.700 -12.532  -0.273  0.00  0.00     0.159 HD
HETATM   23  H           1     -21.785 -12.923  -1.980  0.00  0.00     0.159 HD
ENDBRANCH  18  19
ENDBRANCH  17  18
BRANCH  17  24
HETATM   24  C           1     -21.210  -9.511   0.850  0.00  0.00     0.197 C 
HETATM   25  O           1     -20.582 -10.589   0.776  0.00  0.00    -0.646 OA
HETATM   26  O           1     -20.944  -8.693   1.758  0.00  0.00    -0.646 OA
ENDBRANCH  17  24
ENDBRANCH   1  17
TORSDOF 10
ENDMDL
