MODEL 1
REMARK VINA RESULT:      -6.3      0.000      0.000
REMARK  8 active torsions:
REMARK  status: ('A' for Active; 'I' for Inactive)
REMARK       I    between atoms: C_2  and  N_3 
REMARK    1  A    between atoms: C_2  and  C_12 
REMARK    2  A    between atoms: N_3  and  C_7 
REMARK    3  A    between atoms: C_5  and  C_14 
REMARK    4  A    between atoms: C_5  and  C_6 
REMARK    5  A    between atoms: C_6  and  N_20 
REMARK    6  A    between atoms: C_7  and  C_8 
REMARK    7  A    between atoms: C_12  and  C_14 
REMARK    8  A    between atoms: C_12  and  N_19 
ROOT
HETATM    1  C           1     -34.325  -2.376 -12.006  0.00  0.00     0.274 C 
ENDROOT
BRANCH   1   2
HETATM    2  C           1     -35.289  -1.604 -12.870  0.00  0.00     0.249 C 
HETATM    3  N           1     -34.882  -1.114 -14.083  0.00  0.00    -0.345 N 
HETATM    4  H           1     -33.934  -1.271 -14.398  0.00  0.00     0.163 HD
HETATM    5  O           1     -36.422  -1.415 -12.494  0.00  0.00    -0.271 OA
BRANCH   3   6
HETATM    6  C           1     -35.809  -0.372 -14.914  0.00  0.00     0.181 C 
HETATM    7  C           1     -35.377   1.087 -14.977  0.00  0.00     0.043 C 
BRANCH   6   8
HETATM    8  C           1     -35.814  -0.956 -16.305  0.00  0.00     0.196 C 
HETATM    9  O           1     -36.769  -0.724 -17.077  0.00  0.00    -0.646 OA
HETATM   10  O           1     -34.863  -1.673 -16.686  0.00  0.00    -0.646 OA
ENDBRANCH   6   8
ENDBRANCH   3   6
ENDBRANCH   1   2
BRANCH   1  11
HETATM   11  C           1     -35.020  -3.608 -11.441  0.00  0.00     0.044 C 
BRANCH  11  12
HETATM   12  C           1     -34.058  -4.363 -10.534  0.00  0.00     0.030 C 
BRANCH  12  13
HETATM   13  C           1     -33.747  -5.724 -11.143  0.00  0.00     0.230 C 
BRANCH  13  14
HETATM   14  N           1     -34.721  -6.014 -12.245  0.00  0.00    -0.079 N 
HETATM   15  H           1     -35.592  -5.458 -12.094  0.00  0.00     0.274 HD
HETATM   16  H           1     -34.296  -5.753 -13.163  0.00  0.00     0.274 HD
HETATM   17  H           1     -34.952  -7.033 -12.246  0.00  0.00     0.274 HD
ENDBRANCH  13  14
ENDBRANCH  12  13
ENDBRANCH  11  12
ENDBRANCH   1  11
BRANCH   1  18
HETATM   18  N           1     -33.858  -1.506 -10.877  0.00  0.00    -0.067 N 
HETATM   19  H           1     -33.000  -0.985 -11.170  0.00  0.00     0.275 HD
HETATM   20  H           1     -33.639  -2.100 -10.046  0.00  0.00     0.275 HD
HETATM   21  H           1     -34.610  -0.825 -10.627  0.00  0.00     0.275 HD
ENDBRANCH   1  18
TORSDOF 8
ENDMDL
MODEL 2
REMARK VINA RESULT:      -6.0     11.896     12.866
REMARK  8 active torsions:
REMARK  status: ('A' for Active; 'I' for Inactive)
REMARK       I    between atoms: C_2  and  N_3 
REMARK    1  A    between atoms: C_2  and  C_12 
REMARK    2  A    between atoms: N_3  and  C_7 
REMARK    3  A    between atoms: C_5  and  C_14 
REMARK    4  A    between atoms: C_5  and  C_6 
REMARK    5  A    between atoms: C_6  and  N_20 
REMARK    6  A    between atoms: C_7  and  C_8 
REMARK    7  A    between atoms: C_12  and  C_14 
REMARK    8  A    between atoms: C_12  and  N_19 
ROOT
HETATM    1  C           1     -21.115  -4.404 -10.743  0.00  0.00     0.274 C 
ENDROOT
BRANCH   1   2
HETATM    2  C           1     -22.348  -4.308 -11.607  0.00  0.00     0.249 C 
HETATM    3  N           1     -22.356  -3.481 -12.699  0.00  0.00    -0.345 N 
HETATM    4  H           1     -21.535  -2.935 -12.926  0.00  0.00     0.163 HD
HETATM    5  O           1     -23.329  -4.959 -11.337  0.00  0.00    -0.271 OA
BRANCH   3   6
HETATM    6  C           1     -23.540  -3.387 -13.530  0.00  0.00     0.181 C 
HETATM    7  C           1     -24.696  -2.835 -12.706  0.00  0.00     0.043 C 
BRANCH   6   8
HETATM    8  C           1     -23.266  -2.467 -14.693  0.00  0.00     0.196 C 
HETATM    9  O           1     -22.352  -2.737 -15.503  0.00  0.00    -0.646 OA
HETATM   10  O           1     -23.952  -1.433 -14.848  0.00  0.00    -0.646 OA
ENDBRANCH   6   8
ENDBRANCH   3   6
ENDBRANCH   1   2
BRANCH   1  11
HETATM   11  C           1     -21.394  -3.771  -9.386  0.00  0.00     0.044 C 
BRANCH  11  12
HETATM   12  C           1     -21.661  -4.865  -8.360  0.00  0.00     0.030 C 
BRANCH  12  13
HETATM   13  C           1     -22.828  -4.455  -7.472  0.00  0.00     0.230 C 
BRANCH  13  14
HETATM   14  N           1     -23.960  -3.967  -8.325  0.00  0.00    -0.079 N 
HETATM   15  H           1     -23.852  -4.341  -9.294  0.00  0.00     0.274 HD
HETATM   16  H           1     -24.867  -4.298  -7.923  0.00  0.00     0.274 HD
HETATM   17  H           1     -23.952  -2.922  -8.350  0.00  0.00     0.274 HD
ENDBRANCH  13  14
ENDBRANCH  12  13
ENDBRANCH  11  12
ENDBRANCH   1  11
BRANCH   1  18
HETATM   18  N           1     -19.981  -3.682 -11.407  0.00  0.00    -0.067 N 
HETATM   19  H           1     -20.243  -2.681 -11.554  0.00  0.00     0.275 HD
HETATM   20  H           1     -19.776  -4.129 -12.330  0.00  0.00     0.275 HD
HETATM   21  H           1     -19.132  -3.734 -10.801  0.00  0.00     0.275 HD
ENDBRANCH   1  18
TORSDOF 8
ENDMDL
MODEL 3
REMARK VINA RESULT:      -5.8     12.776     14.526
REMARK  8 active torsions:
REMARK  status: ('A' for Active; 'I' for Inactive)
REMARK       I    between atoms: C_2  and  N_3 
REMARK    1  A    between atoms: C_2  and  C_12 
REMARK    2  A    between atoms: N_3  and  C_7 
REMARK    3  A    between atoms: C_5  and  C_14 
REMARK    4  A    between atoms: C_5  and  C_6 
REMARK    5  A    between atoms: C_6  and  N_20 
REMARK    6  A    between atoms: C_7  and  C_8 
REMARK    7  A    between atoms: C_12  and  C_14 
REMARK    8  A    between atoms: C_12  and  N_19 
ROOT
HETATM    1  C           1     -23.898  -3.889 -10.255  0.00  0.00     0.274 C 
ENDROOT
BRANCH   1   2
HETATM    2  C           1     -22.583  -4.430  -9.751  0.00  0.00     0.249 C 
HETATM    3  N           1     -22.388  -4.619  -8.409  0.00  0.00    -0.345 N 
HETATM    4  H           1     -23.127  -4.396  -7.755  0.00  0.00     0.163 HD
HETATM    5  O           1     -21.700  -4.696 -10.532  0.00  0.00    -0.271 OA
BRANCH   3   6
HETATM    6  C           1     -21.125  -5.138  -7.925  0.00  0.00     0.181 C 
HETATM    7  C           1     -20.181  -3.981  -7.625  0.00  0.00     0.043 C 
BRANCH   6   8
HETATM    8  C           1     -21.359  -5.936  -6.666  0.00  0.00     0.196 C 
HETATM    9  O           1     -22.191  -5.541  -5.821  0.00  0.00    -0.646 OA
HETATM   10  O           1     -20.721  -6.993  -6.468  0.00  0.00    -0.646 OA
ENDBRANCH   6   8
ENDBRANCH   3   6
ENDBRANCH   1   2
BRANCH   1  11
HETATM   11  C           1     -23.639  -2.809 -11.296  0.00  0.00     0.044 C 
BRANCH  11  12
HETATM   12  C           1     -24.387  -3.150 -12.579  0.00  0.00     0.030 C 
BRANCH  12  13
HETATM   13  C           1     -23.439  -3.038 -13.766  0.00  0.00     0.230 C 
BRANCH  13  14
HETATM   14  N           1     -22.050  -3.402 -13.333  0.00  0.00    -0.079 N 
HETATM   15  H           1     -22.007  -3.430 -12.290  0.00  0.00     0.274 HD
HETATM   16  H           1     -21.800  -4.340 -13.718  0.00  0.00     0.274 HD
HETATM   17  H           1     -21.376  -2.688 -13.692  0.00  0.00     0.274 HD
ENDBRANCH  13  14
ENDBRANCH  12  13
ENDBRANCH  11  12
ENDBRANCH   1  11
BRANCH   1  18
HETATM   18  N           1     -24.669  -3.303  -9.109  0.00  0.00    -0.067 N 
HETATM   19  H           1     -24.141  -2.493  -8.712  0.00  0.00     0.275 HD
HETATM   20  H           1     -24.801  -4.030  -8.370  0.00  0.00     0.275 HD
HETATM   21  H           1     -25.603  -2.979  -9.447  0.00  0.00     0.275 HD
ENDBRANCH   1  18
TORSDOF 8
ENDMDL
MODEL 4
REMARK VINA RESULT:      -5.7     13.253     14.607
REMARK  8 active torsions:
REMARK  status: ('A' for Active; 'I' for Inactive)
REMARK       I    between atoms: C_2  and  N_3 
REMARK    1  A    between atoms: C_2  and  C_12 
REMARK    2  A    between atoms: N_3  and  C_7 
REMARK    3  A    between atoms: C_5  and  C_14 
REMARK    4  A    between atoms: C_5  and  C_6 
REMARK    5  A    between atoms: C_6  and  N_20 
REMARK    6  A    between atoms: C_7  and  C_8 
REMARK    7  A    between atoms: C_12  and  C_14 
REMARK    8  A    between atoms: C_12  and  N_19 
ROOT
HETATM    1  C           1     -21.135  -5.846  -6.832  0.00  0.00     0.274 C 
ENDROOT
BRANCH   1   2
HETATM    2  C           1     -21.662  -4.637  -7.565  0.00  0.00     0.249 C 
HETATM    3  N           1     -22.277  -4.787  -8.779  0.00  0.00    -0.345 N 
HETATM    4  H           1     -22.377  -5.709  -9.185  0.00  0.00     0.163 HD
HETATM    5  O           1     -21.542  -3.537  -7.082  0.00  0.00    -0.271 OA
BRANCH   3   6
HETATM    6  C           1     -22.784  -3.626  -9.484  0.00  0.00     0.181 C 
HETATM    7  C           1     -22.096  -3.514 -10.838  0.00  0.00     0.043 C 
BRANCH   6   8
HETATM    8  C           1     -24.272  -3.771  -9.685  0.00  0.00     0.196 C 
HETATM    9  O           1     -25.018  -2.774  -9.577  0.00  0.00    -0.646 OA
HETATM   10  O           1     -24.760  -4.889  -9.959  0.00  0.00    -0.646 OA
ENDBRANCH   6   8
ENDBRANCH   3   6
ENDBRANCH   1   2
BRANCH   1  11
HETATM   11  C           1     -20.962  -5.511  -5.357  0.00  0.00     0.044 C 
BRANCH  11  12
HETATM   12  C           1     -21.907  -6.370  -4.527  0.00  0.00     0.030 C 
BRANCH  12  13
HETATM   13  C           1     -21.382  -6.473  -3.101  0.00  0.00     0.230 C 
BRANCH  13  14
HETATM   14  N           1     -22.385  -5.885  -2.154  0.00  0.00    -0.079 N 
HETATM   15  H           1     -23.317  -6.327  -2.317  0.00  0.00     0.274 HD
HETATM   16  H           1     -22.081  -6.063  -1.170  0.00  0.00     0.274 HD
HETATM   17  H           1     -22.454  -4.855  -2.316  0.00  0.00     0.274 HD
ENDBRANCH  13  14
ENDBRANCH  12  13
ENDBRANCH  11  12
ENDBRANCH   1  11
BRANCH   1  18
HETATM   18  N           1     -19.810  -6.243  -7.412  0.00  0.00    -0.067 N 
HETATM   19  H           1     -19.045  -5.732  -6.916  0.00  0.00     0.275 HD
HETATM   20  H           1     -19.788  -6.002  -8.429  0.00  0.00     0.275 HD
HETATM   21  H           1     -19.672  -7.272  -7.297  0.00  0.00     0.275 HD
ENDBRANCH   1  18
TORSDOF 8
ENDMDL
MODEL 5
REMARK VINA RESULT:      -5.7     13.368     15.073
REMARK  8 active torsions:
REMARK  status: ('A' for Active; 'I' for Inactive)
REMARK       I    between atoms: C_2  and  N_3 
REMARK    1  A    between atoms: C_2  and  C_12 
REMARK    2  A    between atoms: N_3  and  C_7 
REMARK    3  A    between atoms: C_5  and  C_14 
REMARK    4  A    between atoms: C_5  and  C_6 
REMARK    5  A    between atoms: C_6  and  N_20 
REMARK    6  A    between atoms: C_7  and  C_8 
REMARK    7  A    between atoms: C_12  and  C_14 
REMARK    8  A    between atoms: C_12  and  N_19 
ROOT
HETATM    1  C           1     -21.505  -3.183 -11.395  0.00  0.00     0.274 C 
ENDROOT
BRANCH   1   2
HETATM    2  C           1     -20.715  -4.119 -10.515  0.00  0.00     0.249 C 
HETATM    3  N           1     -20.926  -4.129  -9.162  0.00  0.00    -0.345 N 
HETATM    4  H           1     -21.613  -3.508  -8.753  0.00  0.00     0.163 HD
HETATM    5  O           1     -19.894  -4.859 -11.002  0.00  0.00    -0.271 OA
BRANCH   3   6
HETATM    6  C           1     -20.167  -5.028  -8.315  0.00  0.00     0.181 C 
HETATM    7  C           1     -19.077  -4.246  -7.594  0.00  0.00     0.043 C 
BRANCH   6   8
HETATM    8  C           1     -21.088  -5.661  -7.302  0.00  0.00     0.196 C 
HETATM    9  O           1     -20.836  -6.799  -6.852  0.00  0.00    -0.646 OA
HETATM   10  O           1     -22.105  -5.046  -6.911  0.00  0.00    -0.646 OA
ENDBRANCH   6   8
ENDBRANCH   3   6
ENDBRANCH   1   2
BRANCH   1  11
HETATM   11  C           1     -22.927  -3.062 -10.862  0.00  0.00     0.044 C 
BRANCH  11  12
HETATM   12  C           1     -23.636  -4.404 -10.997  0.00  0.00     0.030 C 
BRANCH  12  13
HETATM   13  C           1     -24.550  -4.619  -9.798  0.00  0.00     0.230 C 
BRANCH  13  14
HETATM   14  N           1     -24.213  -3.625  -8.727  0.00  0.00    -0.079 N 
HETATM   15  H           1     -23.580  -2.892  -9.119  0.00  0.00     0.274 HD
HETATM   16  H           1     -25.090  -3.178  -8.378  0.00  0.00     0.274 HD
HETATM   17  H           1     -23.734  -4.114  -7.937  0.00  0.00     0.274 HD
ENDBRANCH  13  14
ENDBRANCH  12  13
ENDBRANCH  11  12
ENDBRANCH   1  11
BRANCH   1  18
HETATM   18  N           1     -21.540  -3.722 -12.794  0.00  0.00    -0.067 N 
HETATM   19  H           1     -22.428  -3.425 -13.260  0.00  0.00     0.275 HD
HETATM   20  H           1     -21.493  -4.766 -12.766  0.00  0.00     0.275 HD
HETATM   21  H           1     -20.725  -3.352 -13.331  0.00  0.00     0.275 HD
ENDBRANCH   1  18
TORSDOF 8
ENDMDL
MODEL 6
REMARK VINA RESULT:      -5.4     13.709     15.624
REMARK  8 active torsions:
REMARK  status: ('A' for Active; 'I' for Inactive)
REMARK       I    between atoms: C_2  and  N_3 
REMARK    1  A    between atoms: C_2  and  C_12 
REMARK    2  A    between atoms: N_3  and  C_7 
REMARK    3  A    between atoms: C_5  and  C_14 
REMARK    4  A    between atoms: C_5  and  C_6 
REMARK    5  A    between atoms: C_6  and  N_20 
REMARK    6  A    between atoms: C_7  and  C_8 
REMARK    7  A    between atoms: C_12  and  C_14 
REMARK    8  A    between atoms: C_12  and  N_19 
ROOT
HETATM    1  C           1     -22.837  -4.525  -9.199  0.00  0.00     0.274 C 
ENDROOT
BRANCH   1   2
HETATM    2  C           1     -21.614  -4.944  -8.422  0.00  0.00     0.249 C 
HETATM    3  N           1     -21.738  -5.377  -7.129  0.00  0.00    -0.345 N 
HETATM    4  H           1     -22.651  -5.416  -6.695  0.00  0.00     0.163 HD
HETATM    5  O           1     -20.523  -4.897  -8.940  0.00  0.00    -0.271 OA
BRANCH   3   6
HETATM    6  C           1     -20.563  -5.780  -6.382  0.00  0.00     0.181 C 
HETATM    7  C           1     -20.140  -4.650  -5.453  0.00  0.00     0.043 C 
BRANCH   6   8
HETATM    8  C           1     -20.882  -7.009  -5.568  0.00  0.00     0.196 C 
HETATM    9  O           1     -21.168  -8.082  -6.142  0.00  0.00    -0.646 OA
HETATM   10  O           1     -20.862  -6.954  -4.319  0.00  0.00    -0.646 OA
ENDBRANCH   6   8
ENDBRANCH   3   6
ENDBRANCH   1   2
BRANCH   1  11
HETATM   11  C           1     -22.437  -3.527 -10.278  0.00  0.00     0.044 C 
BRANCH  11  12
HETATM   12  C           1     -23.229  -3.810 -11.549  0.00  0.00     0.030 C 
BRANCH  12  13
HETATM   13  C           1     -23.032  -2.666 -12.535  0.00  0.00     0.230 C 
BRANCH  13  14
HETATM   14  N           1     -22.425  -3.195 -13.801  0.00  0.00    -0.079 N 
HETATM   15  H           1     -23.028  -2.931 -14.611  0.00  0.00     0.274 HD
HETATM   16  H           1     -21.472  -2.787 -13.927  0.00  0.00     0.274 HD
HETATM   17  H           1     -22.353  -4.236 -13.743  0.00  0.00     0.274 HD
ENDBRANCH  13  14
ENDBRANCH  12  13
ENDBRANCH  11  12
ENDBRANCH   1  11
BRANCH   1  18
HETATM   18  N           1     -23.825  -3.885  -8.269  0.00  0.00    -0.067 N 
HETATM   19  H           1     -23.337  -3.175  -7.677  0.00  0.00     0.275 HD
HETATM   20  H           1     -24.251  -4.617  -7.656  0.00  0.00     0.275 HD
HETATM   21  H           1     -24.575  -3.418  -8.825  0.00  0.00     0.275 HD
ENDBRANCH   1  18
TORSDOF 8
ENDMDL
MODEL 7
REMARK VINA RESULT:      -5.4      2.067      3.255
REMARK  8 active torsions:
REMARK  status: ('A' for Active; 'I' for Inactive)
REMARK       I    between atoms: C_2  and  N_3 
REMARK    1  A    between atoms: C_2  and  C_12 
REMARK    2  A    between atoms: N_3  and  C_7 
REMARK    3  A    between atoms: C_5  and  C_14 
REMARK    4  A    between atoms: C_5  and  C_6 
REMARK    5  A    between atoms: C_6  and  N_20 
REMARK    6  A    between atoms: C_7  and  C_8 
REMARK    7  A    between atoms: C_12  and  C_14 
REMARK    8  A    between atoms: C_12  and  N_19 
ROOT
HETATM    1  C           1     -35.424  -1.881 -11.705  0.00  0.00     0.274 C 
ENDROOT
BRANCH   1   2
HETATM    2  C           1     -36.057  -1.127 -12.849  0.00  0.00     0.249 C 
HETATM    3  N           1     -35.295  -0.741 -13.919  0.00  0.00    -0.345 N 
HETATM    4  H           1     -34.308  -0.961 -13.942  0.00  0.00     0.163 HD
HETATM    5  O           1     -37.235  -0.863 -12.820  0.00  0.00    -0.271 OA
BRANCH   3   6
HETATM    6  C           1     -35.902  -0.016 -15.018  0.00  0.00     0.181 C 
HETATM    7  C           1     -35.181   1.312 -15.209  0.00  0.00     0.043 C 
BRANCH   6   8
HETATM    8  C           1     -35.793  -0.835 -16.280  0.00  0.00     0.196 C 
HETATM    9  O           1     -36.706  -0.794 -17.133  0.00  0.00    -0.646 OA
HETATM   10  O           1     -34.789  -1.555 -16.473  0.00  0.00    -0.646 OA
ENDBRANCH   6   8
ENDBRANCH   3   6
ENDBRANCH   1   2
BRANCH   1  11
HETATM   11  C           1     -36.380  -1.903 -10.520  0.00  0.00     0.044 C 
BRANCH  11  12
HETATM   12  C           1     -35.989  -0.812  -9.532  0.00  0.00     0.030 C 
BRANCH  12  13
HETATM   13  C           1     -37.073   0.258  -9.501  0.00  0.00     0.230 C 
BRANCH  13  14
HETATM   14  N           1     -36.554   1.477  -8.798  0.00  0.00    -0.079 N 
HETATM   15  H           1     -37.350   1.994  -8.365  0.00  0.00     0.274 HD
HETATM   16  H           1     -35.879   1.189  -8.054  0.00  0.00     0.274 HD
HETATM   17  H           1     -36.068   2.095  -9.487  0.00  0.00     0.274 HD
ENDBRANCH  13  14
ENDBRANCH  12  13
ENDBRANCH  11  12
ENDBRANCH   1  11
BRANCH   1  18
HETATM   18  N           1     -34.148  -1.203 -11.304  0.00  0.00    -0.067 N 
HETATM   19  H           1     -34.308  -0.173 -11.234  0.00  0.00     0.275 HD
HETATM   20  H           1     -33.412  -1.394 -12.022  0.00  0.00     0.275 HD
HETATM   21  H           1     -33.833  -1.571 -10.379  0.00  0.00     0.275 HD
ENDBRANCH   1  18
TORSDOF 8
ENDMDL
MODEL 8
REMARK VINA RESULT:      -5.4     14.687     17.006
REMARK  8 active torsions:
REMARK  status: ('A' for Active; 'I' for Inactive)
REMARK       I    between atoms: C_2  and  N_3 
REMARK    1  A    between atoms: C_2  and  C_12 
REMARK    2  A    between atoms: N_3  and  C_7 
REMARK    3  A    between atoms: C_5  and  C_14 
REMARK    4  A    between atoms: C_5  and  C_6 
REMARK    5  A    between atoms: C_6  and  N_20 
REMARK    6  A    between atoms: C_7  and  C_8 
REMARK    7  A    between atoms: C_12  and  C_14 
REMARK    8  A    between atoms: C_12  and  N_19 
ROOT
HETATM    1  C           1     -20.546  -4.985  -6.583  0.00  0.00     0.274 C 
ENDROOT
BRANCH   1   2
HETATM    2  C           1     -21.432  -5.780  -5.657  0.00  0.00     0.249 C 
HETATM    3  N           1     -20.881  -6.687  -4.792  0.00  0.00    -0.345 N 
HETATM    4  H           1     -19.879  -6.824  -4.773  0.00  0.00     0.163 HD
HETATM    5  O           1     -22.629  -5.619  -5.679  0.00  0.00    -0.271 OA
BRANCH   3   6
HETATM    6  C           1     -21.733  -7.452  -3.902  0.00  0.00     0.181 C 
HETATM    7  C           1     -21.286  -8.908  -3.899  0.00  0.00     0.043 C 
BRANCH   6   8
HETATM    8  C           1     -21.632  -6.891  -2.505  0.00  0.00     0.196 C 
HETATM    9  O           1     -20.876  -7.429  -1.668  0.00  0.00    -0.646 OA
HETATM   10  O           1     -22.305  -5.887  -2.185  0.00  0.00    -0.646 OA
ENDBRANCH   6   8
ENDBRANCH   3   6
ENDBRANCH   1   2
BRANCH   1  11
HETATM   11  C           1     -21.355  -3.866  -7.226  0.00  0.00     0.044 C 
BRANCH  11  12
HETATM   12  C           1     -21.434  -4.097  -8.729  0.00  0.00     0.030 C 
BRANCH  12  13
HETATM   13  C           1     -22.893  -4.093  -9.168  0.00  0.00     0.230 C 
BRANCH  13  14
HETATM   14  N           1     -23.779  -4.060  -7.959  0.00  0.00    -0.079 N 
HETATM   15  H           1     -23.819  -3.086  -7.584  0.00  0.00     0.274 HD
HETATM   16  H           1     -24.741  -4.371  -8.224  0.00  0.00     0.274 HD
HETATM   17  H           1     -23.395  -4.701  -7.228  0.00  0.00     0.274 HD
ENDBRANCH  13  14
ENDBRANCH  12  13
ENDBRANCH  11  12
ENDBRANCH   1  11
BRANCH   1  18
HETATM   18  N           1     -20.003  -5.886  -7.652  0.00  0.00    -0.067 N 
HETATM   19  H           1     -20.788  -6.421  -8.088  0.00  0.00     0.275 HD
HETATM   20  H           1     -19.319  -6.554  -7.230  0.00  0.00     0.275 HD
HETATM   21  H           1     -19.524  -5.313  -8.382  0.00  0.00     0.275 HD
ENDBRANCH   1  18
TORSDOF 8
ENDMDL
MODEL 9
REMARK VINA RESULT:      -4.9     15.932     16.870
REMARK  8 active torsions:
REMARK  status: ('A' for Active; 'I' for Inactive)
REMARK       I    between atoms: C_2  and  N_3 
REMARK    1  A    between atoms: C_2  and  C_12 
REMARK    2  A    between atoms: N_3  and  C_7 
REMARK    3  A    between atoms: C_5  and  C_14 
REMARK    4  A    between atoms: C_5  and  C_6 
REMARK    5  A    between atoms: C_6  and  N_20 
REMARK    6  A    between atoms: C_7  and  C_8 
REMARK    7  A    between atoms: C_12  and  C_14 
REMARK    8  A    between atoms: C_12  and  N_19 
ROOT
HETATM    1  C           1     -21.352  -6.393  -3.059  0.00  0.00     0.274 C 
ENDROOT
BRANCH   1   2
HETATM    2  C           1     -21.737  -6.085  -4.484  0.00  0.00     0.249 C 
HETATM    3  N           1     -20.894  -5.354  -5.278  0.00  0.00    -0.345 N 
HETATM    4  H           1     -20.013  -5.021  -4.909  0.00  0.00     0.163 HD
HETATM    5  O           1     -22.789  -6.482  -4.926  0.00  0.00    -0.271 OA
BRANCH   3   6
HETATM    6  C           1     -21.264  -5.057  -6.648  0.00  0.00     0.181 C 
HETATM    7  C           1     -21.288  -3.548  -6.852  0.00  0.00     0.043 C 
BRANCH   6   8
HETATM    8  C           1     -20.256  -5.676  -7.585  0.00  0.00     0.196 C 
HETATM    9  O           1     -20.061  -5.175  -8.714  0.00  0.00    -0.646 OA
HETATM   10  O           1     -19.616  -6.691  -7.233  0.00  0.00    -0.646 OA
ENDBRANCH   6   8
ENDBRANCH   3   6
ENDBRANCH   1   2
BRANCH   1  11
HETATM   11  C           1     -21.307  -7.903  -2.858  0.00  0.00     0.044 C 
BRANCH  11  12
HETATM   12  C           1     -20.083  -8.472  -3.564  0.00  0.00     0.030 C 
BRANCH  12  13
HETATM   13  C           1     -20.511  -9.602  -4.492  0.00  0.00     0.230 C 
BRANCH  13  14
HETATM   14  N           1     -20.986  -9.028  -5.794  0.00  0.00    -0.079 N 
HETATM   15  H           1     -21.218  -8.018  -5.665  0.00  0.00     0.274 HD
HETATM   16  H           1     -20.232  -9.123  -6.512  0.00  0.00     0.274 HD
HETATM   17  H           1     -21.836  -9.545  -6.112  0.00  0.00     0.274 HD
ENDBRANCH  13  14
ENDBRANCH  12  13
ENDBRANCH  11  12
ENDBRANCH   1  11
BRANCH   1  18
HETATM   18  N           1     -22.365  -5.796  -2.127  0.00  0.00    -0.067 N 
HETATM   19  H           1     -21.900  -5.088  -1.515  0.00  0.00     0.275 HD
HETATM   20  H           1     -22.781  -6.550  -1.535  0.00  0.00     0.275 HD
HETATM   21  H           1     -23.120  -5.334  -2.682  0.00  0.00     0.275 HD
ENDBRANCH   1  18
TORSDOF 8
ENDMDL
