MODEL 1
REMARK VINA RESULT:      -6.5      0.000      0.000
REMARK  6 active torsions:
REMARK  status: ('A' for Active; 'I' for Inactive)
REMARK    1  A    between atoms: C_8  and  C_21 
REMARK    2  A    between atoms: C_10  and  C_17 
REMARK    3  A    between atoms: C_10  and  C_20 
REMARK    4  A    between atoms: C_10  and  N_18 
REMARK    5  A    between atoms: N_11  and  C_21 
REMARK       I    between atoms: N_11  and  C_17 
REMARK    6  A    between atoms: C_19  and  C_20 
ROOT
HETATM    1  C           1     -23.124  -3.652  -9.156  0.00  0.00     0.280 C 
ENDROOT
BRANCH   1   2
HETATM    2  C           1     -24.069  -3.343 -10.291  0.00  0.00     0.249 C 
HETATM    3  N           1     -23.584  -3.192 -11.563  0.00  0.00    -0.349 N 
HETATM    4  H           1     -22.593  -3.289 -11.742  0.00  0.00     0.163 HD
HETATM    5  O           1     -25.252  -3.226 -10.078  0.00  0.00    -0.271 OA
BRANCH   3   6
HETATM    6  C           1     -24.492  -2.894 -12.654  0.00  0.00     0.235 C 
BRANCH   6   7
HETATM    7  C           1     -23.703  -2.418 -13.849  0.00  0.00     0.191 C 
HETATM    8  O           1     -22.596  -2.935 -14.113  0.00  0.00    -0.647 OA
HETATM    9  O           1     -24.158  -1.509 -14.576  0.00  0.00    -0.647 OA
ENDBRANCH   6   7
ENDBRANCH   3   6
ENDBRANCH   1   2
BRANCH   1  10
HETATM   10  C           1     -22.188  -4.781  -9.568  0.00  0.00     0.101 C 
BRANCH  10  11
HETATM   11  C           1     -21.080  -4.902  -8.569  0.00  0.00     0.028 A 
HETATM   12  C           1     -20.062  -3.991  -8.416  0.00  0.00     0.114 A 
HETATM   13  N           1     -19.287  -4.492  -7.408  0.00  0.00    -0.360 N 
HETATM   14  C           1     -19.854  -5.665  -6.998  0.00  0.00     0.180 A 
HETATM   15  H           1     -18.414  -4.056  -7.019  0.00  0.00     0.166 HD
HETATM   16  N           1     -20.940  -5.939  -7.683  0.00  0.00    -0.355 N 
ATOM     17  HN          1     -21.550  -6.751  -7.579  1.00  0.00     0.166 HD
ENDBRANCH  10  11
ENDBRANCH   1  10
BRANCH   1  18
HETATM   18  N           1     -23.911  -4.070  -7.950  0.00  0.00    -0.066 N 
HETATM   19  H           1     -24.489  -4.908  -8.185  0.00  0.00     0.275 HD
HETATM   20  H           1     -23.254  -4.307  -7.171  0.00  0.00     0.275 HD
HETATM   21  H           1     -24.536  -3.287  -7.652  0.00  0.00     0.275 HD
ENDBRANCH   1  18
TORSDOF 6
ENDMDL
MODEL 2
REMARK VINA RESULT:      -6.4      8.434     11.474
REMARK  6 active torsions:
REMARK  status: ('A' for Active; 'I' for Inactive)
REMARK    1  A    between atoms: C_8  and  C_21 
REMARK    2  A    between atoms: C_10  and  C_17 
REMARK    3  A    between atoms: C_10  and  C_20 
REMARK    4  A    between atoms: C_10  and  N_18 
REMARK    5  A    between atoms: N_11  and  C_21 
REMARK       I    between atoms: N_11  and  C_17 
REMARK    6  A    between atoms: C_19  and  C_20 
ROOT
HETATM    1  C           1     -30.075  -6.595 -18.231  0.00  0.00     0.280 C 
ENDROOT
BRANCH   1   2
HETATM    2  C           1     -28.618  -6.204 -18.274  0.00  0.00     0.249 C 
HETATM    3  N           1     -27.743  -6.728 -17.360  0.00  0.00    -0.349 N 
HETATM    4  H           1     -28.072  -7.377 -16.658  0.00  0.00     0.163 HD
HETATM    5  O           1     -28.224  -5.428 -19.112  0.00  0.00    -0.271 OA
BRANCH   3   6
HETATM    6  C           1     -26.343  -6.352 -17.400  0.00  0.00     0.235 C 
BRANCH   6   7
HETATM    7  C           1     -25.750  -6.472 -16.017  0.00  0.00     0.191 C 
HETATM    8  O           1     -25.013  -5.566 -15.573  0.00  0.00    -0.647 OA
HETATM    9  O           1     -25.999  -7.476 -15.316  0.00  0.00    -0.647 OA
ENDBRANCH   6   7
ENDBRANCH   3   6
ENDBRANCH   1   2
BRANCH   1  10
HETATM   10  C           1     -30.658  -6.235 -16.871  0.00  0.00     0.101 C 
BRANCH  10  11
HETATM   11  C           1     -31.588  -5.071 -17.016  0.00  0.00     0.028 A 
HETATM   12  C           1     -31.231  -3.843 -17.520  0.00  0.00     0.114 A 
HETATM   13  N           1     -32.374  -3.094 -17.471  0.00  0.00    -0.360 N 
HETATM   14  C           1     -33.358  -3.882 -16.948  0.00  0.00     0.180 A 
HETATM   15  H           1     -32.475  -2.095 -17.778  0.00  0.00     0.166 HD
HETATM   16  N           1     -32.912  -5.084 -16.662  0.00  0.00    -0.355 N 
ATOM     17  HN          1     -33.439  -5.862 -16.263  1.00  0.00     0.166 HD
ENDBRANCH  10  11
ENDBRANCH   1  10
BRANCH   1  18
HETATM   18  N           1     -30.204  -8.072 -18.454  0.00  0.00    -0.066 N 
HETATM   19  H           1     -29.569  -8.363 -19.231  0.00  0.00     0.275 HD
HETATM   20  H           1     -29.939  -8.580 -17.580  0.00  0.00     0.275 HD
HETATM   21  H           1     -31.192  -8.303 -18.706  0.00  0.00     0.275 HD
ENDBRANCH   1  18
TORSDOF 6
ENDMDL
MODEL 3
REMARK VINA RESULT:      -6.3      2.913      6.199
REMARK  6 active torsions:
REMARK  status: ('A' for Active; 'I' for Inactive)
REMARK    1  A    between atoms: C_8  and  C_21 
REMARK    2  A    between atoms: C_10  and  C_17 
REMARK    3  A    between atoms: C_10  and  C_20 
REMARK    4  A    between atoms: C_10  and  N_18 
REMARK    5  A    between atoms: N_11  and  C_21 
REMARK       I    between atoms: N_11  and  C_17 
REMARK    6  A    between atoms: C_19  and  C_20 
ROOT
HETATM    1  C           1     -23.731  -4.340 -10.176  0.00  0.00     0.280 C 
ENDROOT
BRANCH   1   2
HETATM    2  C           1     -22.607  -4.430  -9.173  0.00  0.00     0.249 C 
HETATM    3  N           1     -22.859  -4.221  -7.844  0.00  0.00    -0.349 N 
HETATM    4  H           1     -23.798  -4.007  -7.533  0.00  0.00     0.163 HD
HETATM    5  O           1     -21.486  -4.685  -9.543  0.00  0.00    -0.271 OA
BRANCH   3   6
HETATM    6  C           1     -21.779  -4.307  -6.879  0.00  0.00     0.235 C 
BRANCH   6   7
HETATM    7  C           1     -21.759  -5.686  -6.267  0.00  0.00     0.191 C 
HETATM    8  O           1     -22.468  -5.937  -5.269  0.00  0.00    -0.647 OA
HETATM    9  O           1     -21.036  -6.578  -6.761  0.00  0.00    -0.647 OA
ENDBRANCH   6   7
ENDBRANCH   3   6
ENDBRANCH   1   2
BRANCH   1  10
HETATM   10  C           1     -23.828  -2.913 -10.702  0.00  0.00     0.101 C 
BRANCH  10  11
HETATM   11  C           1     -23.416  -2.881 -12.140  0.00  0.00     0.028 A 
HETATM   12  C           1     -22.268  -3.450 -12.638  0.00  0.00     0.114 A 
HETATM   13  N           1     -22.293  -3.183 -13.979  0.00  0.00    -0.360 N 
HETATM   14  C           1     -23.433  -2.475 -14.235  0.00  0.00     0.180 A 
HETATM   15  H           1     -21.569  -3.469 -14.683  0.00  0.00     0.166 HD
HETATM   16  N           1     -24.132  -2.277 -13.142  0.00  0.00    -0.355 N 
ATOM     17  HN          1     -25.019  -1.779 -13.055  1.00  0.00     0.166 HD
ENDBRANCH  10  11
ENDBRANCH   1  10
BRANCH   1  18
HETATM   18  N           1     -25.023  -4.717  -9.515  0.00  0.00    -0.066 N 
HETATM   19  H           1     -25.384  -5.603  -9.936  0.00  0.00     0.275 HD
HETATM   20  H           1     -24.862  -4.859  -8.492  0.00  0.00     0.275 HD
HETATM   21  H           1     -25.723  -3.954  -9.655  0.00  0.00     0.275 HD
ENDBRANCH   1  18
TORSDOF 6
ENDMDL
MODEL 4
REMARK VINA RESULT:      -6.2      3.386      6.256
REMARK  6 active torsions:
REMARK  status: ('A' for Active; 'I' for Inactive)
REMARK    1  A    between atoms: C_8  and  C_21 
REMARK    2  A    between atoms: C_10  and  C_17 
REMARK    3  A    between atoms: C_10  and  C_20 
REMARK    4  A    between atoms: C_10  and  N_18 
REMARK    5  A    between atoms: N_11  and  C_21 
REMARK       I    between atoms: N_11  and  C_17 
REMARK    6  A    between atoms: C_19  and  C_20 
ROOT
HETATM    1  C           1     -23.354  -4.187  -9.050  0.00  0.00     0.280 C 
ENDROOT
BRANCH   1   2
HETATM    2  C           1     -22.691  -4.381  -7.708  0.00  0.00     0.249 C 
HETATM    3  N           1     -21.327  -4.341  -7.607  0.00  0.00    -0.349 N 
HETATM    4  H           1     -20.762  -4.180  -8.432  0.00  0.00     0.163 HD
HETATM    5  O           1     -23.364  -4.573  -6.724  0.00  0.00    -0.271 OA
BRANCH   3   6
HETATM    6  C           1     -20.689  -4.528  -6.318  0.00  0.00     0.235 C 
BRANCH   6   7
HETATM    7  C           1     -20.251  -5.966  -6.177  0.00  0.00     0.191 C 
HETATM    8  O           1     -19.710  -6.552  -7.140  0.00  0.00    -0.647 OA
HETATM    9  O           1     -20.427  -6.569  -5.096  0.00  0.00    -0.647 OA
ENDBRANCH   6   7
ENDBRANCH   3   6
ENDBRANCH   1   2
BRANCH   1  10
HETATM   10  C           1     -22.357  -3.572 -10.024  0.00  0.00     0.101 C 
BRANCH  10  11
HETATM   11  C           1     -22.971  -3.496 -11.387  0.00  0.00     0.028 A 
HETATM   12  C           1     -23.514  -4.563 -12.062  0.00  0.00     0.114 A 
HETATM   13  N           1     -23.951  -4.047 -13.250  0.00  0.00    -0.360 N 
HETATM   14  C           1     -23.660  -2.712 -13.248  0.00  0.00     0.180 A 
HETATM   15  H           1     -24.423  -4.578 -14.022  0.00  0.00     0.166 HD
HETATM   16  N           1     -23.066  -2.350 -12.134  0.00  0.00    -0.355 N 
ATOM     17  HN          1     -22.745  -1.416 -11.879  1.00  0.00     0.166 HD
ENDBRANCH  10  11
ENDBRANCH   1  10
BRANCH   1  18
HETATM   18  N           1     -24.532  -3.272  -8.898  0.00  0.00    -0.066 N 
HETATM   19  H           1     -25.125  -3.596  -8.101  0.00  0.00     0.275 HD
HETATM   20  H           1     -24.196  -2.300  -8.709  0.00  0.00     0.275 HD
HETATM   21  H           1     -25.097  -3.280  -9.778  0.00  0.00     0.275 HD
ENDBRANCH   1  18
TORSDOF 6
ENDMDL
MODEL 5
REMARK VINA RESULT:      -6.2      1.576      2.098
REMARK  6 active torsions:
REMARK  status: ('A' for Active; 'I' for Inactive)
REMARK    1  A    between atoms: C_8  and  C_21 
REMARK    2  A    between atoms: C_10  and  C_17 
REMARK    3  A    between atoms: C_10  and  C_20 
REMARK    4  A    between atoms: C_10  and  N_18 
REMARK    5  A    between atoms: N_11  and  C_21 
REMARK       I    between atoms: N_11  and  C_17 
REMARK    6  A    between atoms: C_19  and  C_20 
ROOT
HETATM    1  C           1     -21.450  -4.218 -10.719  0.00  0.00     0.280 C 
ENDROOT
BRANCH   1   2
HETATM    2  C           1     -22.673  -4.034 -11.584  0.00  0.00     0.249 C 
HETATM    3  N           1     -22.823  -2.891 -12.322  0.00  0.00    -0.349 N 
HETATM    4  H           1     -22.113  -2.170 -12.289  0.00  0.00     0.163 HD
HETATM    5  O           1     -23.521  -4.893 -11.624  0.00  0.00    -0.271 OA
BRANCH   3   6
HETATM    6  C           1     -23.998  -2.712 -13.153  0.00  0.00     0.235 C 
BRANCH   6   7
HETATM    7  C           1     -23.586  -2.160 -14.496  0.00  0.00     0.191 C 
HETATM    8  O           1     -24.148  -1.140 -14.951  0.00  0.00    -0.647 OA
HETATM    9  O           1     -22.681  -2.721 -15.151  0.00  0.00    -0.647 OA
ENDBRANCH   6   7
ENDBRANCH   3   6
ENDBRANCH   1   2
BRANCH   1  10
HETATM   10  C           1     -21.731  -3.681  -9.322  0.00  0.00     0.101 C 
BRANCH  10  11
HETATM   11  C           1     -21.260  -4.670  -8.301  0.00  0.00     0.028 A 
HETATM   12  C           1     -20.049  -5.318  -8.342  0.00  0.00     0.114 A 
HETATM   13  N           1     -20.036  -6.115  -7.231  0.00  0.00    -0.360 N 
HETATM   14  C           1     -21.219  -5.922  -6.574  0.00  0.00     0.180 A 
HETATM   15  H           1     -19.261  -6.758  -6.936  0.00  0.00     0.166 HD
HETATM   16  N           1     -21.980  -5.053  -7.199  0.00  0.00    -0.355 N 
ATOM     17  HN          1     -22.908  -4.732  -6.923  1.00  0.00     0.166 HD
ENDBRANCH  10  11
ENDBRANCH   1  10
BRANCH   1  18
HETATM   18  N           1     -20.297  -3.471 -11.319  0.00  0.00    -0.066 N 
HETATM   19  H           1     -20.041  -3.902 -12.236  0.00  0.00     0.275 HD
HETATM   20  H           1     -20.568  -2.472 -11.467  0.00  0.00     0.275 HD
HETATM   21  H           1     -19.477  -3.517 -10.672  0.00  0.00     0.275 HD
ENDBRANCH   1  18
TORSDOF 6
ENDMDL
MODEL 6
REMARK VINA RESULT:      -6.2     12.051     14.289
REMARK  6 active torsions:
REMARK  status: ('A' for Active; 'I' for Inactive)
REMARK    1  A    between atoms: C_8  and  C_21 
REMARK    2  A    between atoms: C_10  and  C_17 
REMARK    3  A    between atoms: C_10  and  C_20 
REMARK    4  A    between atoms: C_10  and  N_18 
REMARK    5  A    between atoms: N_11  and  C_21 
REMARK       I    between atoms: N_11  and  C_17 
REMARK    6  A    between atoms: C_19  and  C_20 
ROOT
HETATM    1  C           1     -35.601  -0.603 -12.415  0.00  0.00     0.280 C 
ENDROOT
BRANCH   1   2
HETATM    2  C           1     -34.598  -1.660 -12.024  0.00  0.00     0.249 C 
HETATM    3  N           1     -34.449  -2.781 -12.797  0.00  0.00    -0.349 N 
HETATM    4  H           1     -35.011  -2.899 -13.630  0.00  0.00     0.163 HD
HETATM    5  O           1     -33.928  -1.520 -11.029  0.00  0.00    -0.271 OA
BRANCH   3   6
HETATM    6  C           1     -33.486  -3.798 -12.422  0.00  0.00     0.235 C 
BRANCH   6   7
HETATM    7  C           1     -34.208  -4.975 -11.814  0.00  0.00     0.191 C 
HETATM    8  O           1     -33.923  -5.353 -10.656  0.00  0.00    -0.647 OA
HETATM    9  O           1     -35.094  -5.570 -12.465  0.00  0.00    -0.647 OA
ENDBRANCH   6   7
ENDBRANCH   3   6
ENDBRANCH   1   2
BRANCH   1  10
HETATM   10  C           1     -35.028   0.249 -13.541  0.00  0.00     0.101 C 
BRANCH  10  11
HETATM   11  C           1     -35.654  -0.151 -14.840  0.00  0.00     0.028 A 
HETATM   12  C           1     -36.905   0.237 -15.257  0.00  0.00     0.114 A 
HETATM   13  N           1     -37.069  -0.350 -16.481  0.00  0.00    -0.360 N 
HETATM   14  C           1     -35.932  -1.059 -16.751  0.00  0.00     0.180 A 
HETATM   15  H           1     -37.913  -0.272 -17.100  0.00  0.00     0.166 HD
HETATM   16  N           1     -35.059  -0.957 -15.776  0.00  0.00    -0.355 N 
ATOM     17  HN          1     -34.135  -1.386 -15.725  1.00  0.00     0.166 HD
ENDBRANCH  10  11
ENDBRANCH   1  10
BRANCH   1  18
HETATM   18  N           1     -35.897   0.268 -11.231  0.00  0.00    -0.066 N 
HETATM   19  H           1     -36.919   0.235 -11.021  0.00  0.00     0.275 HD
HETATM   20  H           1     -35.360  -0.077 -10.403  0.00  0.00     0.275 HD
HETATM   21  H           1     -35.616   1.253 -11.442  0.00  0.00     0.275 HD
ENDBRANCH   1  18
TORSDOF 6
ENDMDL
MODEL 7
REMARK VINA RESULT:      -6.0      3.222      6.600
REMARK  6 active torsions:
REMARK  status: ('A' for Active; 'I' for Inactive)
REMARK    1  A    between atoms: C_8  and  C_21 
REMARK    2  A    between atoms: C_10  and  C_17 
REMARK    3  A    between atoms: C_10  and  C_20 
REMARK    4  A    between atoms: C_10  and  N_18 
REMARK    5  A    between atoms: N_11  and  C_21 
REMARK       I    between atoms: N_11  and  C_17 
REMARK    6  A    between atoms: C_19  and  C_20 
ROOT
HETATM    1  C           1     -21.433  -3.563 -10.672  0.00  0.00     0.280 C 
ENDROOT
BRANCH   1   2
HETATM    2  C           1     -20.793  -4.503  -9.679  0.00  0.00     0.249 C 
HETATM    3  N           1     -21.413  -4.764  -8.487  0.00  0.00    -0.349 N 
HETATM    4  H           1     -22.301  -4.328  -8.272  0.00  0.00     0.163 HD
HETATM    5  O           1     -19.733  -5.023  -9.935  0.00  0.00    -0.271 OA
BRANCH   3   6
HETATM    6  C           1     -20.799  -5.666  -7.533  0.00  0.00     0.235 C 
BRANCH   6   7
HETATM    7  C           1     -21.202  -5.269  -6.133  0.00  0.00     0.191 C 
HETATM    8  O           1     -20.397  -4.653  -5.402  0.00  0.00    -0.647 OA
HETATM    9  O           1     -22.342  -5.554  -5.707  0.00  0.00    -0.647 OA
ENDBRANCH   6   7
ENDBRANCH   3   6
ENDBRANCH   1   2
BRANCH   1  10
HETATM   10  C           1     -22.210  -4.368 -11.705  0.00  0.00     0.101 C 
BRANCH  10  11
HETATM   11  C           1     -22.849  -3.438 -12.688  0.00  0.00     0.028 A 
HETATM   12  C           1     -23.969  -2.682 -12.436  0.00  0.00     0.114 A 
HETATM   13  N           1     -24.199  -1.992 -13.593  0.00  0.00    -0.360 N 
HETATM   14  C           1     -23.228  -2.350 -14.484  0.00  0.00     0.180 A 
HETATM   15  H           1     -24.979  -1.311 -13.766  0.00  0.00     0.166 HD
HETATM   16  N           1     -22.397  -3.224 -13.965  0.00  0.00    -0.355 N 
ATOM     17  HN          1     -21.588  -3.653 -14.415  1.00  0.00     0.166 HD
ENDBRANCH  10  11
ENDBRANCH   1  10
BRANCH   1  18
HETATM   18  N           1     -20.368  -2.763 -11.361  0.00  0.00    -0.066 N 
HETATM   19  H           1     -19.662  -2.445 -10.659  0.00  0.00     0.275 HD
HETATM   20  H           1     -19.898  -3.356 -12.082  0.00  0.00     0.275 HD
HETATM   21  H           1     -20.800  -1.930 -11.823  0.00  0.00     0.275 HD
ENDBRANCH   1  18
TORSDOF 6
ENDMDL
MODEL 8
REMARK VINA RESULT:      -6.0      1.691      2.146
REMARK  6 active torsions:
REMARK  status: ('A' for Active; 'I' for Inactive)
REMARK    1  A    between atoms: C_8  and  C_21 
REMARK    2  A    between atoms: C_10  and  C_17 
REMARK    3  A    between atoms: C_10  and  C_20 
REMARK    4  A    between atoms: C_10  and  N_18 
REMARK    5  A    between atoms: N_11  and  C_21 
REMARK       I    between atoms: N_11  and  C_17 
REMARK    6  A    between atoms: C_19  and  C_20 
ROOT
HETATM    1  C           1     -23.842  -3.320 -10.845  0.00  0.00     0.280 C 
ENDROOT
BRANCH   1   2
HETATM    2  C           1     -24.113  -3.219 -12.327  0.00  0.00     0.249 C 
HETATM    3  N           1     -23.085  -2.963 -13.194  0.00  0.00    -0.349 N 
HETATM    4  H           1     -22.144  -2.843 -12.843  0.00  0.00     0.163 HD
HETATM    5  O           1     -25.236  -3.361 -12.747  0.00  0.00    -0.271 OA
BRANCH   3   6
HETATM    6  C           1     -23.345  -2.865 -14.617  0.00  0.00     0.235 C 
BRANCH   6   7
HETATM    7  C           1     -23.541  -1.417 -14.995  0.00  0.00     0.191 C 
HETATM    8  O           1     -24.610  -0.836 -14.708  0.00  0.00    -0.647 OA
HETATM    9  O           1     -22.633  -0.798 -15.592  0.00  0.00    -0.647 OA
ENDBRANCH   6   7
ENDBRANCH   3   6
ENDBRANCH   1   2
BRANCH   1  10
HETATM   10  C           1     -23.042  -4.584 -10.561  0.00  0.00     0.101 C 
BRANCH  10  11
HETATM   11  C           1     -22.018  -4.302  -9.506  0.00  0.00     0.028 A 
HETATM   12  C           1     -22.307  -3.960  -8.207  0.00  0.00     0.114 A 
HETATM   13  N           1     -21.091  -3.797  -7.604  0.00  0.00    -0.360 N 
HETATM   14  C           1     -20.131  -4.040  -8.545  0.00  0.00     0.180 A 
HETATM   15  H           1     -20.924  -3.531  -6.602  0.00  0.00     0.166 HD
HETATM   16  N           1     -20.662  -4.348  -9.706  0.00  0.00    -0.355 N 
ATOM     17  HN          1     -20.171  -4.573 -10.572  1.00  0.00     0.166 HD
ENDBRANCH  10  11
ENDBRANCH   1  10
BRANCH   1  18
HETATM   18  N           1     -25.143  -3.374 -10.102  0.00  0.00    -0.066 N 
HETATM   19  H           1     -25.162  -2.619  -9.379  0.00  0.00     0.275 HD
HETATM   20  H           1     -25.933  -3.234 -10.772  0.00  0.00     0.275 HD
HETATM   21  H           1     -25.241  -4.305  -9.637  0.00  0.00     0.275 HD
ENDBRANCH   1  18
TORSDOF 6
ENDMDL
MODEL 9
REMARK VINA RESULT:      -5.9      4.201      7.451
REMARK  6 active torsions:
REMARK  status: ('A' for Active; 'I' for Inactive)
REMARK    1  A    between atoms: C_8  and  C_21 
REMARK    2  A    between atoms: C_10  and  C_17 
REMARK    3  A    between atoms: C_10  and  C_20 
REMARK    4  A    between atoms: C_10  and  N_18 
REMARK    5  A    between atoms: N_11  and  C_21 
REMARK       I    between atoms: N_11  and  C_17 
REMARK    6  A    between atoms: C_19  and  C_20 
ROOT
HETATM    1  C           1     -22.185  -4.542  -7.283  0.00  0.00     0.280 C 
ENDROOT
BRANCH   1   2
HETATM    2  C           1     -21.507  -5.642  -6.504  0.00  0.00     0.249 C 
HETATM    3  N           1     -21.772  -5.798  -5.170  0.00  0.00    -0.349 N 
HETATM    4  H           1     -22.422  -5.176  -4.706  0.00  0.00     0.163 HD
HETATM    5  O           1     -20.730  -6.384  -7.056  0.00  0.00    -0.271 OA
BRANCH   3   6
HETATM    6  C           1     -21.120  -6.854  -4.420  0.00  0.00     0.235 C 
BRANCH   6   7
HETATM    7  C           1     -21.663  -6.881  -3.012  0.00  0.00     0.191 C 
HETATM    8  O           1     -22.283  -5.893  -2.562  0.00  0.00    -0.647 OA
HETATM    9  O           1     -21.496  -7.892  -2.297  0.00  0.00    -0.647 OA
ENDBRANCH   6   7
ENDBRANCH   3   6
ENDBRANCH   1   2
BRANCH   1  10
HETATM   10  C           1     -22.117  -4.858  -8.772  0.00  0.00     0.101 C 
BRANCH  10  11
HETATM   11  C           1     -23.275  -4.220  -9.473  0.00  0.00     0.028 A 
HETATM   12  C           1     -23.410  -4.131 -10.838  0.00  0.00     0.114 A 
HETATM   13  N           1     -24.597  -3.482 -11.035  0.00  0.00    -0.360 N 
HETATM   14  C           1     -25.124  -3.208  -9.805  0.00  0.00     0.180 A 
HETATM   15  H           1     -25.026  -3.238 -11.962  0.00  0.00     0.166 HD
HETATM   16  N           1     -24.346  -3.642  -8.841  0.00  0.00    -0.355 N 
ATOM     17  HN          1     -24.503  -3.566  -7.836  1.00  0.00     0.166 HD
ENDBRANCH  10  11
ENDBRANCH   1  10
BRANCH   1  18
HETATM   18  N           1     -21.492  -3.240  -7.017  0.00  0.00    -0.066 N 
HETATM   19  H           1     -20.500  -3.423  -6.745  0.00  0.00     0.275 HD
HETATM   20  H           1     -21.513  -2.651  -7.881  0.00  0.00     0.275 HD
HETATM   21  H           1     -21.979  -2.736  -6.241  0.00  0.00     0.275 HD
ENDBRANCH   1  18
TORSDOF 6
ENDMDL
