MODEL 1
REMARK VINA RESULT:      -6.5      0.000      0.000
REMARK  11 active torsions:
REMARK  status: ('A' for Active; 'I' for Inactive)
REMARK    1  A    between atoms: O_2  and  P_3 
REMARK    2  A    between atoms: P_3  and  O_4 
REMARK    3  A    between atoms: O_4  and  C_5 
REMARK    4  A    between atoms: C_5  and  C_6 
REMARK    5  A    between atoms: C_6  and  C_7 
REMARK    6  A    between atoms: C_6  and  N_24 
REMARK       I    between atoms: C_7  and  N_8 
REMARK    7  A    between atoms: N_8  and  C_12 
REMARK    8  A    between atoms: C_11  and  C_12 
REMARK    9  A    between atoms: C_12  and  C_13 
REMARK   10  A    between atoms: C_13  and  C_14 
REMARK   11  A    between atoms: C_14  and  C_16 
ROOT
HETATM    1  C           1     -35.635  -1.121 -11.653  0.00  0.00     0.251 C 
HETATM    2  N           1     -35.402  -2.470 -11.661  0.00  0.00    -0.345 N 
HETATM    3  H           1     -36.180  -3.118 -11.674  0.00  0.00     0.163 HD
HETATM    4  O           1     -34.706  -0.348 -11.637  0.00  0.00    -0.271 OA
ENDROOT
BRANCH   1   5
HETATM    5  C           1     -37.050  -0.599 -11.664  0.00  0.00     0.298 C 
BRANCH   5   6
HETATM    6  C           1     -37.358   0.011 -13.025  0.00  0.00     0.224 C 
BRANCH   6   7
HETATM    7  O           1     -37.001  -0.895 -14.034  0.00  0.00    -0.287 OA
BRANCH   7   8
HETATM    8  P           1     -36.260  -0.264 -15.322  0.00  0.00     0.406 P 
HETATM    9  O           1     -34.841   0.001 -14.994  0.00  0.00    -0.624 OA
HETATM   10  O           1     -36.336  -1.218 -16.452  0.00  0.00    -0.624 OA
BRANCH   8  11
HETATM   11  O           1     -36.984   1.119 -15.738  0.00  0.00    -0.300 OA
HETATM   12  H           1     -36.653   1.318 -16.597  0.00  0.00     0.223 HD
ENDBRANCH   8  11
ENDBRANCH   7   8
ENDBRANCH   6   7
ENDBRANCH   5   6
BRANCH   5  13
HETATM   13  N           1     -37.204   0.449 -10.601  0.00  0.00    -0.064 N 
HETATM   14  H           1     -36.263   0.813 -10.333  0.00  0.00     0.275 HD
HETATM   15  H           1     -37.669   0.029  -9.764  0.00  0.00     0.275 HD
HETATM   16  H           1     -37.790   1.232 -10.968  0.00  0.00     0.275 HD
ENDBRANCH   5  13
ENDBRANCH   1   5
BRANCH   2  17
HETATM   17  C           1     -34.042  -2.971 -11.650  0.00  0.00     0.186 C 
BRANCH  17  18
HETATM   18  C           1     -33.742  -3.641 -12.968  0.00  0.00     0.196 C 
HETATM   19  O           1     -34.502  -3.468 -13.946  0.00  0.00    -0.646 OA
HETATM   20  O           1     -32.734  -4.370 -13.083  0.00  0.00    -0.646 OA
ENDBRANCH  17  18
BRANCH  17  21
HETATM   21  C           1     -33.883  -3.980 -10.520  0.00  0.00     0.046 C 
BRANCH  21  22
HETATM   22  C           1     -35.021  -4.991 -10.578  0.00  0.00     0.116 C 
BRANCH  22  23
HETATM   23  C           1     -34.475  -6.378 -10.342  0.00  0.00     0.172 C 
HETATM   24  O           1     -33.362  -6.701 -10.811  0.00  0.00    -0.648 OA
HETATM   25  O           1     -35.137  -7.205  -9.678  0.00  0.00    -0.648 OA
ENDBRANCH  22  23
ENDBRANCH  21  22
ENDBRANCH  17  21
ENDBRANCH   2  17
TORSDOF 11
ENDMDL
MODEL 2
REMARK VINA RESULT:      -6.3     12.507     15.231
REMARK  11 active torsions:
REMARK  status: ('A' for Active; 'I' for Inactive)
REMARK    1  A    between atoms: O_2  and  P_3 
REMARK    2  A    between atoms: P_3  and  O_4 
REMARK    3  A    between atoms: O_4  and  C_5 
REMARK    4  A    between atoms: C_5  and  C_6 
REMARK    5  A    between atoms: C_6  and  C_7 
REMARK    6  A    between atoms: C_6  and  N_24 
REMARK       I    between atoms: C_7  and  N_8 
REMARK    7  A    between atoms: N_8  and  C_12 
REMARK    8  A    between atoms: C_11  and  C_12 
REMARK    9  A    between atoms: C_12  and  C_13 
REMARK   10  A    between atoms: C_13  and  C_14 
REMARK   11  A    between atoms: C_14  and  C_16 
ROOT
HETATM    1  C           1     -21.678  -4.512  -8.099  0.00  0.00     0.251 C 
HETATM    2  N           1     -22.128  -4.810  -9.357  0.00  0.00    -0.345 N 
HETATM    3  H           1     -21.991  -5.739  -9.736  0.00  0.00     0.163 HD
HETATM    4  O           1     -21.839  -3.403  -7.647  0.00  0.00    -0.271 OA
ENDROOT
BRANCH   1   5
HETATM    5  C           1     -20.979  -5.567  -7.277  0.00  0.00     0.298 C 
BRANCH   5   6
HETATM    6  C           1     -20.724  -5.033  -5.874  0.00  0.00     0.224 C 
BRANCH   6   7
HETATM    7  O           1     -20.471  -6.103  -5.004  0.00  0.00    -0.287 OA
BRANCH   7   8
HETATM    8  P           1     -21.695  -6.541  -4.047  0.00  0.00     0.406 P 
HETATM    9  O           1     -21.605  -5.809  -2.764  0.00  0.00    -0.624 OA
HETATM   10  O           1     -22.979  -6.220  -4.710  0.00  0.00    -0.624 OA
BRANCH   8  11
HETATM   11  O           1     -21.619  -8.130  -3.766  0.00  0.00    -0.300 OA
HETATM   12  H           1     -22.474  -8.361  -3.445  0.00  0.00     0.223 HD
ENDBRANCH   8  11
ENDBRANCH   7   8
ENDBRANCH   6   7
ENDBRANCH   5   6
BRANCH   5  13
HETATM   13  N           1     -19.672  -5.918  -7.923  0.00  0.00    -0.064 N 
HETATM   14  H           1     -19.743  -6.864  -8.360  0.00  0.00     0.275 HD
HETATM   15  H           1     -18.917  -5.923  -7.200  0.00  0.00     0.275 HD
HETATM   16  H           1     -19.445  -5.211  -8.658  0.00  0.00     0.275 HD
ENDBRANCH   5  13
ENDBRANCH   1   5
BRANCH   2  17
HETATM   17  C           1     -22.798  -3.796 -10.147  0.00  0.00     0.186 C 
BRANCH  17  18
HETATM   18  C           1     -24.283  -3.857  -9.886  0.00  0.00     0.196 C 
HETATM   19  O           1     -24.879  -4.956  -9.913  0.00  0.00    -0.646 OA
HETATM   20  O           1     -24.918  -2.807  -9.644  0.00  0.00    -0.646 OA
ENDBRANCH  17  18
BRANCH  17  21
HETATM   21  C           1     -22.531  -4.046 -11.625  0.00  0.00     0.046 C 
BRANCH  21  22
HETATM   22  C           1     -22.639  -2.734 -12.391  0.00  0.00     0.116 C 
BRANCH  22  23
HETATM   23  C           1     -23.719  -2.849 -13.438  0.00  0.00     0.172 C 
HETATM   24  O           1     -23.413  -2.897 -14.650  0.00  0.00    -0.648 OA
HETATM   25  O           1     -24.920  -2.896 -13.095  0.00  0.00    -0.648 OA
ENDBRANCH  22  23
ENDBRANCH  21  22
ENDBRANCH  17  21
ENDBRANCH   2  17
TORSDOF 11
ENDMDL
MODEL 3
REMARK VINA RESULT:      -6.1     12.512     14.119
REMARK  11 active torsions:
REMARK  status: ('A' for Active; 'I' for Inactive)
REMARK    1  A    between atoms: O_2  and  P_3 
REMARK    2  A    between atoms: P_3  and  O_4 
REMARK    3  A    between atoms: O_4  and  C_5 
REMARK    4  A    between atoms: C_5  and  C_6 
REMARK    5  A    between atoms: C_6  and  C_7 
REMARK    6  A    between atoms: C_6  and  N_24 
REMARK       I    between atoms: C_7  and  N_8 
REMARK    7  A    between atoms: N_8  and  C_12 
REMARK    8  A    between atoms: C_11  and  C_12 
REMARK    9  A    between atoms: C_12  and  C_13 
REMARK   10  A    between atoms: C_13  and  C_14 
REMARK   11  A    between atoms: C_14  and  C_16 
ROOT
HETATM    1  C           1     -22.520  -4.063  -8.328  0.00  0.00     0.251 C 
HETATM    2  N           1     -22.229  -5.212  -7.642  0.00  0.00    -0.345 N 
HETATM    3  H           1     -22.673  -6.083  -7.903  0.00  0.00     0.163 HD
HETATM    4  O           1     -21.991  -3.023  -8.016  0.00  0.00    -0.271 OA
ENDROOT
BRANCH   1   5
HETATM    5  C           1     -23.502  -4.096  -9.473  0.00  0.00     0.298 C 
BRANCH   5   6
HETATM    6  C           1     -22.910  -3.367 -10.672  0.00  0.00     0.224 C 
BRANCH   6   7
HETATM    7  O           1     -23.944  -2.804 -11.434  0.00  0.00    -0.287 OA
BRANCH   7   8
HETATM    8  P           1     -23.796  -2.937 -13.036  0.00  0.00     0.406 P 
HETATM    9  O           1     -22.363  -3.036 -13.393  0.00  0.00    -0.624 OA
HETATM   10  O           1     -24.506  -4.151 -13.498  0.00  0.00    -0.624 OA
BRANCH   8  11
HETATM   11  O           1     -24.438  -1.636 -13.747  0.00  0.00    -0.300 OA
HETATM   12  H           1     -24.760  -1.106 -13.038  0.00  0.00     0.223 HD
ENDBRANCH   8  11
ENDBRANCH   7   8
ENDBRANCH   6   7
ENDBRANCH   5   6
BRANCH   5  13
HETATM   13  N           1     -24.776  -3.423  -9.058  0.00  0.00    -0.064 N 
HETATM   14  H           1     -25.223  -2.979  -9.891  0.00  0.00     0.275 HD
HETATM   15  H           1     -24.565  -2.690  -8.343  0.00  0.00     0.275 HD
HETATM   16  H           1     -25.427  -4.131  -8.649  0.00  0.00     0.275 HD
ENDBRANCH   5  13
ENDBRANCH   1   5
BRANCH   2  17
HETATM   17  C           1     -21.286  -5.179  -6.541  0.00  0.00     0.186 C 
BRANCH  17  18
HETATM   18  C           1     -19.916  -5.563  -7.042  0.00  0.00     0.196 C 
HETATM   19  O           1     -19.595  -6.769  -7.126  0.00  0.00    -0.646 OA
HETATM   20  O           1     -19.101  -4.675  -7.374  0.00  0.00    -0.646 OA
ENDBRANCH  17  18
BRANCH  17  21
HETATM   21  C           1     -21.728  -6.164  -5.466  0.00  0.00     0.046 C 
BRANCH  21  22
HETATM   22  C           1     -21.030  -5.832  -4.155  0.00  0.00     0.116 C 
BRANCH  22  23
HETATM   23  C           1     -21.715  -6.555  -3.021  0.00  0.00     0.172 C 
HETATM   24  O           1     -21.519  -7.779  -2.850  0.00  0.00    -0.648 OA
HETATM   25  O           1     -22.479  -5.932  -2.253  0.00  0.00    -0.648 OA
ENDBRANCH  22  23
ENDBRANCH  21  22
ENDBRANCH  17  21
ENDBRANCH   2  17
TORSDOF 11
ENDMDL
MODEL 4
REMARK VINA RESULT:      -6.0      3.250      5.596
REMARK  11 active torsions:
REMARK  status: ('A' for Active; 'I' for Inactive)
REMARK    1  A    between atoms: O_2  and  P_3 
REMARK    2  A    between atoms: P_3  and  O_4 
REMARK    3  A    between atoms: O_4  and  C_5 
REMARK    4  A    between atoms: C_5  and  C_6 
REMARK    5  A    between atoms: C_6  and  C_7 
REMARK    6  A    between atoms: C_6  and  N_24 
REMARK       I    between atoms: C_7  and  N_8 
REMARK    7  A    between atoms: N_8  and  C_12 
REMARK    8  A    between atoms: C_11  and  C_12 
REMARK    9  A    between atoms: C_12  and  C_13 
REMARK   10  A    between atoms: C_13  and  C_14 
REMARK   11  A    between atoms: C_14  and  C_16 
ROOT
HETATM    1  C           1     -34.977  -0.840 -12.662  0.00  0.00     0.251 C 
HETATM    2  N           1     -35.520  -1.129 -13.885  0.00  0.00    -0.345 N 
HETATM    3  H           1     -35.716  -2.090 -14.137  0.00  0.00     0.163 HD
HETATM    4  O           1     -34.742   0.306 -12.361  0.00  0.00    -0.271 OA
ENDROOT
BRANCH   1   5
HETATM    5  C           1     -34.672  -1.953 -11.689  0.00  0.00     0.298 C 
BRANCH   5   6
HETATM    6  C           1     -35.837  -2.117 -10.722  0.00  0.00     0.224 C 
BRANCH   6   7
HETATM    7  O           1     -35.739  -1.158  -9.705  0.00  0.00    -0.287 OA
BRANCH   7   8
HETATM    8  P           1     -37.041  -0.230  -9.478  0.00  0.00     0.406 P 
HETATM    9  O           1     -36.665   1.193  -9.629  0.00  0.00    -0.624 OA
HETATM   10  O           1     -38.073  -0.578 -10.481  0.00  0.00    -0.624 OA
BRANCH   8  11
HETATM   11  O           1     -37.628  -0.477  -7.994  0.00  0.00    -0.300 OA
HETATM   12  H           1     -36.888  -0.376  -7.420  0.00  0.00     0.223 HD
ENDBRANCH   8  11
ENDBRANCH   7   8
ENDBRANCH   6   7
ENDBRANCH   5   6
BRANCH   5  13
HETATM   13  N           1     -33.428  -1.617 -10.921  0.00  0.00    -0.064 N 
HETATM   14  H           1     -33.530  -0.671 -10.490  0.00  0.00     0.275 HD
HETATM   15  H           1     -32.608  -1.619 -11.569  0.00  0.00     0.275 HD
HETATM   16  H           1     -33.280  -2.328 -10.170  0.00  0.00     0.275 HD
ENDBRANCH   5  13
ENDBRANCH   1   5
BRANCH   2  17
HETATM   17  C           1     -35.813  -0.059 -14.819  0.00  0.00     0.186 C 
BRANCH  17  18
HETATM   18  C           1     -37.299  -0.008 -15.074  0.00  0.00     0.196 C 
HETATM   19  O           1     -37.759   0.769 -15.938  0.00  0.00    -0.646 OA
HETATM   20  O           1     -38.070  -0.743 -14.420  0.00  0.00    -0.646 OA
ENDBRANCH  17  18
BRANCH  17  21
HETATM   21  C           1     -35.081  -0.318 -16.130  0.00  0.00     0.046 C 
BRANCH  21  22
HETATM   22  C           1     -35.564  -1.632 -16.730  0.00  0.00     0.116 C 
BRANCH  22  23
HETATM   23  C           1     -34.468  -2.664 -16.631  0.00  0.00     0.172 C 
HETATM   24  O           1     -33.524  -2.656 -17.451  0.00  0.00    -0.648 OA
HETATM   25  O           1     -34.504  -3.529 -15.729  0.00  0.00    -0.648 OA
ENDBRANCH  22  23
ENDBRANCH  21  22
ENDBRANCH  17  21
ENDBRANCH   2  17
TORSDOF 11
ENDMDL
MODEL 5
REMARK VINA RESULT:      -5.9      5.282      6.734
REMARK  11 active torsions:
REMARK  status: ('A' for Active; 'I' for Inactive)
REMARK    1  A    between atoms: O_2  and  P_3 
REMARK    2  A    between atoms: P_3  and  O_4 
REMARK    3  A    between atoms: O_4  and  C_5 
REMARK    4  A    between atoms: C_5  and  C_6 
REMARK    5  A    between atoms: C_6  and  C_7 
REMARK    6  A    between atoms: C_6  and  N_24 
REMARK       I    between atoms: C_7  and  N_8 
REMARK    7  A    between atoms: N_8  and  C_12 
REMARK    8  A    between atoms: C_11  and  C_12 
REMARK    9  A    between atoms: C_12  and  C_13 
REMARK   10  A    between atoms: C_13  and  C_14 
REMARK   11  A    between atoms: C_14  and  C_16 
ROOT
HETATM    1  C           1     -32.240  -4.290 -16.717  0.00  0.00     0.251 C 
HETATM    2  N           1     -31.538  -5.444 -16.491  0.00  0.00    -0.345 N 
HETATM    3  H           1     -31.987  -6.229 -16.036  0.00  0.00     0.163 HD
HETATM    4  O           1     -31.703  -3.353 -17.259  0.00  0.00    -0.271 OA
ENDROOT
BRANCH   1   5
HETATM    5  C           1     -33.684  -4.190 -16.291  0.00  0.00     0.298 C 
BRANCH   5   6
HETATM    6  C           1     -34.236  -2.826 -16.683  0.00  0.00     0.224 C 
BRANCH   6   7
HETATM    7  O           1     -35.013  -2.316 -15.633  0.00  0.00    -0.287 OA
BRANCH   7   8
HETATM    8  P           1     -35.725  -0.893 -15.906  0.00  0.00     0.406 P 
HETATM    9  O           1     -36.901  -0.751 -15.018  0.00  0.00    -0.624 OA
HETATM   10  O           1     -34.764   0.200 -15.632  0.00  0.00    -0.624 OA
BRANCH   8  11
HETATM   11  O           1     -36.203  -0.814 -17.447  0.00  0.00    -0.300 OA
HETATM   12  H           1     -35.405  -0.761 -17.946  0.00  0.00     0.223 HD
ENDBRANCH   8  11
ENDBRANCH   7   8
ENDBRANCH   6   7
ENDBRANCH   5   6
BRANCH   5  13
HETATM   13  N           1     -33.778  -4.357 -14.803  0.00  0.00    -0.064 N 
HETATM   14  H           1     -34.722  -4.726 -14.553  0.00  0.00     0.275 HD
HETATM   15  H           1     -33.629  -3.432 -14.339  0.00  0.00     0.275 HD
HETATM   16  H           1     -33.045  -5.029 -14.482  0.00  0.00     0.275 HD
ENDBRANCH   5  13
ENDBRANCH   1   5
BRANCH   2  17
HETATM   17  C           1     -30.150  -5.539 -16.900  0.00  0.00     0.186 C 
BRANCH  17  18
HETATM   18  C           1     -30.018  -6.577 -17.987  0.00  0.00     0.196 C 
HETATM   19  O           1     -30.858  -7.499 -18.079  0.00  0.00    -0.646 OA
HETATM   20  O           1     -29.068  -6.515 -18.798  0.00  0.00    -0.646 OA
ENDBRANCH  17  18
BRANCH  17  21
HETATM   21  C           1     -29.297  -5.944 -15.705  0.00  0.00     0.046 C 
BRANCH  21  22
HETATM   22  C           1     -28.421  -7.131 -16.085  0.00  0.00     0.116 C 
BRANCH  22  23
HETATM   23  C           1     -26.968  -6.726 -16.019  0.00  0.00     0.172 C 
HETATM   24  O           1     -26.562  -5.743 -16.677  0.00  0.00    -0.648 OA
HETATM   25  O           1     -26.171  -7.375 -15.308  0.00  0.00    -0.648 OA
ENDBRANCH  22  23
ENDBRANCH  21  22
ENDBRANCH  17  21
ENDBRANCH   2  17
TORSDOF 11
ENDMDL
MODEL 6
REMARK VINA RESULT:      -5.9      2.677      5.746
REMARK  11 active torsions:
REMARK  status: ('A' for Active; 'I' for Inactive)
REMARK    1  A    between atoms: O_2  and  P_3 
REMARK    2  A    between atoms: P_3  and  O_4 
REMARK    3  A    between atoms: O_4  and  C_5 
REMARK    4  A    between atoms: C_5  and  C_6 
REMARK    5  A    between atoms: C_6  and  C_7 
REMARK    6  A    between atoms: C_6  and  N_24 
REMARK       I    between atoms: C_7  and  N_8 
REMARK    7  A    between atoms: N_8  and  C_12 
REMARK    8  A    between atoms: C_11  and  C_12 
REMARK    9  A    between atoms: C_12  and  C_13 
REMARK   10  A    between atoms: C_13  and  C_14 
REMARK   11  A    between atoms: C_14  and  C_16 
ROOT
HETATM    1  C           1     -35.296  -0.480 -12.425  0.00  0.00     0.251 C 
HETATM    2  N           1     -35.507  -0.839 -13.729  0.00  0.00    -0.345 N 
HETATM    3  H           1     -35.400  -1.806 -14.011  0.00  0.00     0.163 HD
HETATM    4  O           1     -35.423   0.674 -12.089  0.00  0.00    -0.271 OA
ENDROOT
BRANCH   1   5
HETATM    5  C           1     -34.905  -1.524 -11.408  0.00  0.00     0.298 C 
BRANCH   5   6
HETATM    6  C           1     -34.532  -2.816 -12.123  0.00  0.00     0.224 C 
BRANCH   6   7
HETATM    7  O           1     -35.291  -3.874 -11.604  0.00  0.00    -0.287 OA
BRANCH   7   8
HETATM    8  P           1     -34.542  -5.300 -11.502  0.00  0.00     0.406 P 
HETATM    9  O           1     -33.083  -5.103 -11.649  0.00  0.00    -0.624 OA
HETATM   10  O           1     -34.827  -5.913 -10.184  0.00  0.00    -0.624 OA
BRANCH   8  11
HETATM   11  O           1     -35.075  -6.275 -12.674  0.00  0.00    -0.300 OA
HETATM   12  H           1     -34.969  -5.780 -13.468  0.00  0.00     0.223 HD
ENDBRANCH   8  11
ENDBRANCH   7   8
ENDBRANCH   6   7
ENDBRANCH   5   6
BRANCH   5  13
HETATM   13  N           1     -36.060  -1.779 -10.485  0.00  0.00    -0.064 N 
HETATM   14  H           1     -36.635  -2.568 -10.858  0.00  0.00     0.275 HD
HETATM   15  H           1     -36.649  -0.918 -10.419  0.00  0.00     0.275 HD
HETATM   16  H           1     -35.699  -2.028  -9.537  0.00  0.00     0.275 HD
ENDBRANCH   5  13
ENDBRANCH   1   5
BRANCH   2  17
HETATM   17  C           1     -35.882   0.164 -14.706  0.00  0.00     0.186 C 
BRANCH  17  18
HETATM   18  C           1     -37.367   0.087 -14.961  0.00  0.00     0.196 C 
HETATM   19  O           1     -37.890   0.806 -15.840  0.00  0.00    -0.646 OA
HETATM   20  O           1     -38.075  -0.698 -14.293  0.00  0.00    -0.646 OA
ENDBRANCH  17  18
BRANCH  17  21
HETATM   21  C           1     -35.129  -0.089 -16.006  0.00  0.00     0.046 C 
BRANCH  21  22
HETATM   22  C           1     -35.642  -1.371 -16.648  0.00  0.00     0.116 C 
BRANCH  22  23
HETATM   23  C           1     -34.616  -2.465 -16.479  0.00  0.00     0.172 C 
HETATM   24  O           1     -33.680  -2.577 -17.301  0.00  0.00    -0.648 OA
HETATM   25  O           1     -34.701  -3.258 -15.517  0.00  0.00    -0.648 OA
ENDBRANCH  22  23
ENDBRANCH  21  22
ENDBRANCH  17  21
ENDBRANCH   2  17
TORSDOF 11
ENDMDL
MODEL 7
REMARK VINA RESULT:      -5.9     13.431     15.315
REMARK  11 active torsions:
REMARK  status: ('A' for Active; 'I' for Inactive)
REMARK    1  A    between atoms: O_2  and  P_3 
REMARK    2  A    between atoms: P_3  and  O_4 
REMARK    3  A    between atoms: O_4  and  C_5 
REMARK    4  A    between atoms: C_5  and  C_6 
REMARK    5  A    between atoms: C_6  and  C_7 
REMARK    6  A    between atoms: C_6  and  N_24 
REMARK       I    between atoms: C_7  and  N_8 
REMARK    7  A    between atoms: N_8  and  C_12 
REMARK    8  A    between atoms: C_11  and  C_12 
REMARK    9  A    between atoms: C_12  and  C_13 
REMARK   10  A    between atoms: C_13  and  C_14 
REMARK   11  A    between atoms: C_14  and  C_16 
ROOT
HETATM    1  C           1     -20.762  -4.837  -6.638  0.00  0.00     0.251 C 
HETATM    2  N           1     -21.411  -5.961  -6.200  0.00  0.00    -0.345 N 
HETATM    3  H           1     -22.186  -6.337  -6.732  0.00  0.00     0.163 HD
HETATM    4  O           1     -19.838  -4.388  -6.003  0.00  0.00    -0.271 OA
ENDROOT
BRANCH   1   5
HETATM    5  C           1     -21.201  -4.161  -7.913  0.00  0.00     0.298 C 
BRANCH   5   6
HETATM    6  C           1     -22.694  -4.384  -8.119  0.00  0.00     0.224 C 
BRANCH   6   7
HETATM    7  O           1     -23.231  -3.312  -8.846  0.00  0.00    -0.287 OA
BRANCH   7   8
HETATM    8  P           1     -24.192  -3.705 -10.082  0.00  0.00     0.406 P 
HETATM    9  O           1     -23.773  -2.960 -11.290  0.00  0.00    -0.624 OA
HETATM   10  O           1     -24.094  -5.160 -10.339  0.00  0.00    -0.624 OA
BRANCH   8  11
HETATM   11  O           1     -25.720  -3.325  -9.719  0.00  0.00    -0.300 OA
HETATM   12  H           1     -25.860  -2.480 -10.110  0.00  0.00     0.223 HD
ENDBRANCH   8  11
ENDBRANCH   7   8
ENDBRANCH   6   7
ENDBRANCH   5   6
BRANCH   5  13
HETATM   13  N           1     -20.445  -4.740  -9.072  0.00  0.00    -0.064 N 
HETATM   14  H           1     -19.898  -5.570  -8.750  0.00  0.00     0.275 HD
HETATM   15  H           1     -19.792  -4.019  -9.456  0.00  0.00     0.275 HD
HETATM   16  H           1     -21.118  -5.032  -9.816  0.00  0.00     0.275 HD
ENDBRANCH   5  13
ENDBRANCH   1   5
BRANCH   2  17
HETATM   17  C           1     -20.989  -6.610  -4.974  0.00  0.00     0.186 C 
BRANCH  17  18
HETATM   18  C           1     -20.590  -8.034  -5.272  0.00  0.00     0.196 C 
HETATM   19  O           1     -21.352  -8.976  -4.961  0.00  0.00    -0.646 OA
HETATM   20  O           1     -19.497  -8.273  -5.830  0.00  0.00    -0.646 OA
ENDBRANCH  17  18
BRANCH  17  21
HETATM   21  C           1     -22.139  -6.602  -3.976  0.00  0.00     0.046 C 
BRANCH  21  22
HETATM   22  C           1     -21.637  -6.106  -2.626  0.00  0.00     0.116 C 
BRANCH  22  23
HETATM   23  C           1     -21.930  -7.140  -1.568  0.00  0.00     0.172 C 
HETATM   24  O           1     -21.330  -8.237  -1.582  0.00  0.00    -0.648 OA
HETATM   25  O           1     -22.772  -6.900  -0.676  0.00  0.00    -0.648 OA
ENDBRANCH  22  23
ENDBRANCH  21  22
ENDBRANCH  17  21
ENDBRANCH   2  17
TORSDOF 11
ENDMDL
MODEL 8
REMARK VINA RESULT:      -5.5      6.056      7.829
REMARK  11 active torsions:
REMARK  status: ('A' for Active; 'I' for Inactive)
REMARK    1  A    between atoms: O_2  and  P_3 
REMARK    2  A    between atoms: P_3  and  O_4 
REMARK    3  A    between atoms: O_4  and  C_5 
REMARK    4  A    between atoms: C_5  and  C_6 
REMARK    5  A    between atoms: C_6  and  C_7 
REMARK    6  A    between atoms: C_6  and  N_24 
REMARK       I    between atoms: C_7  and  N_8 
REMARK    7  A    between atoms: N_8  and  C_12 
REMARK    8  A    between atoms: C_11  and  C_12 
REMARK    9  A    between atoms: C_12  and  C_13 
REMARK   10  A    between atoms: C_13  and  C_14 
REMARK   11  A    between atoms: C_14  and  C_16 
ROOT
HETATM    1  C           1     -31.789  -4.526 -16.635  0.00  0.00     0.251 C 
HETATM    2  N           1     -31.107  -5.660 -16.285  0.00  0.00    -0.345 N 
HETATM    3  H           1     -31.570  -6.385 -15.751  0.00  0.00     0.163 HD
HETATM    4  O           1     -31.236  -3.661 -17.271  0.00  0.00    -0.271 OA
ENDROOT
BRANCH   1   5
HETATM    5  C           1     -33.232  -4.357 -16.226  0.00  0.00     0.298 C 
BRANCH   5   6
HETATM    6  C           1     -33.975  -5.671 -16.426  0.00  0.00     0.224 C 
BRANCH   6   7
HETATM    7  O           1     -35.188  -5.633 -15.725  0.00  0.00    -0.287 OA
BRANCH   7   8
HETATM    8  P           1     -36.094  -6.967 -15.806  0.00  0.00     0.406 P 
HETATM    9  O           1     -37.491  -6.597 -16.126  0.00  0.00    -0.624 OA
HETATM   10  O           1     -35.565  -7.860 -16.862  0.00  0.00    -0.624 OA
BRANCH   8  11
HETATM   11  O           1     -36.054  -7.734 -14.384  0.00  0.00    -0.300 OA
HETATM   12  H           1     -36.354  -8.607 -14.571  0.00  0.00     0.223 HD
ENDBRANCH   8  11
ENDBRANCH   7   8
ENDBRANCH   6   7
ENDBRANCH   5   6
BRANCH   5  13
HETATM   13  N           1     -33.867  -3.290 -17.067  0.00  0.00    -0.064 N 
HETATM   14  H           1     -34.593  -3.719 -17.683  0.00  0.00     0.275 HD
HETATM   15  H           1     -33.136  -2.829 -17.655  0.00  0.00     0.275 HD
HETATM   16  H           1     -34.314  -2.578 -16.447  0.00  0.00     0.275 HD
ENDBRANCH   5  13
ENDBRANCH   1   5
BRANCH   2  17
HETATM   17  C           1     -29.720  -5.822 -16.678  0.00  0.00     0.186 C 
BRANCH  17  18
HETATM   18  C           1     -29.614  -6.925 -17.702  0.00  0.00     0.196 C 
HETATM   19  O           1     -28.810  -6.820 -18.654  0.00  0.00    -0.646 OA
HETATM   20  O           1     -30.331  -7.944 -17.599  0.00  0.00    -0.646 OA
ENDBRANCH  17  18
BRANCH  17  21
HETATM   21  C           1     -28.886  -6.182 -15.455  0.00  0.00     0.046 C 
BRANCH  21  22
HETATM   22  C           1     -27.907  -7.291 -15.817  0.00  0.00     0.116 C 
BRANCH  22  23
HETATM   23  C           1     -26.514  -6.721 -15.917  0.00  0.00     0.172 C 
HETATM   24  O           1     -26.297  -5.722 -16.637  0.00  0.00    -0.648 OA
HETATM   25  O           1     -25.576  -7.248 -15.280  0.00  0.00    -0.648 OA
ENDBRANCH  22  23
ENDBRANCH  21  22
ENDBRANCH  17  21
ENDBRANCH   2  17
TORSDOF 11
ENDMDL
MODEL 9
REMARK VINA RESULT:      -5.5     14.759     17.636
REMARK  11 active torsions:
REMARK  status: ('A' for Active; 'I' for Inactive)
REMARK    1  A    between atoms: O_2  and  P_3 
REMARK    2  A    between atoms: P_3  and  O_4 
REMARK    3  A    between atoms: O_4  and  C_5 
REMARK    4  A    between atoms: C_5  and  C_6 
REMARK    5  A    between atoms: C_6  and  C_7 
REMARK    6  A    between atoms: C_6  and  N_24 
REMARK       I    between atoms: C_7  and  N_8 
REMARK    7  A    between atoms: N_8  and  C_12 
REMARK    8  A    between atoms: C_11  and  C_12 
REMARK    9  A    between atoms: C_12  and  C_13 
REMARK   10  A    between atoms: C_13  and  C_14 
REMARK   11  A    between atoms: C_14  and  C_16 
ROOT
HETATM    1  C           1     -21.486  -6.666  -4.250  0.00  0.00     0.251 C 
HETATM    2  N           1     -21.116  -5.561  -4.969  0.00  0.00    -0.345 N 
HETATM    3  H           1     -20.747  -4.747  -4.493  0.00  0.00     0.163 HD
HETATM    4  O           1     -21.927  -7.636  -4.818  0.00  0.00    -0.271 OA
ENDROOT
BRANCH   1   5
HETATM    5  C           1     -21.343  -6.671  -2.748  0.00  0.00     0.298 C 
BRANCH   5   6
HETATM    6  C           1     -21.436  -8.101  -2.232  0.00  0.00     0.224 C 
BRANCH   6   7
HETATM    7  O           1     -20.831  -8.184  -0.970  0.00  0.00    -0.287 OA
BRANCH   7   8
HETATM    8  P           1     -21.784  -8.663   0.242  0.00  0.00     0.406 P 
HETATM    9  O           1     -21.072  -8.492   1.527  0.00  0.00    -0.624 OA
HETATM   10  O           1     -23.020  -7.848   0.249  0.00  0.00    -0.624 OA
BRANCH   8  11
HETATM   11  O           1     -22.169 -10.220   0.043  0.00  0.00    -0.300 OA
HETATM   12  H           1     -23.105 -10.252   0.136  0.00  0.00     0.223 HD
ENDBRANCH   8  11
ENDBRANCH   7   8
ENDBRANCH   6   7
ENDBRANCH   5   6
BRANCH   5  13
HETATM   13  N           1     -22.439  -5.848  -2.139  0.00  0.00    -0.064 N 
HETATM   14  H           1     -23.352  -6.107  -2.575  0.00  0.00     0.275 HD
HETATM   15  H           1     -22.247  -4.834  -2.306  0.00  0.00     0.275 HD
HETATM   16  H           1     -22.481  -6.030  -1.111  0.00  0.00     0.275 HD
ENDBRANCH   5  13
ENDBRANCH   1   5
BRANCH   2  17
HETATM   17  C           1     -21.255  -5.556  -6.412  0.00  0.00     0.186 C 
BRANCH  17  18
HETATM   18  C           1     -19.906  -5.787  -7.047  0.00  0.00     0.196 C 
HETATM   19  O           1     -19.378  -6.919  -7.002  0.00  0.00    -0.646 OA
HETATM   20  O           1     -19.315  -4.844  -7.618  0.00  0.00    -0.646 OA
ENDBRANCH  17  18
BRANCH  17  21
HETATM   21  C           1     -21.805  -4.209  -6.864  0.00  0.00     0.046 C 
BRANCH  21  22
HETATM   22  C           1     -23.170  -4.409  -7.508  0.00  0.00     0.116 C 
BRANCH  22  23
HETATM   23  C           1     -23.108  -3.998  -8.959  0.00  0.00     0.172 C 
HETATM   24  O           1     -22.129  -4.331  -9.662  0.00  0.00    -0.648 OA
HETATM   25  O           1     -24.035  -3.323  -9.457  0.00  0.00    -0.648 OA
ENDBRANCH  22  23
ENDBRANCH  21  22
ENDBRANCH  17  21
ENDBRANCH   2  17
TORSDOF 11
ENDMDL
