MODEL 1
REMARK VINA RESULT:      -5.9      0.000      0.000
REMARK  8 active torsions:
REMARK  status: ('A' for Active; 'I' for Inactive)
REMARK    1  A    between atoms: N_4  and  C_9 
REMARK       I    between atoms: N_6  and  C_7 
REMARK    2  A    between atoms: C_7  and  C_8 
REMARK    3  A    between atoms: C_8  and  C_9 
REMARK    4  A    between atoms: C_9  and  C_12 
REMARK    5  A    between atoms: N_11  and  C_19 
REMARK       I    between atoms: N_11  and  C_12 
REMARK    6  A    between atoms: C_18  and  C_19 
REMARK    7  A    between atoms: C_19  and  C_20 
REMARK    8  A    between atoms: C_20  and  Se_21 
ROOT
HETATM    1  C           1     -33.623  -2.792 -11.250  0.00  0.00     0.283 C 
ENDROOT
BRANCH   1   2
HETATM    2  N           1     -33.667  -1.743 -10.179  0.00  0.00    -0.066 N 
HETATM    3  H           1     -34.090  -2.146  -9.312  0.00  0.00     0.275 HD
HETATM    4  H           1     -32.696  -1.416  -9.972  0.00  0.00     0.275 HD
HETATM    5  H           1     -34.244  -0.936 -10.504  0.00  0.00     0.275 HD
ENDBRANCH   1   2
BRANCH   1   6
HETATM    6  C           1     -34.188  -4.097 -10.704  0.00  0.00     0.145 C 
BRANCH   6   7
HETATM    7  C           1     -33.374  -5.256 -11.226  0.00  0.00     0.217 C 
HETATM    8  O           1     -33.638  -6.383 -10.879  0.00  0.00    -0.274 OA
HETATM    9  N           1     -32.337  -5.031 -12.091  0.00  0.00    -0.370 N 
HETATM   10  H           1     -31.792  -5.807 -12.440  0.00  0.00     0.159 HD
HETATM   11  H           1     -32.118  -4.086 -12.380  0.00  0.00     0.159 HD
ENDBRANCH   6   7
ENDBRANCH   1   6
BRANCH   1  12
HETATM   12  C           1     -34.448  -2.339 -12.429  0.00  0.00     0.249 C 
HETATM   13  O           1     -34.480  -3.008 -13.436  0.00  0.00    -0.271 OA
HETATM   14  N           1     -35.159  -1.173 -12.361  0.00  0.00    -0.345 N 
HETATM   15  H           1     -35.133  -0.613 -11.518  0.00  0.00     0.163 HD
BRANCH  14  16
HETATM   16  C           1     -35.952  -0.738 -13.494  0.00  0.00     0.185 C 
BRANCH  16  17
HETATM   17  C           1     -35.163   0.263 -14.303  0.00  0.00     0.196 C 
HETATM   18  O           1     -34.828  -0.006 -15.476  0.00  0.00    -0.646 OA
HETATM   19  O           1     -34.845   1.362 -13.799  0.00  0.00    -0.646 OA
ENDBRANCH  16  17
BRANCH  16  20
HETATM   20  C           1     -37.237  -0.089 -12.996  0.00  0.00     0.039 C 
BRANCH  20  21
HETATM   21 Se           1     -37.221  -0.028 -11.048  0.00  0.00     0.000 Se
HETATM   22  H           1     -38.318   0.947 -10.953  0.00  0.00     0.000 HD
ENDBRANCH  20  21
ENDBRANCH  16  20
ENDBRANCH  14  16
ENDBRANCH   1  12
TORSDOF 8
ENDMDL
MODEL 2
REMARK VINA RESULT:      -5.8     11.865     13.740
REMARK  8 active torsions:
REMARK  status: ('A' for Active; 'I' for Inactive)
REMARK    1  A    between atoms: N_4  and  C_9 
REMARK       I    between atoms: N_6  and  C_7 
REMARK    2  A    between atoms: C_7  and  C_8 
REMARK    3  A    between atoms: C_8  and  C_9 
REMARK    4  A    between atoms: C_9  and  C_12 
REMARK    5  A    between atoms: N_11  and  C_19 
REMARK       I    between atoms: N_11  and  C_12 
REMARK    6  A    between atoms: C_18  and  C_19 
REMARK    7  A    between atoms: C_19  and  C_20 
REMARK    8  A    between atoms: C_20  and  Se_21 
ROOT
HETATM    1  C           1     -22.558  -3.057 -11.875  0.00  0.00     0.283 C 
ENDROOT
BRANCH   1   2
HETATM    2  N           1     -21.655  -3.643 -12.920  0.00  0.00    -0.066 N 
HETATM    3  H           1     -20.861  -4.140 -12.456  0.00  0.00     0.275 HD
HETATM    4  H           1     -22.194  -4.321 -13.505  0.00  0.00     0.275 HD
HETATM    5  H           1     -21.281  -2.879 -13.526  0.00  0.00     0.275 HD
ENDBRANCH   1   2
BRANCH   1   6
HETATM    6  C           1     -23.968  -2.934 -12.436  0.00  0.00     0.145 C 
BRANCH   6   7
HETATM    7  C           1     -23.901  -2.484 -13.875  0.00  0.00     0.217 C 
HETATM    8  O           1     -23.747  -3.298 -14.755  0.00  0.00    -0.274 OA
HETATM    9  N           1     -24.015  -1.156 -14.184  0.00  0.00    -0.370 N 
HETATM   10  H           1     -23.970  -0.855 -15.149  0.00  0.00     0.159 HD
HETATM   11  H           1     -24.144  -0.475 -13.447  0.00  0.00     0.159 HD
ENDBRANCH   6   7
ENDBRANCH   1   6
BRANCH   1  12
HETATM   12  C           1     -22.573  -3.957 -10.664  0.00  0.00     0.249 C 
HETATM   13  O           1     -23.531  -4.660 -10.446  0.00  0.00    -0.271 OA
HETATM   14  N           1     -21.503  -3.977  -9.811  0.00  0.00    -0.345 N 
HETATM   15  H           1     -20.700  -3.389  -9.994  0.00  0.00     0.163 HD
BRANCH  14  16
HETATM   16  C           1     -21.518  -4.841  -8.647  0.00  0.00     0.185 C 
BRANCH  16  17
HETATM   17  C           1     -22.147  -4.109  -7.487  0.00  0.00     0.196 C 
HETATM   18  O           1     -21.564  -3.129  -6.976  0.00  0.00    -0.646 OA
HETATM   19  O           1     -23.251  -4.484  -7.036  0.00  0.00    -0.646 OA
ENDBRANCH  16  17
BRANCH  16  20
HETATM   20  C           1     -20.091  -5.233  -8.288  0.00  0.00     0.039 C 
BRANCH  20  21
HETATM   21 Se           1     -20.092  -6.232  -6.615  0.00  0.00     0.000 Se
HETATM   22  H           1     -21.487  -6.682  -6.749  0.00  0.00     0.000 HD
ENDBRANCH  20  21
ENDBRANCH  16  20
ENDBRANCH  14  16
ENDBRANCH   1  12
TORSDOF 8
ENDMDL
MODEL 3
REMARK VINA RESULT:      -5.5     12.513     14.057
REMARK  8 active torsions:
REMARK  status: ('A' for Active; 'I' for Inactive)
REMARK    1  A    between atoms: N_4  and  C_9 
REMARK       I    between atoms: N_6  and  C_7 
REMARK    2  A    between atoms: C_7  and  C_8 
REMARK    3  A    between atoms: C_8  and  C_9 
REMARK    4  A    between atoms: C_9  and  C_12 
REMARK    5  A    between atoms: N_11  and  C_19 
REMARK       I    between atoms: N_11  and  C_12 
REMARK    6  A    between atoms: C_18  and  C_19 
REMARK    7  A    between atoms: C_19  and  C_20 
REMARK    8  A    between atoms: C_20  and  Se_21 
ROOT
HETATM    1  C           1     -21.189  -5.703  -6.819  0.00  0.00     0.283 C 
ENDROOT
BRANCH   1   2
HETATM    2  N           1     -19.922  -6.212  -7.439  0.00  0.00    -0.066 N 
HETATM    3  H           1     -19.698  -5.648  -8.289  0.00  0.00     0.275 HD
HETATM    4  H           1     -19.140  -6.128  -6.751  0.00  0.00     0.275 HD
HETATM    5  H           1     -20.043  -7.214  -7.708  0.00  0.00     0.275 HD
ENDBRANCH   1   2
BRANCH   1   6
HETATM    6  C           1     -20.903  -5.222  -5.403  0.00  0.00     0.145 C 
BRANCH   6   7
HETATM    7  C           1     -21.174  -6.341  -4.426  0.00  0.00     0.217 C 
HETATM    8  O           1     -20.706  -7.437  -4.620  0.00  0.00    -0.274 OA
HETATM    9  N           1     -21.949  -6.113  -3.321  0.00  0.00    -0.370 N 
HETATM   10  H           1     -22.130  -6.862  -2.666  0.00  0.00     0.159 HD
HETATM   11  H           1     -22.340  -5.194  -3.159  0.00  0.00     0.159 HD
ENDBRANCH   6   7
ENDBRANCH   1   6
BRANCH   1  12
HETATM   12  C           1     -21.726  -4.558  -7.643  0.00  0.00     0.249 C 
HETATM   13  O           1     -21.635  -3.425  -7.232  0.00  0.00    -0.271 OA
HETATM   14  N           1     -22.314  -4.801  -8.854  0.00  0.00    -0.345 N 
HETATM   15  H           1     -22.389  -5.750  -9.198  0.00  0.00     0.163 HD
BRANCH  14  16
HETATM   16  C           1     -22.829  -3.701  -9.645  0.00  0.00     0.185 C 
BRANCH  16  17
HETATM   17  C           1     -24.335  -3.778  -9.690  0.00  0.00     0.196 C 
HETATM   18  O           1     -25.019  -2.744  -9.533  0.00  0.00    -0.646 OA
HETATM   19  O           1     -24.900  -4.877  -9.884  0.00  0.00    -0.646 OA
ENDBRANCH  16  17
BRANCH  16  20
HETATM   20  C           1     -22.273  -3.790 -11.060  0.00  0.00     0.039 C 
BRANCH  20  21
HETATM   21 Se           1     -20.352  -4.112 -10.984  0.00  0.00     0.000 Se
HETATM   22  H           1     -20.162  -4.027 -12.441  0.00  0.00     0.000 HD
ENDBRANCH  20  21
ENDBRANCH  16  20
ENDBRANCH  14  16
ENDBRANCH   1  12
TORSDOF 8
ENDMDL
MODEL 4
REMARK VINA RESULT:      -5.4      2.438      2.932
REMARK  8 active torsions:
REMARK  status: ('A' for Active; 'I' for Inactive)
REMARK    1  A    between atoms: N_4  and  C_9 
REMARK       I    between atoms: N_6  and  C_7 
REMARK    2  A    between atoms: C_7  and  C_8 
REMARK    3  A    between atoms: C_8  and  C_9 
REMARK    4  A    between atoms: C_9  and  C_12 
REMARK    5  A    between atoms: N_11  and  C_19 
REMARK       I    between atoms: N_11  and  C_12 
REMARK    6  A    between atoms: C_18  and  C_19 
REMARK    7  A    between atoms: C_19  and  C_20 
REMARK    8  A    between atoms: C_20  and  Se_21 
ROOT
HETATM    1  C           1     -33.770  -4.855 -11.657  0.00  0.00     0.283 C 
ENDROOT
BRANCH   1   2
HETATM    2  N           1     -32.340  -5.259 -11.859  0.00  0.00    -0.066 N 
HETATM    3  H           1     -31.933  -5.572 -10.948  0.00  0.00     0.275 HD
HETATM    4  H           1     -32.294  -6.045 -12.547  0.00  0.00     0.275 HD
HETATM    5  H           1     -31.795  -4.445 -12.221  0.00  0.00     0.275 HD
ENDBRANCH   1   2
BRANCH   1   6
HETATM    6  C           1     -34.255  -5.365 -10.306  0.00  0.00     0.145 C 
BRANCH   6   7
HETATM    7  C           1     -34.649  -6.817 -10.427  0.00  0.00     0.217 C 
HETATM    8  O           1     -34.566  -7.547  -9.468  0.00  0.00    -0.274 OA
HETATM    9  N           1     -35.101  -7.306 -11.623  0.00  0.00    -0.370 N 
HETATM   10  H           1     -35.366  -8.279 -11.704  0.00  0.00     0.159 HD
HETATM   11  H           1     -35.171  -6.694 -12.426  0.00  0.00     0.159 HD
ENDBRANCH   6   7
ENDBRANCH   1   6
BRANCH   1  12
HETATM   12  C           1     -33.876  -3.350 -11.696  0.00  0.00     0.249 C 
HETATM   13  O           1     -32.973  -2.670 -11.269  0.00  0.00    -0.271 OA
HETATM   14  N           1     -34.994  -2.756 -12.214  0.00  0.00    -0.345 N 
HETATM   15  H           1     -35.750  -3.325 -12.572  0.00  0.00     0.163 HD
BRANCH  14  16
HETATM   16  C           1     -35.096  -1.310 -12.252  0.00  0.00     0.185 C 
BRANCH  16  17
HETATM   17  C           1     -36.199  -0.860 -11.325  0.00  0.00     0.196 C 
HETATM   18  O           1     -37.385  -0.856 -11.719  0.00  0.00    -0.646 OA
HETATM   19  O           1     -35.926  -0.491 -10.162  0.00  0.00    -0.646 OA
ENDBRANCH  16  17
BRANCH  16  20
HETATM   20  C           1     -35.412  -0.860 -13.673  0.00  0.00     0.039 C 
BRANCH  20  21
HETATM   21 Se           1     -34.836   0.986 -13.914  0.00  0.00     0.000 Se
HETATM   22  H           1     -33.458   0.630 -14.286  0.00  0.00     0.000 HD
ENDBRANCH  20  21
ENDBRANCH  16  20
ENDBRANCH  14  16
ENDBRANCH   1  12
TORSDOF 8
ENDMDL
MODEL 5
REMARK VINA RESULT:      -5.3     11.750     13.728
REMARK  8 active torsions:
REMARK  status: ('A' for Active; 'I' for Inactive)
REMARK    1  A    between atoms: N_4  and  C_9 
REMARK       I    between atoms: N_6  and  C_7 
REMARK    2  A    between atoms: C_7  and  C_8 
REMARK    3  A    between atoms: C_8  and  C_9 
REMARK    4  A    between atoms: C_9  and  C_12 
REMARK    5  A    between atoms: N_11  and  C_19 
REMARK       I    between atoms: N_11  and  C_12 
REMARK    6  A    between atoms: C_18  and  C_19 
REMARK    7  A    between atoms: C_19  and  C_20 
REMARK    8  A    between atoms: C_20  and  Se_21 
ROOT
HETATM    1  C           1     -23.392  -3.892 -11.264  0.00  0.00     0.283 C 
ENDROOT
BRANCH   1   2
HETATM    2  N           1     -24.680  -3.471 -10.621  0.00  0.00    -0.066 N 
HETATM    3  H           1     -25.436  -4.145 -10.878  0.00  0.00     0.275 HD
HETATM    4  H           1     -24.564  -3.459  -9.583  0.00  0.00     0.275 HD
HETATM    5  H           1     -24.940  -2.515 -10.954  0.00  0.00     0.275 HD
ENDBRANCH   1   2
BRANCH   1   6
HETATM    6  C           1     -22.794  -2.713 -12.020  0.00  0.00     0.145 C 
BRANCH   6   7
HETATM    7  C           1     -23.373  -2.663 -13.414  0.00  0.00     0.217 C 
HETATM    8  O           1     -24.523  -2.332 -13.577  0.00  0.00    -0.274 OA
HETATM    9  N           1     -22.595  -2.992 -14.491  0.00  0.00    -0.370 N 
HETATM   10  H           1     -22.983  -2.957 -15.425  0.00  0.00     0.159 HD
HETATM   11  H           1     -21.632  -3.268 -14.353  0.00  0.00     0.159 HD
ENDBRANCH   6   7
ENDBRANCH   1   6
BRANCH   1  12
HETATM   12  C           1     -22.426  -4.350 -10.198  0.00  0.00     0.249 C 
HETATM   13  O           1     -21.327  -4.743 -10.509  0.00  0.00    -0.271 OA
HETATM   14  N           1     -22.794  -4.320  -8.881  0.00  0.00    -0.345 N 
HETATM   15  H           1     -23.715  -3.990  -8.621  0.00  0.00     0.163 HD
BRANCH  14  16
HETATM   16  C           1     -21.866  -4.760  -7.857  0.00  0.00     0.185 C 
BRANCH  16  17
HETATM   17  C           1     -22.625  -5.063  -6.589  0.00  0.00     0.196 C 
HETATM   18  O           1     -23.833  -4.758  -6.495  0.00  0.00    -0.646 OA
HETATM   19  O           1     -22.045  -5.618  -5.631  0.00  0.00    -0.646 OA
ENDBRANCH  16  17
BRANCH  16  20
HETATM   20  C           1     -20.848  -3.659  -7.590  0.00  0.00     0.039 C 
BRANCH  20  21
HETATM   21 Se           1     -19.065  -4.438  -7.476  0.00  0.00     0.000 Se
HETATM   22  H           1     -18.442  -3.432  -8.351  0.00  0.00     0.000 HD
ENDBRANCH  20  21
ENDBRANCH  16  20
ENDBRANCH  14  16
ENDBRANCH   1  12
TORSDOF 8
ENDMDL
MODEL 6
REMARK VINA RESULT:      -5.2      2.176      2.502
REMARK  8 active torsions:
REMARK  status: ('A' for Active; 'I' for Inactive)
REMARK    1  A    between atoms: N_4  and  C_9 
REMARK       I    between atoms: N_6  and  C_7 
REMARK    2  A    between atoms: C_7  and  C_8 
REMARK    3  A    between atoms: C_8  and  C_9 
REMARK    4  A    between atoms: C_9  and  C_12 
REMARK    5  A    between atoms: N_11  and  C_19 
REMARK       I    between atoms: N_11  and  C_12 
REMARK    6  A    between atoms: C_18  and  C_19 
REMARK    7  A    between atoms: C_19  and  C_20 
REMARK    8  A    between atoms: C_20  and  Se_21 
ROOT
HETATM    1  C           1     -34.451  -1.962 -11.745  0.00  0.00     0.283 C 
ENDROOT
BRANCH   1   2
HETATM    2  N           1     -34.780  -1.406 -10.391  0.00  0.00    -0.066 N 
HETATM    3  H           1     -34.708  -2.164  -9.675  0.00  0.00     0.275 HD
HETATM    4  H           1     -34.108  -0.641 -10.156  0.00  0.00     0.275 HD
HETATM    5  H           1     -35.753  -1.026 -10.397  0.00  0.00     0.275 HD
ENDBRANCH   1   2
BRANCH   1   6
HETATM    6  C           1     -34.490  -3.483 -11.691  0.00  0.00     0.145 C 
BRANCH   6   7
HETATM    7  C           1     -33.540  -4.049 -12.719  0.00  0.00     0.217 C 
HETATM    8  O           1     -33.789  -3.939 -13.895  0.00  0.00    -0.274 OA
HETATM    9  N           1     -32.396  -4.685 -12.317  0.00  0.00    -0.370 N 
HETATM   10  H           1     -31.759  -5.063 -13.006  0.00  0.00     0.159 HD
HETATM   11  H           1     -32.188  -4.776 -11.331  0.00  0.00     0.159 HD
ENDBRANCH   6   7
ENDBRANCH   1   6
BRANCH   1  12
HETATM   12  C           1     -35.462  -1.467 -12.750  0.00  0.00     0.249 C 
HETATM   13  O           1     -36.625  -1.366 -12.437  0.00  0.00    -0.271 OA
HETATM   14  N           1     -35.063  -1.131 -14.015  0.00  0.00    -0.345 N 
HETATM   15  H           1     -34.089  -1.215 -14.276  0.00  0.00     0.163 HD
BRANCH  14  16
HETATM   16  C           1     -36.034  -0.655 -14.980  0.00  0.00     0.185 C 
BRANCH  16  17
HETATM   17  C           1     -35.673  -1.172 -16.351  0.00  0.00     0.196 C 
HETATM   18  O           1     -34.650  -1.873 -16.506  0.00  0.00    -0.646 OA
HETATM   19  O           1     -36.397  -0.898 -17.333  0.00  0.00    -0.646 OA
ENDBRANCH  16  17
BRANCH  16  20
HETATM   20  C           1     -36.031   0.868 -14.994  0.00  0.00     0.039 C 
BRANCH  20  21
HETATM   21 Se           1     -34.545   1.524 -13.918  0.00  0.00     0.000 Se
HETATM   22  H           1     -34.598   0.413 -12.955  0.00  0.00     0.000 HD
ENDBRANCH  20  21
ENDBRANCH  16  20
ENDBRANCH  14  16
ENDBRANCH   1  12
TORSDOF 8
ENDMDL
MODEL 7
REMARK VINA RESULT:      -4.9     12.595     14.685
REMARK  8 active torsions:
REMARK  status: ('A' for Active; 'I' for Inactive)
REMARK    1  A    between atoms: N_4  and  C_9 
REMARK       I    between atoms: N_6  and  C_7 
REMARK    2  A    between atoms: C_7  and  C_8 
REMARK    3  A    between atoms: C_8  and  C_9 
REMARK    4  A    between atoms: C_9  and  C_12 
REMARK    5  A    between atoms: N_11  and  C_19 
REMARK       I    between atoms: N_11  and  C_12 
REMARK    6  A    between atoms: C_18  and  C_19 
REMARK    7  A    between atoms: C_19  and  C_20 
REMARK    8  A    between atoms: C_20  and  Se_21 
ROOT
HETATM    1  C           1     -22.064  -3.907 -10.022  0.00  0.00     0.283 C 
ENDROOT
BRANCH   1   2
HETATM    2  N           1     -20.900  -4.502 -10.755  0.00  0.00    -0.066 N 
HETATM    3  H           1     -20.795  -4.034 -11.683  0.00  0.00     0.275 HD
HETATM    4  H           1     -20.028  -4.363 -10.196  0.00  0.00     0.275 HD
HETATM    5  H           1     -21.063  -5.524 -10.898  0.00  0.00     0.275 HD
ENDBRANCH   1   2
BRANCH   1   6
HETATM    6  C           1     -23.352  -4.569 -10.493  0.00  0.00     0.145 C 
BRANCH   6   7
HETATM    7  C           1     -24.481  -3.568 -10.444  0.00  0.00     0.217 C 
HETATM    8  O           1     -24.932  -3.116 -11.469  0.00  0.00    -0.274 OA
HETATM    9  N           1     -24.994  -3.173  -9.237  0.00  0.00    -0.370 N 
HETATM   10  H           1     -25.751  -2.502  -9.204  0.00  0.00     0.159 HD
HETATM   11  H           1     -24.616  -3.553  -8.379  0.00  0.00     0.159 HD
ENDBRANCH   6   7
ENDBRANCH   1   6
BRANCH   1  12
HETATM   12  C           1     -21.893  -4.134  -8.540  0.00  0.00     0.249 C 
HETATM   13  O           1     -22.251  -3.288  -7.754  0.00  0.00    -0.271 OA
HETATM   14  N           1     -21.334  -5.297  -8.085  0.00  0.00    -0.345 N 
HETATM   15  H           1     -21.036  -6.005  -8.743  0.00  0.00     0.163 HD
BRANCH  14  16
HETATM   16  C           1     -21.170  -5.515  -6.661  0.00  0.00     0.185 C 
BRANCH  16  17
HETATM   17  C           1     -19.908  -4.834  -6.191  0.00  0.00     0.196 C 
HETATM   18  O           1     -19.840  -4.376  -5.030  0.00  0.00    -0.646 OA
HETATM   19  O           1     -18.931  -4.728  -6.963  0.00  0.00    -0.646 OA
ENDBRANCH  16  17
BRANCH  16  20
HETATM   20  C           1     -21.074  -7.010  -6.385  0.00  0.00     0.039 C 
BRANCH  20  21
HETATM   21 Se           1     -21.746  -7.385  -4.594  0.00  0.00     0.000 Se
HETATM   22  H           1     -23.149  -7.102  -4.935  0.00  0.00     0.000 HD
ENDBRANCH  20  21
ENDBRANCH  16  20
ENDBRANCH  14  16
ENDBRANCH   1  12
TORSDOF 8
ENDMDL
MODEL 8
REMARK VINA RESULT:      -4.9      2.373      3.080
REMARK  8 active torsions:
REMARK  status: ('A' for Active; 'I' for Inactive)
REMARK    1  A    between atoms: N_4  and  C_9 
REMARK       I    between atoms: N_6  and  C_7 
REMARK    2  A    between atoms: C_7  and  C_8 
REMARK    3  A    between atoms: C_8  and  C_9 
REMARK    4  A    between atoms: C_9  and  C_12 
REMARK    5  A    between atoms: N_11  and  C_19 
REMARK       I    between atoms: N_11  and  C_12 
REMARK    6  A    between atoms: C_18  and  C_19 
REMARK    7  A    between atoms: C_19  and  C_20 
REMARK    8  A    between atoms: C_20  and  Se_21 
ROOT
HETATM    1  C           1     -34.352  -5.700 -11.601  0.00  0.00     0.283 C 
ENDROOT
BRANCH   1   2
HETATM    2  N           1     -32.855  -5.778 -11.648  0.00  0.00    -0.066 N 
HETATM    3  H           1     -32.565  -6.708 -12.023  0.00  0.00     0.275 HD
HETATM    4  H           1     -32.486  -5.022 -12.269  0.00  0.00     0.275 HD
HETATM    5  H           1     -32.469  -5.657 -10.684  0.00  0.00     0.275 HD
ENDBRANCH   1   2
BRANCH   1   6
HETATM    6  C           1     -34.833  -6.034 -10.195  0.00  0.00     0.145 C 
BRANCH   6   7
HETATM    7  C           1     -34.698  -7.518  -9.955  0.00  0.00     0.217 C 
HETATM    8  O           1     -34.910  -8.296 -10.854  0.00  0.00    -0.274 OA
HETATM    9  N           1     -34.334  -7.981  -8.720  0.00  0.00    -0.370 N 
HETATM   10  H           1     -34.242  -8.976  -8.559  0.00  0.00     0.159 HD
HETATM   11  H           1     -34.156  -7.328  -7.967  0.00  0.00     0.159 HD
ENDBRANCH   6   7
ENDBRANCH   1   6
BRANCH   1  12
HETATM   12  C           1     -34.794  -4.304 -11.967  0.00  0.00     0.249 C 
HETATM   13  O           1     -34.743  -3.937 -13.117  0.00  0.00    -0.271 OA
HETATM   14  N           1     -35.252  -3.454 -10.998  0.00  0.00    -0.345 N 
HETATM   15  H           1     -35.295  -3.762 -10.035  0.00  0.00     0.163 HD
BRANCH  14  16
HETATM   16  C           1     -35.676  -2.113 -11.350  0.00  0.00     0.185 C 
BRANCH  16  17
HETATM   17  C           1     -34.470  -1.209 -11.428  0.00  0.00     0.196 C 
HETATM   18  O           1     -33.470  -1.438 -10.714  0.00  0.00    -0.646 OA
HETATM   19  O           1     -34.471  -0.231 -12.207  0.00  0.00    -0.646 OA
ENDBRANCH  16  17
BRANCH  16  20
HETATM   20  C           1     -36.635  -1.590 -10.288  0.00  0.00     0.039 C 
BRANCH  20  21
HETATM   21 Se           1     -37.759  -0.196 -11.058  0.00  0.00     0.000 Se
HETATM   22  H           1     -38.753  -1.135 -11.601  0.00  0.00     0.000 HD
ENDBRANCH  20  21
ENDBRANCH  16  20
ENDBRANCH  14  16
ENDBRANCH   1  12
TORSDOF 8
ENDMDL
MODEL 9
REMARK VINA RESULT:      -4.8     13.887     16.358
REMARK  8 active torsions:
REMARK  status: ('A' for Active; 'I' for Inactive)
REMARK    1  A    between atoms: N_4  and  C_9 
REMARK       I    between atoms: N_6  and  C_7 
REMARK    2  A    between atoms: C_7  and  C_8 
REMARK    3  A    between atoms: C_8  and  C_9 
REMARK    4  A    between atoms: C_9  and  C_12 
REMARK    5  A    between atoms: N_11  and  C_19 
REMARK       I    between atoms: N_11  and  C_12 
REMARK    6  A    between atoms: C_18  and  C_19 
REMARK    7  A    between atoms: C_19  and  C_20 
REMARK    8  A    between atoms: C_20  and  Se_21 
ROOT
HETATM    1  C           1     -21.153  -4.824  -6.392  0.00  0.00     0.283 C 
ENDROOT
BRANCH   1   2
HETATM    2  N           1     -19.667  -4.772  -6.200  0.00  0.00    -0.066 N 
HETATM    3  H           1     -19.230  -5.619  -6.629  0.00  0.00     0.275 HD
HETATM    4  H           1     -19.286  -3.914  -6.659  0.00  0.00     0.275 HD
HETATM    5  H           1     -19.448  -4.749  -5.179  0.00  0.00     0.275 HD
ENDBRANCH   1   2
BRANCH   1   6
HETATM    6  C           1     -21.465  -5.219  -7.829  0.00  0.00     0.145 C 
BRANCH   6   7
HETATM    7  C           1     -22.473  -4.255  -8.409  0.00  0.00     0.217 C 
HETATM    8  O           1     -22.186  -3.593  -9.378  0.00  0.00    -0.274 OA
HETATM    9  N           1     -23.711  -4.133  -7.838  0.00  0.00    -0.370 N 
HETATM   10  H           1     -24.386  -3.487  -8.227  0.00  0.00     0.159 HD
HETATM   11  H           1     -23.950  -4.688  -7.027  0.00  0.00     0.159 HD
ENDBRANCH   6   7
ENDBRANCH   1   6
BRANCH   1  12
HETATM   12  C           1     -21.746  -5.842  -5.449  0.00  0.00     0.249 C 
HETATM   13  O           1     -22.940  -6.028  -5.434  0.00  0.00    -0.271 OA
HETATM   14  N           1     -20.933  -6.556  -4.612  0.00  0.00    -0.345 N 
HETATM   15  H           1     -19.933  -6.401  -4.625  0.00  0.00     0.163 HD
BRANCH  14  16
HETATM   16  C           1     -21.502  -7.535  -3.706  0.00  0.00     0.185 C 
BRANCH  16  17
HETATM   17  C           1     -21.619  -6.934  -2.327  0.00  0.00     0.196 C 
HETATM   18  O           1     -20.993  -7.438  -1.370  0.00  0.00    -0.646 OA
HETATM   19  O           1     -22.343  -5.931  -2.142  0.00  0.00    -0.646 OA
ENDBRANCH  16  17
BRANCH  16  20
HETATM   20  C           1     -20.600  -8.761  -3.652  0.00  0.00     0.039 C 
BRANCH  20  21
HETATM   21 Se           1     -20.967  -9.906  -5.186  0.00  0.00     0.000 Se
HETATM   22  H           1     -19.574 -10.361  -5.327  0.00  0.00     0.000 HD
ENDBRANCH  20  21
ENDBRANCH  16  20
ENDBRANCH  14  16
ENDBRANCH   1  12
TORSDOF 8
ENDMDL
