MODEL 1
REMARK VINA RESULT:      -6.9      0.000      0.000
REMARK  11 active torsions:
REMARK  status: ('A' for Active; 'I' for Inactive)
REMARK    1  A    between atoms: C_2  and  C_17 
REMARK    2  A    between atoms: C_2  and  C_14 
REMARK    3  A    between atoms: C_7  and  C_18 
REMARK    4  A    between atoms: C_7  and  C_17 
REMARK    5  A    between atoms: N_8  and  C_30 
REMARK       I    between atoms: N_8  and  C_19 
REMARK    6  A    between atoms: N_12  and  C_14 
REMARK    7  A    between atoms: N_13  and  C_18 
REMARK    8  A    between atoms: C_16  and  C_30 
REMARK    9  A    between atoms: C_18  and  C_19 
REMARK   10  A    between atoms: C_26  and  C_27 
REMARK   11  A    between atoms: C_27  and  C_30 
ROOT
HETATM    1  H           1     -21.158  -5.712  -2.355  0.00  0.00     0.163 HD
HETATM    2  N           1     -21.364  -6.498  -2.958  0.00  0.00    -0.344 N 
HETATM    3  O           1     -22.760  -6.100  -4.654  0.00  0.00    -0.271 OA
HETATM    4  C           1     -21.627  -6.292  -4.286  0.00  0.00     0.249 C 
ENDROOT
BRANCH   2   5
HETATM    5  C           1     -21.381  -7.843  -2.416  0.00  0.00     0.190 C 
BRANCH   5   6
HETATM    6  C           1     -22.168  -7.856  -1.129  0.00  0.00     0.197 C 
HETATM    7  O           1     -22.784  -6.833  -0.763  0.00  0.00    -0.646 OA
HETATM    8  O           1     -22.204  -8.892  -0.429  0.00  0.00    -0.646 OA
ENDBRANCH   5   6
BRANCH   5   9
HETATM    9  C           1     -19.953  -8.297  -2.143  0.00  0.00     0.077 C 
BRANCH   9  10
HETATM   10  C           1     -19.503  -9.217  -3.237  0.00  0.00    -0.021 A 
HETATM   11  C           1     -18.167  -9.636  -3.482  0.00  0.00     0.005 A 
HETATM   12  C           1     -18.199 -10.484  -4.591  0.00  0.00     0.132 A 
HETATM   13  C           1     -16.928  -9.376  -2.864  0.00  0.00     0.014 A 
HETATM   14  N           1     -19.513 -10.568  -4.996  0.00  0.00    -0.077 N 
HETATM   15  C           1     -17.049 -11.085  -5.115  0.00  0.00     0.037 A 
HETATM   16  C           1     -20.310  -9.805  -4.184  0.00  0.00     0.195 A 
HETATM   17  H           1     -19.853 -11.135  -5.811  0.00  0.00     0.271 HD
HETATM   18  C           1     -15.832 -10.812  -4.485  0.00  0.00     0.002 A 
HETATM   19  C           1     -15.769  -9.970  -3.376  0.00  0.00     0.001 A 
ENDBRANCH   9  10
ENDBRANCH   5   9
ENDBRANCH   2   5
BRANCH   4  20
HETATM   20  C           1     -20.499  -6.302  -5.288  0.00  0.00     0.274 C 
BRANCH  20  21
HETATM   21  C           1     -20.144  -4.870  -5.668  0.00  0.00     0.043 C 
BRANCH  21  22
HETATM   22  C           1     -20.385  -4.663  -7.158  0.00  0.00     0.006 C 
BRANCH  22  23
HETATM   23  C           1     -21.399  -3.546  -7.358  0.00  0.00     0.420 C 
BRANCH  23  24
HETATM   24  C           1     -22.662  -4.113  -7.992  0.00  0.00     0.231 C 
BRANCH  24  25
HETATM   25  N           1     -23.622  -4.526  -6.916  0.00  0.00    -0.079 N 
HETATM   26  H           1     -24.060  -5.439  -7.172  0.00  0.00     0.274 HD
HETATM   27  H           1     -23.110  -4.627  -6.011  0.00  0.00     0.274 HD
HETATM   28  H           1     -24.365  -3.798  -6.816  0.00  0.00     0.274 HD
ENDBRANCH  24  25
ENDBRANCH  23  24
ENDBRANCH  22  23
ENDBRANCH  21  22
ENDBRANCH  20  21
BRANCH  20  29
HETATM   29  N           1     -20.928  -7.051  -6.515  0.00  0.00    -0.067 N 
HETATM   30  H           1     -20.276  -7.849  -6.684  0.00  0.00     0.275 HD
HETATM   31  H           1     -21.898  -7.417  -6.377  0.00  0.00     0.275 HD
HETATM   32  H           1     -20.912  -6.408  -7.339  0.00  0.00     0.275 HD
ENDBRANCH  20  29
ENDBRANCH   4  20
TORSDOF 11
ENDMDL
MODEL 2
REMARK VINA RESULT:      -6.8      2.794      4.498
REMARK  11 active torsions:
REMARK  status: ('A' for Active; 'I' for Inactive)
REMARK    1  A    between atoms: C_2  and  C_17 
REMARK    2  A    between atoms: C_2  and  C_14 
REMARK    3  A    between atoms: C_7  and  C_18 
REMARK    4  A    between atoms: C_7  and  C_17 
REMARK    5  A    between atoms: N_8  and  C_30 
REMARK       I    between atoms: N_8  and  C_19 
REMARK    6  A    between atoms: N_12  and  C_14 
REMARK    7  A    between atoms: N_13  and  C_18 
REMARK    8  A    between atoms: C_16  and  C_30 
REMARK    9  A    between atoms: C_18  and  C_19 
REMARK   10  A    between atoms: C_26  and  C_27 
REMARK   11  A    between atoms: C_27  and  C_30 
ROOT
HETATM    1  H           1     -19.511  -7.326  -6.996  0.00  0.00     0.163 HD
HETATM    2  N           1     -20.223  -6.768  -6.544  0.00  0.00    -0.344 N 
HETATM    3  O           1     -19.761  -4.600  -6.282  0.00  0.00    -0.271 OA
HETATM    4  C           1     -20.377  -5.450  -6.879  0.00  0.00     0.249 C 
ENDROOT
BRANCH   2   5
HETATM    5  C           1     -21.083  -7.366  -5.540  0.00  0.00     0.190 C 
BRANCH   5   6
HETATM    6  C           1     -21.854  -6.281  -4.829  0.00  0.00     0.197 C 
HETATM    7  O           1     -21.325  -5.653  -3.887  0.00  0.00    -0.646 OA
HETATM    8  O           1     -23.022  -6.010  -5.183  0.00  0.00    -0.646 OA
ENDBRANCH   5   6
BRANCH   5   9
HETATM    9  C           1     -20.231  -8.128  -4.532  0.00  0.00     0.077 C 
BRANCH   9  10
HETATM   10  C           1     -21.106  -9.042  -3.730  0.00  0.00    -0.021 A 
HETATM   11  C           1     -21.455  -8.881  -2.361  0.00  0.00     0.005 A 
HETATM   12  C           1     -22.281  -9.952  -2.019  0.00  0.00     0.132 A 
HETATM   13  C           1     -21.148  -7.920  -1.378  0.00  0.00     0.014 A 
HETATM   14  N           1     -22.420 -10.731  -3.146  0.00  0.00    -0.077 N 
HETATM   15  C           1     -22.815 -10.114  -0.735  0.00  0.00     0.037 A 
HETATM   16  C           1     -21.713 -10.190  -4.187  0.00  0.00     0.195 A 
HETATM   17  H           1     -22.986 -11.613  -3.198  0.00  0.00     0.271 HD
HETATM   18  C           1     -22.496  -9.148   0.224  0.00  0.00     0.002 A 
HETATM   19  C           1     -21.674  -8.066  -0.090  0.00  0.00     0.001 A 
ENDBRANCH   9  10
ENDBRANCH   5   9
ENDBRANCH   2   5
BRANCH   4  20
HETATM   20  C           1     -21.315  -5.059  -7.995  0.00  0.00     0.274 C 
BRANCH  20  21
HETATM   21  C           1     -20.513  -4.477  -9.152  0.00  0.00     0.043 C 
BRANCH  21  22
HETATM   22  C           1     -21.378  -4.443 -10.405  0.00  0.00     0.006 C 
BRANCH  22  23
HETATM   23  C           1     -21.055  -3.193 -11.211  0.00  0.00     0.420 C 
BRANCH  23  24
HETATM   24  C           1     -22.273  -2.787 -12.030  0.00  0.00     0.231 C 
BRANCH  24  25
HETATM   25  N           1     -22.179  -3.390 -13.400  0.00  0.00    -0.079 N 
HETATM   26  H           1     -23.103  -3.803 -13.662  0.00  0.00     0.274 HD
HETATM   27  H           1     -21.921  -2.649 -14.091  0.00  0.00     0.274 HD
HETATM   28  H           1     -21.449  -4.137 -13.402  0.00  0.00     0.274 HD
ENDBRANCH  24  25
ENDBRANCH  23  24
ENDBRANCH  22  23
ENDBRANCH  21  22
ENDBRANCH  20  21
BRANCH  20  29
HETATM   29  N           1     -22.285  -4.031  -7.494  0.00  0.00    -0.067 N 
HETATM   30  H           1     -23.083  -3.946  -8.165  0.00  0.00     0.275 HD
HETATM   31  H           1     -22.648  -4.322  -6.558  0.00  0.00     0.275 HD
HETATM   32  H           1     -21.802  -3.108  -7.410  0.00  0.00     0.275 HD
ENDBRANCH  20  29
ENDBRANCH   4  20
TORSDOF 11
ENDMDL
MODEL 3
REMARK VINA RESULT:      -6.8      3.148      7.198
REMARK  11 active torsions:
REMARK  status: ('A' for Active; 'I' for Inactive)
REMARK    1  A    between atoms: C_2  and  C_17 
REMARK    2  A    between atoms: C_2  and  C_14 
REMARK    3  A    between atoms: C_7  and  C_18 
REMARK    4  A    between atoms: C_7  and  C_17 
REMARK    5  A    between atoms: N_8  and  C_30 
REMARK       I    between atoms: N_8  and  C_19 
REMARK    6  A    between atoms: N_12  and  C_14 
REMARK    7  A    between atoms: N_13  and  C_18 
REMARK    8  A    between atoms: C_16  and  C_30 
REMARK    9  A    between atoms: C_18  and  C_19 
REMARK   10  A    between atoms: C_26  and  C_27 
REMARK   11  A    between atoms: C_27  and  C_30 
ROOT
HETATM    1  H           1     -23.460  -6.023  -4.177  0.00  0.00     0.163 HD
HETATM    2  N           1     -22.494  -6.322  -4.177  0.00  0.00    -0.344 N 
HETATM    3  O           1     -21.143  -5.293  -2.728  0.00  0.00    -0.271 OA
HETATM    4  C           1     -21.766  -6.286  -3.018  0.00  0.00     0.249 C 
ENDROOT
BRANCH   2   5
HETATM    5  C           1     -21.880  -6.790  -5.404  0.00  0.00     0.190 C 
BRANCH   5   6
HETATM    6  C           1     -20.966  -7.950  -5.097  0.00  0.00     0.197 C 
HETATM    7  O           1     -19.728  -7.778  -5.063  0.00  0.00    -0.646 OA
HETATM    8  O           1     -21.446  -9.084  -4.876  0.00  0.00    -0.646 OA
ENDBRANCH   5   6
BRANCH   5   9
HETATM    9  C           1     -21.074  -5.660  -6.032  0.00  0.00     0.077 C 
BRANCH   9  10
HETATM   10  C           1     -21.888  -5.000  -7.102  0.00  0.00    -0.021 A 
HETATM   11  C           1     -21.447  -4.686  -8.416  0.00  0.00     0.005 A 
HETATM   12  C           1     -22.518  -4.083  -9.076  0.00  0.00     0.132 A 
HETATM   13  C           1     -20.234  -4.859  -9.111  0.00  0.00     0.014 A 
HETATM   14  N           1     -23.567  -4.036  -8.185  0.00  0.00    -0.077 N 
HETATM   15  C           1     -22.437  -3.640 -10.402  0.00  0.00     0.037 A 
HETATM   16  C           1     -23.196  -4.588  -6.987  0.00  0.00     0.195 A 
HETATM   17  H           1     -24.514  -3.634  -8.394  0.00  0.00     0.271 HD
HETATM   18  C           1     -21.223  -3.823 -11.070  0.00  0.00     0.002 A 
HETATM   19  C           1     -20.136  -4.423 -10.437  0.00  0.00     0.001 A 
ENDBRANCH   9  10
ENDBRANCH   5   9
ENDBRANCH   2   5
BRANCH   4  20
HETATM   20  C           1     -21.744  -7.485  -2.103  0.00  0.00     0.274 C 
BRANCH  20  21
HETATM   21  C           1     -22.348  -7.108  -0.756  0.00  0.00     0.043 C 
BRANCH  21  22
HETATM   22  C           1     -22.091  -8.224   0.248  0.00  0.00     0.006 C 
BRANCH  22  23
HETATM   23  C           1     -23.020  -9.394  -0.045  0.00  0.00     0.420 C 
BRANCH  23  24
HETATM   24  C           1     -22.232 -10.695   0.009  0.00  0.00     0.231 C 
BRANCH  24  25
HETATM   25  N           1     -20.913 -10.455   0.682  0.00  0.00    -0.079 N 
HETATM   26  H           1     -20.174 -10.308  -0.042  0.00  0.00     0.274 HD
HETATM   27  H           1     -20.979  -9.607   1.289  0.00  0.00     0.274 HD
HETATM   28  H           1     -20.666 -11.284   1.269  0.00  0.00     0.274 HD
ENDBRANCH  24  25
ENDBRANCH  23  24
ENDBRANCH  22  23
ENDBRANCH  21  22
ENDBRANCH  20  21
BRANCH  20  29
HETATM   29  N           1     -20.327  -7.936  -1.904  0.00  0.00    -0.067 N 
HETATM   30  H           1     -20.318  -8.850  -1.398  0.00  0.00     0.275 HD
HETATM   31  H           1     -19.865  -8.050  -2.835  0.00  0.00     0.275 HD
HETATM   32  H           1     -19.810  -7.222  -1.343  0.00  0.00     0.275 HD
ENDBRANCH  20  29
ENDBRANCH   4  20
TORSDOF 11
ENDMDL
MODEL 4
REMARK VINA RESULT:      -6.7      2.677      4.760
REMARK  11 active torsions:
REMARK  status: ('A' for Active; 'I' for Inactive)
REMARK    1  A    between atoms: C_2  and  C_17 
REMARK    2  A    between atoms: C_2  and  C_14 
REMARK    3  A    between atoms: C_7  and  C_18 
REMARK    4  A    between atoms: C_7  and  C_17 
REMARK    5  A    between atoms: N_8  and  C_30 
REMARK       I    between atoms: N_8  and  C_19 
REMARK    6  A    between atoms: N_12  and  C_14 
REMARK    7  A    between atoms: N_13  and  C_18 
REMARK    8  A    between atoms: C_16  and  C_30 
REMARK    9  A    between atoms: C_18  and  C_19 
REMARK   10  A    between atoms: C_26  and  C_27 
REMARK   11  A    between atoms: C_27  and  C_30 
ROOT
HETATM    1  H           1     -19.320  -7.701  -7.270  0.00  0.00     0.163 HD
HETATM    2  N           1     -19.695  -7.119  -6.533  0.00  0.00    -0.344 N 
HETATM    3  O           1     -19.310  -4.928  -6.716  0.00  0.00    -0.271 OA
HETATM    4  C           1     -20.096  -5.839  -6.809  0.00  0.00     0.249 C 
ENDROOT
BRANCH   2   5
HETATM    5  C           1     -19.808  -7.639  -5.184  0.00  0.00     0.190 C 
BRANCH   5   6
HETATM    6  C           1     -18.988  -8.899  -5.062  0.00  0.00     0.197 C 
HETATM    7  O           1     -18.619  -9.297  -3.936  0.00  0.00    -0.646 OA
HETATM    8  O           1     -18.676  -9.545  -6.086  0.00  0.00    -0.646 OA
ENDBRANCH   5   6
BRANCH   5   9
HETATM    9  C           1     -21.268  -7.952  -4.882  0.00  0.00     0.077 C 
BRANCH   9  10
HETATM   10  C           1     -21.638  -7.375  -3.550  0.00  0.00    -0.021 A 
HETATM   11  C           1     -21.761  -8.096  -2.331  0.00  0.00     0.005 A 
HETATM   12  C           1     -22.119  -7.176  -1.344  0.00  0.00     0.132 A 
HETATM   13  C           1     -21.599  -9.447  -1.969  0.00  0.00     0.014 A 
HETATM   14  N           1     -22.209  -5.945  -1.955  0.00  0.00    -0.077 N 
HETATM   15  C           1     -22.327  -7.542  -0.009  0.00  0.00     0.037 A 
HETATM   16  C           1     -21.920  -6.054  -3.289  0.00  0.00     0.195 A 
HETATM   17  H           1     -22.464  -5.051  -1.466  0.00  0.00     0.271 HD
HETATM   18  C           1     -22.161  -8.889   0.324  0.00  0.00     0.002 A 
HETATM   19  C           1     -21.803  -9.830  -0.639  0.00  0.00     0.001 A 
ENDBRANCH   9  10
ENDBRANCH   5   9
ENDBRANCH   2   5
BRANCH   4  20
HETATM   20  C           1     -21.520  -5.569  -7.231  0.00  0.00     0.274 C 
BRANCH  20  21
HETATM   21  C           1     -21.538  -5.079  -8.673  0.00  0.00     0.043 C 
BRANCH  21  22
HETATM   22  C           1     -22.312  -3.770  -8.756  0.00  0.00     0.006 C 
BRANCH  22  23
HETATM   23  C           1     -22.898  -3.614 -10.153  0.00  0.00     0.420 C 
BRANCH  23  24
HETATM   24  C           1     -24.188  -4.416 -10.254  0.00  0.00     0.231 C 
BRANCH  24  25
HETATM   25  N           1     -25.314  -3.634  -9.646  0.00  0.00    -0.079 N 
HETATM   26  H           1     -25.366  -3.837  -8.622  0.00  0.00     0.274 HD
HETATM   27  H           1     -25.148  -2.613  -9.790  0.00  0.00     0.274 HD
HETATM   28  H           1     -26.214  -3.907 -10.102  0.00  0.00     0.274 HD
ENDBRANCH  24  25
ENDBRANCH  23  24
ENDBRANCH  22  23
ENDBRANCH  21  22
ENDBRANCH  20  21
BRANCH  20  29
HETATM   29  N           1     -22.113  -4.518  -6.340  0.00  0.00    -0.067 N 
HETATM   30  H           1     -21.371  -3.839  -6.057  0.00  0.00     0.275 HD
HETATM   31  H           1     -22.869  -4.012  -6.855  0.00  0.00     0.275 HD
HETATM   32  H           1     -22.515  -4.970  -5.487  0.00  0.00     0.275 HD
ENDBRANCH  20  29
ENDBRANCH   4  20
TORSDOF 11
ENDMDL
MODEL 5
REMARK VINA RESULT:      -6.7      3.566      8.345
REMARK  11 active torsions:
REMARK  status: ('A' for Active; 'I' for Inactive)
REMARK    1  A    between atoms: C_2  and  C_17 
REMARK    2  A    between atoms: C_2  and  C_14 
REMARK    3  A    between atoms: C_7  and  C_18 
REMARK    4  A    between atoms: C_7  and  C_17 
REMARK    5  A    between atoms: N_8  and  C_30 
REMARK       I    between atoms: N_8  and  C_19 
REMARK    6  A    between atoms: N_12  and  C_14 
REMARK    7  A    between atoms: N_13  and  C_18 
REMARK    8  A    between atoms: C_16  and  C_30 
REMARK    9  A    between atoms: C_18  and  C_19 
REMARK   10  A    between atoms: C_26  and  C_27 
REMARK   11  A    between atoms: C_27  and  C_30 
ROOT
HETATM    1  H           1     -22.614  -4.225  -5.785  0.00  0.00     0.163 HD
HETATM    2  N           1     -21.883  -4.871  -6.051  0.00  0.00    -0.344 N 
HETATM    3  O           1     -20.300  -5.251  -4.523  0.00  0.00    -0.271 OA
HETATM    4  C           1     -21.281  -5.652  -5.100  0.00  0.00     0.249 C 
ENDROOT
BRANCH   2   5
HETATM    5  C           1     -21.473  -4.973  -7.437  0.00  0.00     0.190 C 
BRANCH   5   6
HETATM    6  C           1     -20.014  -5.350  -7.503  0.00  0.00     0.197 C 
HETATM    7  O           1     -19.679  -6.554  -7.529  0.00  0.00    -0.646 OA
HETATM    8  O           1     -19.138  -4.457  -7.532  0.00  0.00    -0.646 OA
ENDBRANCH   5   6
BRANCH   5   9
HETATM    9  C           1     -21.683  -3.631  -8.128  0.00  0.00     0.077 C 
BRANCH   9  10
HETATM   10  C           1     -22.860  -3.722  -9.050  0.00  0.00    -0.021 A 
HETATM   11  C           1     -22.848  -3.478 -10.450  0.00  0.00     0.005 A 
HETATM   12  C           1     -24.150  -3.675 -10.913  0.00  0.00     0.132 A 
HETATM   13  C           1     -21.850  -3.108 -11.373  0.00  0.00     0.014 A 
HETATM   14  N           1     -24.917  -4.025  -9.824  0.00  0.00    -0.077 N 
HETATM   15  C           1     -24.506  -3.518 -12.257  0.00  0.00     0.037 A 
HETATM   16  C           1     -24.146  -4.057  -8.692  0.00  0.00     0.195 A 
HETATM   17  H           1     -25.944  -4.237  -9.857  0.00  0.00     0.271 HD
HETATM   18  C           1     -23.499  -3.150 -13.154  0.00  0.00     0.002 A 
HETATM   19  C           1     -22.189  -2.947 -12.721  0.00  0.00     0.001 A 
ENDBRANCH   9  10
ENDBRANCH   5   9
ENDBRANCH   2   5
BRANCH   4  20
HETATM   20  C           1     -21.846  -7.013  -4.773  0.00  0.00     0.274 C 
BRANCH  20  21
HETATM   21  C           1     -21.543  -7.352  -3.319  0.00  0.00     0.043 C 
BRANCH  21  22
HETATM   22  C           1     -22.203  -6.325  -2.408  0.00  0.00     0.006 C 
BRANCH  22  23
HETATM   23  C           1     -22.297  -6.886  -0.996  0.00  0.00     0.420 C 
BRANCH  23  24
HETATM   24  C           1     -21.621  -8.250  -0.944  0.00  0.00     0.231 C 
BRANCH  24  25
HETATM   25  N           1     -22.620  -9.289  -0.528  0.00  0.00    -0.079 N 
HETATM   26  H           1     -22.750  -9.251   0.508  0.00  0.00     0.274 HD
HETATM   27  H           1     -23.533  -9.105  -1.001  0.00  0.00     0.274 HD
HETATM   28  H           1     -22.271 -10.235  -0.802  0.00  0.00     0.274 HD
ENDBRANCH  24  25
ENDBRANCH  23  24
ENDBRANCH  22  23
ENDBRANCH  21  22
ENDBRANCH  20  21
BRANCH  20  29
HETATM   29  N           1     -21.218  -8.042  -5.666  0.00  0.00    -0.067 N 
HETATM   30  H           1     -20.552  -7.576  -6.323  0.00  0.00     0.275 HD
HETATM   31  H           1     -20.701  -8.739  -5.083  0.00  0.00     0.275 HD
HETATM   32  H           1     -21.963  -8.529  -6.213  0.00  0.00     0.275 HD
ENDBRANCH  20  29
ENDBRANCH   4  20
TORSDOF 11
ENDMDL
MODEL 6
REMARK VINA RESULT:      -6.6      2.717      7.878
REMARK  11 active torsions:
REMARK  status: ('A' for Active; 'I' for Inactive)
REMARK    1  A    between atoms: C_2  and  C_17 
REMARK    2  A    between atoms: C_2  and  C_14 
REMARK    3  A    between atoms: C_7  and  C_18 
REMARK    4  A    between atoms: C_7  and  C_17 
REMARK    5  A    between atoms: N_8  and  C_30 
REMARK       I    between atoms: N_8  and  C_19 
REMARK    6  A    between atoms: N_12  and  C_14 
REMARK    7  A    between atoms: N_13  and  C_18 
REMARK    8  A    between atoms: C_16  and  C_30 
REMARK    9  A    between atoms: C_18  and  C_19 
REMARK   10  A    between atoms: C_26  and  C_27 
REMARK   11  A    between atoms: C_27  and  C_30 
ROOT
HETATM    1  H           1     -23.304  -5.763  -5.865  0.00  0.00     0.163 HD
HETATM    2  N           1     -22.306  -5.920  -5.818  0.00  0.00    -0.344 N 
HETATM    3  O           1     -21.374  -5.737  -3.797  0.00  0.00    -0.271 OA
HETATM    4  C           1     -21.751  -6.459  -4.688  0.00  0.00     0.249 C 
ENDROOT
BRANCH   2   5
HETATM    5  C           1     -21.463  -5.575  -6.945  0.00  0.00     0.190 C 
BRANCH   5   6
HETATM    6  C           1     -20.016  -5.617  -6.521  0.00  0.00     0.197 C 
HETATM    7  O           1     -19.333  -6.643  -6.727  0.00  0.00    -0.646 OA
HETATM    8  O           1     -19.498  -4.624  -5.964  0.00  0.00    -0.646 OA
ENDBRANCH   5   6
BRANCH   5   9
HETATM    9  C           1     -21.811  -4.173  -7.429  0.00  0.00     0.077 C 
BRANCH   9  10
HETATM   10  C           1     -21.514  -4.061  -8.893  0.00  0.00    -0.021 A 
HETATM   11  C           1     -22.455  -3.773  -9.919  0.00  0.00     0.005 A 
HETATM   12  C           1     -21.756  -3.763 -11.127  0.00  0.00     0.132 A 
HETATM   13  C           1     -23.839  -3.516  -9.936  0.00  0.00     0.014 A 
HETATM   14  N           1     -20.439  -4.039 -10.833  0.00  0.00    -0.077 N 
HETATM   15  C           1     -22.375  -3.511 -12.356  0.00  0.00     0.037 A 
HETATM   16  C           1     -20.281  -4.221  -9.484  0.00  0.00     0.195 A 
HETATM   17  H           1     -19.667  -4.100 -11.542  0.00  0.00     0.271 HD
HETATM   18  C           1     -23.750  -3.260 -12.347  0.00  0.00     0.002 A 
HETATM   19  C           1     -24.475  -3.262 -11.156  0.00  0.00     0.001 A 
ENDBRANCH   9  10
ENDBRANCH   5   9
ENDBRANCH   2   5
BRANCH   4  20
HETATM   20  C           1     -21.612  -7.957  -4.556  0.00  0.00     0.274 C 
BRANCH  20  21
HETATM   21  C           1     -20.407  -8.280  -3.682  0.00  0.00     0.043 C 
BRANCH  21  22
HETATM   22  C           1     -20.862  -9.057  -2.455  0.00  0.00     0.006 C 
BRANCH  22  23
HETATM   23  C           1     -20.601  -8.230  -1.204  0.00  0.00     0.420 C 
BRANCH  23  24
HETATM   24  C           1     -21.928  -7.838  -0.567  0.00  0.00     0.231 C 
BRANCH  24  25
HETATM   25  N           1     -22.416  -6.556  -1.174  0.00  0.00    -0.079 N 
HETATM   26  H           1     -23.305  -6.734  -1.694  0.00  0.00     0.274 HD
HETATM   27  H           1     -22.590  -5.856  -0.418  0.00  0.00     0.274 HD
HETATM   28  H           1     -21.694  -6.186  -1.832  0.00  0.00     0.274 HD
ENDBRANCH  24  25
ENDBRANCH  23  24
ENDBRANCH  22  23
ENDBRANCH  21  22
ENDBRANCH  20  21
BRANCH  20  29
HETATM   29  N           1     -21.418  -8.561  -5.915  0.00  0.00    -0.067 N 
HETATM   30  H           1     -22.021  -9.409  -6.010  0.00  0.00     0.275 HD
HETATM   31  H           1     -21.682  -7.863  -6.647  0.00  0.00     0.275 HD
HETATM   32  H           1     -20.416  -8.832  -6.037  0.00  0.00     0.275 HD
ENDBRANCH  20  29
ENDBRANCH   4  20
TORSDOF 11
ENDMDL
MODEL 7
REMARK VINA RESULT:      -6.4      2.756      4.681
REMARK  11 active torsions:
REMARK  status: ('A' for Active; 'I' for Inactive)
REMARK    1  A    between atoms: C_2  and  C_17 
REMARK    2  A    between atoms: C_2  and  C_14 
REMARK    3  A    between atoms: C_7  and  C_18 
REMARK    4  A    between atoms: C_7  and  C_17 
REMARK    5  A    between atoms: N_8  and  C_30 
REMARK       I    between atoms: N_8  and  C_19 
REMARK    6  A    between atoms: N_12  and  C_14 
REMARK    7  A    between atoms: N_13  and  C_18 
REMARK    8  A    between atoms: C_16  and  C_30 
REMARK    9  A    between atoms: C_18  and  C_19 
REMARK   10  A    between atoms: C_26  and  C_27 
REMARK   11  A    between atoms: C_27  and  C_30 
ROOT
HETATM    1  H           1     -19.207  -7.375  -7.228  0.00  0.00     0.163 HD
HETATM    2  N           1     -19.688  -7.027  -6.410  0.00  0.00    -0.344 N 
HETATM    3  O           1     -19.533  -4.832  -6.032  0.00  0.00    -0.271 OA
HETATM    4  C           1     -20.207  -5.760  -6.408  0.00  0.00     0.249 C 
ENDROOT
BRANCH   2   5
HETATM    5  C           1     -19.830  -7.870  -5.239  0.00  0.00     0.190 C 
BRANCH   5   6
HETATM    6  C           1     -18.742  -8.916  -5.238  0.00  0.00     0.197 C 
HETATM    7  O           1     -18.376  -9.437  -6.313  0.00  0.00    -0.646 OA
HETATM    8  O           1     -18.208  -9.261  -4.161  0.00  0.00    -0.646 OA
ENDBRANCH   5   6
BRANCH   5   9
HETATM    9  C           1     -21.192  -8.553  -5.267  0.00  0.00     0.077 C 
BRANCH   9  10
HETATM   10  C           1     -21.509  -9.093  -3.906  0.00  0.00    -0.021 A 
HETATM   11  C           1     -21.783  -8.322  -2.743  0.00  0.00     0.005 A 
HETATM   12  C           1     -22.024  -9.221  -1.703  0.00  0.00     0.132 A 
HETATM   13  C           1     -21.853  -6.941  -2.475  0.00  0.00     0.014 A 
HETATM   14  N           1     -21.896 -10.488  -2.226  0.00  0.00    -0.077 N 
HETATM   15  C           1     -22.330  -8.806  -0.402  0.00  0.00     0.037 A 
HETATM   16  C           1     -21.584 -10.422  -3.558  0.00  0.00     0.195 A 
HETATM   17  H           1     -22.020 -11.377  -1.681  0.00  0.00     0.271 HD
HETATM   18  C           1     -22.392  -7.430  -0.160  0.00  0.00     0.002 A 
HETATM   19  C           1     -22.157  -6.509  -1.180  0.00  0.00     0.001 A 
ENDBRANCH   9  10
ENDBRANCH   5   9
ENDBRANCH   2   5
BRANCH   4  20
HETATM   20  C           1     -21.622  -5.524  -6.877  0.00  0.00     0.274 C 
BRANCH  20  21
HETATM   21  C           1     -21.685  -4.223  -7.666  0.00  0.00     0.043 C 
BRANCH  21  22
HETATM   22  C           1     -22.780  -4.319  -8.721  0.00  0.00     0.006 C 
BRANCH  22  23
HETATM   23  C           1     -22.287  -3.702 -10.022  0.00  0.00     0.420 C 
BRANCH  23  24
HETATM   24  C           1     -20.864  -4.169 -10.299  0.00  0.00     0.231 C 
BRANCH  24  25
HETATM   25  N           1     -20.347  -3.495 -11.536  0.00  0.00    -0.079 N 
HETATM   26  H           1     -20.179  -4.212 -12.278  0.00  0.00     0.274 HD
HETATM   27  H           1     -21.050  -2.801 -11.876  0.00  0.00     0.274 HD
HETATM   28  H           1     -19.452  -3.004 -11.315  0.00  0.00     0.274 HD
ENDBRANCH  24  25
ENDBRANCH  23  24
ENDBRANCH  22  23
ENDBRANCH  21  22
ENDBRANCH  20  21
BRANCH  20  29
HETATM   29  N           1     -22.533  -5.430  -5.688  0.00  0.00    -0.067 N 
HETATM   30  H           1     -22.370  -6.246  -5.057  0.00  0.00     0.275 HD
HETATM   31  H           1     -22.336  -4.544  -5.169  0.00  0.00     0.275 HD
HETATM   32  H           1     -23.527  -5.432  -6.010  0.00  0.00     0.275 HD
ENDBRANCH  20  29
ENDBRANCH   4  20
TORSDOF 11
ENDMDL
MODEL 8
REMARK VINA RESULT:      -6.3      3.203      5.611
REMARK  11 active torsions:
REMARK  status: ('A' for Active; 'I' for Inactive)
REMARK    1  A    between atoms: C_2  and  C_17 
REMARK    2  A    between atoms: C_2  and  C_14 
REMARK    3  A    between atoms: C_7  and  C_18 
REMARK    4  A    between atoms: C_7  and  C_17 
REMARK    5  A    between atoms: N_8  and  C_30 
REMARK       I    between atoms: N_8  and  C_19 
REMARK    6  A    between atoms: N_12  and  C_14 
REMARK    7  A    between atoms: N_13  and  C_18 
REMARK    8  A    between atoms: C_16  and  C_30 
REMARK    9  A    between atoms: C_18  and  C_19 
REMARK   10  A    between atoms: C_26  and  C_27 
REMARK   11  A    between atoms: C_27  and  C_30 
ROOT
HETATM    1  H           1     -21.266  -6.295  -8.143  0.00  0.00     0.163 HD
HETATM    2  N           1     -21.599  -5.349  -8.013  0.00  0.00    -0.344 N 
HETATM    3  O           1     -21.236  -3.934  -9.702  0.00  0.00    -0.271 OA
HETATM    4  C           1     -22.021  -4.617  -9.090  0.00  0.00     0.249 C 
ENDROOT
BRANCH   2   5
HETATM    5  C           1     -21.629  -4.767  -6.685  0.00  0.00     0.190 C 
BRANCH   5   6
HETATM    6  C           1     -20.241  -4.790  -6.095  0.00  0.00     0.197 C 
HETATM    7  O           1     -19.280  -5.207  -6.775  0.00  0.00    -0.646 OA
HETATM    8  O           1     -20.053  -4.391  -4.925  0.00  0.00    -0.646 OA
ENDBRANCH   5   6
BRANCH   5   9
HETATM    9  C           1     -22.572  -5.572  -5.800  0.00  0.00     0.077 C 
BRANCH   9  10
HETATM   10  C           1     -21.823  -6.711  -5.179  0.00  0.00    -0.021 A 
HETATM   11  C           1     -21.666  -6.951  -3.786  0.00  0.00     0.005 A 
HETATM   12  C           1     -20.903  -8.112  -3.652  0.00  0.00     0.132 A 
HETATM   13  C           1     -22.105  -6.291  -2.622  0.00  0.00     0.014 A 
HETATM   14  N           1     -20.610  -8.551  -4.924  0.00  0.00    -0.077 N 
HETATM   15  C           1     -20.552  -8.646  -2.407  0.00  0.00     0.037 A 
HETATM   16  C           1     -21.162  -7.711  -5.855  0.00  0.00     0.195 A 
HETATM   17  H           1     -20.045  -9.407  -5.147  0.00  0.00     0.271 HD
HETATM   18  C           1     -20.999  -7.972  -1.266  0.00  0.00     0.002 A 
HETATM   19  C           1     -21.764  -6.812  -1.369  0.00  0.00     0.001 A 
ENDBRANCH   9  10
ENDBRANCH   5   9
ENDBRANCH   2   5
BRANCH   4  20
HETATM   20  C           1     -23.469  -4.666  -9.515  0.00  0.00     0.274 C 
BRANCH  20  21
HETATM   21  C           1     -23.555  -4.603 -11.034  0.00  0.00     0.043 C 
BRANCH  21  22
HETATM   22  C           1     -24.096  -3.244 -11.457  0.00  0.00     0.006 C 
BRANCH  22  23
HETATM   23  C           1     -23.057  -2.526 -12.307  0.00  0.00     0.420 C 
BRANCH  23  24
HETATM   24  C           1     -23.545  -2.447 -13.747  0.00  0.00     0.231 C 
BRANCH  24  25
HETATM   25  N           1     -22.493  -2.995 -14.665  0.00  0.00    -0.079 N 
HETATM   26  H           1     -22.942  -3.606 -15.383  0.00  0.00     0.274 HD
HETATM   27  H           1     -21.997  -2.207 -15.138  0.00  0.00     0.274 HD
HETATM   28  H           1     -21.806  -3.555 -14.110  0.00  0.00     0.274 HD
ENDBRANCH  24  25
ENDBRANCH  23  24
ENDBRANCH  22  23
ENDBRANCH  21  22
ENDBRANCH  20  21
BRANCH  20  29
HETATM   29  N           1     -24.202  -3.498  -8.925  0.00  0.00    -0.067 N 
HETATM   30  H           1     -24.100  -2.668  -9.552  0.00  0.00     0.275 HD
HETATM   31  H           1     -25.215  -3.737  -8.827  0.00  0.00     0.275 HD
HETATM   32  H           1     -23.803  -3.275  -7.985  0.00  0.00     0.275 HD
ENDBRANCH  20  29
ENDBRANCH   4  20
TORSDOF 11
ENDMDL
MODEL 9
REMARK VINA RESULT:      -6.2      2.483      4.432
REMARK  11 active torsions:
REMARK  status: ('A' for Active; 'I' for Inactive)
REMARK    1  A    between atoms: C_2  and  C_17 
REMARK    2  A    between atoms: C_2  and  C_14 
REMARK    3  A    between atoms: C_7  and  C_18 
REMARK    4  A    between atoms: C_7  and  C_17 
REMARK    5  A    between atoms: N_8  and  C_30 
REMARK       I    between atoms: N_8  and  C_19 
REMARK    6  A    between atoms: N_12  and  C_14 
REMARK    7  A    between atoms: N_13  and  C_18 
REMARK    8  A    between atoms: C_16  and  C_30 
REMARK    9  A    between atoms: C_18  and  C_19 
REMARK   10  A    between atoms: C_26  and  C_27 
REMARK   11  A    between atoms: C_27  and  C_30 
ROOT
HETATM    1  H           1     -21.479  -8.944  -3.957  0.00  0.00     0.163 HD
HETATM    2  N           1     -20.819  -8.400  -4.496  0.00  0.00    -0.344 N 
HETATM    3  O           1     -21.462  -7.821  -6.553  0.00  0.00    -0.271 OA
HETATM    4  C           1     -21.269  -7.486  -5.410  0.00  0.00     0.249 C 
ENDROOT
BRANCH   2   5
HETATM    5  C           1     -19.394  -8.587  -4.299  0.00  0.00     0.190 C 
BRANCH   5   6
HETATM    6  C           1     -18.891  -9.646  -5.248  0.00  0.00     0.197 C 
HETATM    7  O           1     -19.701 -10.399  -5.831  0.00  0.00    -0.646 OA
HETATM    8  O           1     -17.664  -9.771  -5.453  0.00  0.00    -0.646 OA
ENDBRANCH   5   6
BRANCH   5   9
HETATM    9  C           1     -19.134  -9.026  -2.863  0.00  0.00     0.077 C 
BRANCH   9  10
HETATM   10  C           1     -20.355  -9.700  -2.318  0.00  0.00    -0.021 A 
HETATM   11  C           1     -21.259  -9.153  -1.366  0.00  0.00     0.005 A 
HETATM   12  C           1     -22.248 -10.112  -1.141  0.00  0.00     0.132 A 
HETATM   13  C           1     -21.333  -7.929  -0.675  0.00  0.00     0.014 A 
HETATM   14  N           1     -21.944 -11.199  -1.930  0.00  0.00    -0.077 N 
HETATM   15  C           1     -23.310  -9.908  -0.252  0.00  0.00     0.037 A 
HETATM   16  C           1     -20.801 -10.960  -2.646  0.00  0.00     0.195 A 
HETATM   17  H           1     -22.508 -12.083  -1.976  0.00  0.00     0.271 HD
HETATM   18  C           1     -23.361  -8.685   0.423  0.00  0.00     0.002 A 
HETATM   19  C           1     -22.388  -7.708   0.217  0.00  0.00     0.001 A 
ENDBRANCH   9  10
ENDBRANCH   5   9
ENDBRANCH   2   5
BRANCH   4  20
HETATM   20  C           1     -21.524  -6.060  -4.988  0.00  0.00     0.274 C 
BRANCH  20  21
HETATM   21  C           1     -20.349  -5.187  -5.409  0.00  0.00     0.043 C 
BRANCH  21  22
HETATM   22  C           1     -20.673  -4.499  -6.729  0.00  0.00     0.006 C 
BRANCH  22  23
HETATM   23  C           1     -22.183  -4.373  -6.879  0.00  0.00     0.420 C 
BRANCH  23  24
HETATM   24  C           1     -22.521  -3.985  -8.312  0.00  0.00     0.231 C 
BRANCH  24  25
HETATM   25  N           1     -24.007  -3.848  -8.458  0.00  0.00    -0.079 N 
HETATM   26  H           1     -24.389  -4.693  -8.940  0.00  0.00     0.274 HD
HETATM   27  H           1     -24.444  -3.760  -7.513  0.00  0.00     0.274 HD
HETATM   28  H           1     -24.224  -2.996  -9.022  0.00  0.00     0.274 HD
ENDBRANCH  24  25
ENDBRANCH  23  24
ENDBRANCH  22  23
ENDBRANCH  21  22
ENDBRANCH  20  21
BRANCH  20  29
HETATM   29  N           1     -21.679  -6.000  -3.497  0.00  0.00    -0.067 N 
HETATM   30  H           1     -22.672  -6.203  -3.240  0.00  0.00     0.275 HD
HETATM   31  H           1     -21.054  -6.711  -3.054  0.00  0.00     0.275 HD
HETATM   32  H           1     -21.420  -5.047  -3.157  0.00  0.00     0.275 HD
ENDBRANCH  20  29
ENDBRANCH   4  20
TORSDOF 11
ENDMDL
