MODEL 1
REMARK VINA RESULT:      -5.4      0.000      0.000
REMARK  6 active torsions:
REMARK  status: ('A' for Active; 'I' for Inactive)
REMARK    1  A    between atoms: O_2  and  C_4 
REMARK    2  A    between atoms: C_3  and  C_9 
REMARK    3  A    between atoms: C_4  and  C_11 
REMARK    4  A    between atoms: N_5  and  C_11 
REMARK    5  A    between atoms: C_9  and  N_12 
REMARK    6  A    between atoms: C_11  and  C_13 
REMARK       I    between atoms: N_12  and  C_13 
ROOT
HETATM    1  H           1     -34.004  -0.409 -14.211  0.00  0.00     0.163 HD
HETATM    2  O           1     -36.612  -1.252 -12.685  0.00  0.00    -0.271 OA
HETATM    3  N           1     -34.995  -0.519 -14.039  0.00  0.00    -0.345 N 
HETATM    4  C           1     -35.429  -1.122 -12.889  0.00  0.00     0.251 C 
ENDROOT
BRANCH   4   5
HETATM    5  C           1     -34.429  -1.623 -11.877  0.00  0.00     0.297 C 
BRANCH   5   6
HETATM    6  C           1     -34.032  -3.053 -12.220  0.00  0.00     0.206 C 
BRANCH   6   7
HETATM    7  O           1     -34.393  -3.334 -13.545  0.00  0.00    -0.398 OA
HETATM    8  H           1     -33.994  -4.158 -13.769  0.00  0.00     0.209 HD
ENDBRANCH   6   7
ENDBRANCH   5   6
BRANCH   5   9
HETATM    9  N           1     -35.043  -1.590 -10.509  0.00  0.00    -0.064 N 
HETATM   10  H           1     -34.296  -1.713  -9.788  0.00  0.00     0.275 HD
HETATM   11  H           1     -35.518  -0.670 -10.363  0.00  0.00     0.275 HD
HETATM   12  H           1     -35.742  -2.362 -10.422  0.00  0.00     0.275 HD
ENDBRANCH   5   9
ENDBRANCH   4   5
BRANCH   3  13
HETATM   13  C           1     -35.957  -0.037 -15.013  0.00  0.00     0.181 C 
HETATM   14  C           1     -35.585   1.379 -15.434  0.00  0.00     0.043 C 
BRANCH  13  15
HETATM   15  C           1     -35.946  -0.942 -16.220  0.00  0.00     0.196 C 
HETATM   16  O           1     -36.727  -0.725 -17.171  0.00  0.00    -0.646 OA
HETATM   17  O           1     -35.155  -1.909 -16.268  0.00  0.00    -0.646 OA
ENDBRANCH  13  15
ENDBRANCH   3  13
TORSDOF 6
ENDMDL
MODEL 2
REMARK VINA RESULT:      -5.3      1.836      1.974
REMARK  6 active torsions:
REMARK  status: ('A' for Active; 'I' for Inactive)
REMARK    1  A    between atoms: O_2  and  C_4 
REMARK    2  A    between atoms: C_3  and  C_9 
REMARK    3  A    between atoms: C_4  and  C_11 
REMARK    4  A    between atoms: N_5  and  C_11 
REMARK    5  A    between atoms: C_9  and  N_12 
REMARK    6  A    between atoms: C_11  and  C_13 
REMARK       I    between atoms: N_12  and  C_13 
ROOT
HETATM    1  H           1     -33.891  -1.759 -14.269  0.00  0.00     0.163 HD
HETATM    2  O           1     -36.045  -1.944 -11.996  0.00  0.00    -0.271 OA
HETATM    3  N           1     -34.702  -1.498 -13.723  0.00  0.00    -0.345 N 
HETATM    4  C           1     -35.077  -2.257 -12.648  0.00  0.00     0.251 C 
ENDROOT
BRANCH   4   5
HETATM    5  C           1     -34.281  -3.484 -12.276  0.00  0.00     0.297 C 
BRANCH   5   6
HETATM    6  C           1     -33.199  -3.103 -11.274  0.00  0.00     0.206 C 
BRANCH   6   7
HETATM    7  O           1     -33.439  -1.807 -10.795  0.00  0.00    -0.398 OA
HETATM    8  H           1     -33.340  -1.222 -11.527  0.00  0.00     0.209 HD
ENDBRANCH   6   7
ENDBRANCH   5   6
BRANCH   5   9
HETATM    9  N           1     -33.642  -4.056 -13.506  0.00  0.00    -0.064 N 
HETATM   10  H           1     -34.300  -3.968 -14.314  0.00  0.00     0.275 HD
HETATM   11  H           1     -32.762  -3.533 -13.717  0.00  0.00     0.275 HD
HETATM   12  H           1     -33.419  -5.065 -13.347  0.00  0.00     0.275 HD
ENDBRANCH   5   9
ENDBRANCH   4   5
BRANCH   3  13
HETATM   13  C           1     -35.466  -0.318 -14.081  0.00  0.00     0.181 C 
HETATM   14  C           1     -34.704   0.929 -13.654  0.00  0.00     0.043 C 
BRANCH  13  15
HETATM   15  C           1     -35.679  -0.292 -15.574  0.00  0.00     0.196 C 
HETATM   16  O           1     -36.448   0.553 -16.082  0.00  0.00    -0.646 OA
HETATM   17  O           1     -35.087  -1.116 -16.305  0.00  0.00    -0.646 OA
ENDBRANCH  13  15
ENDBRANCH   3  13
TORSDOF 6
ENDMDL
MODEL 3
REMARK VINA RESULT:      -5.2     12.407     14.434
REMARK  6 active torsions:
REMARK  status: ('A' for Active; 'I' for Inactive)
REMARK    1  A    between atoms: O_2  and  C_4 
REMARK    2  A    between atoms: C_3  and  C_9 
REMARK    3  A    between atoms: C_4  and  C_11 
REMARK    4  A    between atoms: N_5  and  C_11 
REMARK    5  A    between atoms: C_9  and  N_12 
REMARK    6  A    between atoms: C_11  and  C_13 
REMARK       I    between atoms: N_12  and  C_13 
ROOT
HETATM    1  H           1     -21.259  -2.783 -10.118  0.00  0.00     0.163 HD
HETATM    2  O           1     -23.275  -5.018 -11.000  0.00  0.00    -0.271 OA
HETATM    3  N           1     -21.755  -3.664 -10.082  0.00  0.00    -0.345 N 
HETATM    4  C           1     -22.683  -3.967 -11.043  0.00  0.00     0.251 C 
ENDROOT
BRANCH   4   5
HETATM    5  C           1     -22.964  -2.987 -12.155  0.00  0.00     0.297 C 
BRANCH   5   6
HETATM    6  C           1     -24.449  -3.012 -12.491  0.00  0.00     0.206 C 
BRANCH   6   7
HETATM    7  O           1     -25.196  -3.092 -11.307  0.00  0.00    -0.398 OA
HETATM    8  H           1     -25.375  -4.004 -11.156  0.00  0.00     0.209 HD
ENDBRANCH   6   7
ENDBRANCH   5   6
BRANCH   5   9
HETATM    9  N           1     -22.171  -3.369 -13.370  0.00  0.00    -0.064 N 
HETATM   10  H           1     -22.222  -4.405 -13.507  0.00  0.00     0.275 HD
HETATM   11  H           1     -22.566  -2.888 -14.209  0.00  0.00     0.275 HD
HETATM   12  H           1     -21.174  -3.083 -13.240  0.00  0.00     0.275 HD
ENDBRANCH   5   9
ENDBRANCH   4   5
BRANCH   3  13
HETATM   13  C           1     -21.484  -4.605  -9.013  0.00  0.00     0.181 C 
HETATM   14  C           1     -19.980  -4.805  -8.882  0.00  0.00     0.043 C 
BRANCH  13  15
HETATM   15  C           1     -22.036  -4.065  -7.717  0.00  0.00     0.196 C 
HETATM   16  O           1     -23.183  -4.389  -7.342  0.00  0.00    -0.646 OA
HETATM   17  O           1     -21.344  -3.293  -7.017  0.00  0.00    -0.646 OA
ENDBRANCH  13  15
ENDBRANCH   3  13
TORSDOF 6
ENDMDL
MODEL 4
REMARK VINA RESULT:      -4.7     13.035     14.746
REMARK  6 active torsions:
REMARK  status: ('A' for Active; 'I' for Inactive)
REMARK    1  A    between atoms: O_2  and  C_4 
REMARK    2  A    between atoms: C_3  and  C_9 
REMARK    3  A    between atoms: C_4  and  C_11 
REMARK    4  A    between atoms: N_5  and  C_11 
REMARK    5  A    between atoms: C_9  and  N_12 
REMARK    6  A    between atoms: C_11  and  C_13 
REMARK       I    between atoms: N_12  and  C_13 
ROOT
HETATM    1  H           1     -23.037  -5.572  -8.113  0.00  0.00     0.163 HD
HETATM    2  O           1     -21.195  -3.272  -7.038  0.00  0.00    -0.271 OA
HETATM    3  N           1     -22.583  -4.668  -8.091  0.00  0.00    -0.345 N 
HETATM    4  C           1     -21.737  -4.350  -7.063  0.00  0.00     0.251 C 
ENDROOT
BRANCH   4   5
HETATM    5  C           1     -21.482  -5.350  -5.961  0.00  0.00     0.297 C 
BRANCH   5   6
HETATM    6  C           1     -20.621  -6.486  -6.496  0.00  0.00     0.206 C 
BRANCH   6   7
HETATM    7  O           1     -19.984  -6.076  -7.676  0.00  0.00    -0.398 OA
HETATM    8  H           1     -19.319  -6.716  -7.865  0.00  0.00     0.209 HD
ENDBRANCH   6   7
ENDBRANCH   5   6
BRANCH   5   9
HETATM    9  N           1     -22.789  -5.900  -5.474  0.00  0.00    -0.064 N 
HETATM   10  H           1     -22.763  -5.992  -4.433  0.00  0.00     0.275 HD
HETATM   11  H           1     -23.563  -5.253  -5.746  0.00  0.00     0.275 HD
HETATM   12  H           1     -22.953  -6.840  -5.903  0.00  0.00     0.275 HD
ENDBRANCH   5   9
ENDBRANCH   4   5
BRANCH   3  13
HETATM   13  C           1     -22.829  -3.708  -9.151  0.00  0.00     0.181 C 
HETATM   14  C           1     -21.912  -4.008 -10.329  0.00  0.00     0.043 C 
BRANCH  13  15
HETATM   15  C           1     -24.268  -3.807  -9.594  0.00  0.00     0.196 C 
HETATM   16  O           1     -24.720  -4.894 -10.012  0.00  0.00    -0.646 OA
HETATM   17  O           1     -25.008  -2.800  -9.542  0.00  0.00    -0.646 OA
ENDBRANCH  13  15
ENDBRANCH   3  13
TORSDOF 6
ENDMDL
MODEL 5
REMARK VINA RESULT:      -4.7     12.450     13.996
REMARK  6 active torsions:
REMARK  status: ('A' for Active; 'I' for Inactive)
REMARK    1  A    between atoms: O_2  and  C_4 
REMARK    2  A    between atoms: C_3  and  C_9 
REMARK    3  A    between atoms: C_4  and  C_11 
REMARK    4  A    between atoms: N_5  and  C_11 
REMARK    5  A    between atoms: C_9  and  N_12 
REMARK    6  A    between atoms: C_11  and  C_13 
REMARK       I    between atoms: N_12  and  C_13 
ROOT
HETATM    1  H           1     -23.530  -4.926  -9.727  0.00  0.00     0.163 HD
HETATM    2  O           1     -20.635  -3.773  -9.361  0.00  0.00    -0.271 OA
HETATM    3  N           1     -22.721  -4.348  -9.915  0.00  0.00    -0.345 N 
HETATM    4  C           1     -21.601  -4.463  -9.136  0.00  0.00     0.251 C 
ENDROOT
BRANCH   4   5
HETATM    5  C           1     -21.573  -5.452  -7.997  0.00  0.00     0.297 C 
BRANCH   5   6
HETATM    6  C           1     -22.241  -4.837  -6.774  0.00  0.00     0.206 C 
BRANCH   6   7
HETATM    7  O           1     -23.512  -4.360  -7.125  0.00  0.00    -0.398 OA
HETATM    8  H           1     -23.514  -3.434  -6.953  0.00  0.00     0.209 HD
ENDBRANCH   6   7
ENDBRANCH   5   6
BRANCH   5   9
HETATM    9  N           1     -20.151  -5.796  -7.669  0.00  0.00    -0.064 N 
HETATM   10  H           1     -20.023  -5.798  -6.631  0.00  0.00     0.275 HD
HETATM   11  H           1     -19.925  -6.743  -8.048  0.00  0.00     0.275 HD
HETATM   12  H           1     -19.513  -5.088  -8.097  0.00  0.00     0.275 HD
ENDBRANCH   5   9
ENDBRANCH   4   5
BRANCH   3  13
HETATM   13  C           1     -22.748  -3.397 -11.011  0.00  0.00     0.181 C 
HETATM   14  C           1     -21.971  -3.963 -12.192  0.00  0.00     0.043 C 
BRANCH  13  15
HETATM   15  C           1     -24.177  -3.145 -11.421  0.00  0.00     0.196 C 
HETATM   16  O           1     -24.446  -2.856 -12.607  0.00  0.00    -0.646 OA
HETATM   17  O           1     -25.094  -3.226 -10.575  0.00  0.00    -0.646 OA
ENDBRANCH  13  15
ENDBRANCH   3  13
TORSDOF 6
ENDMDL
MODEL 6
REMARK VINA RESULT:      -4.6     12.894     15.019
REMARK  6 active torsions:
REMARK  status: ('A' for Active; 'I' for Inactive)
REMARK    1  A    between atoms: O_2  and  C_4 
REMARK    2  A    between atoms: C_3  and  C_9 
REMARK    3  A    between atoms: C_4  and  C_11 
REMARK    4  A    between atoms: N_5  and  C_11 
REMARK    5  A    between atoms: C_9  and  N_12 
REMARK    6  A    between atoms: C_11  and  C_13 
REMARK       I    between atoms: N_12  and  C_13 
ROOT
HETATM    1  H           1     -22.624  -3.577  -8.447  0.00  0.00     0.163 HD
HETATM    2  O           1     -21.468  -4.583 -11.184  0.00  0.00    -0.271 OA
HETATM    3  N           1     -22.001  -4.064  -9.079  0.00  0.00    -0.345 N 
HETATM    4  C           1     -22.212  -4.002 -10.430  0.00  0.00     0.251 C 
ENDROOT
BRANCH   4   5
HETATM    5  C           1     -23.372  -3.207 -10.977  0.00  0.00     0.297 C 
BRANCH   5   6
HETATM    6  C           1     -24.657  -3.644 -10.286  0.00  0.00     0.206 C 
BRANCH   6   7
HETATM    7  O           1     -24.871  -2.851  -9.149  0.00  0.00    -0.398 OA
HETATM    8  H           1     -25.649  -3.177  -8.730  0.00  0.00     0.209 HD
ENDBRANCH   6   7
ENDBRANCH   5   6
BRANCH   5   9
HETATM    9  N           1     -23.492  -3.449 -12.452  0.00  0.00    -0.064 N 
HETATM   10  H           1     -22.600  -3.176 -12.924  0.00  0.00     0.275 HD
HETATM   11  H           1     -23.679  -4.463 -12.625  0.00  0.00     0.275 HD
HETATM   12  H           1     -24.279  -2.879 -12.837  0.00  0.00     0.275 HD
ENDBRANCH   5   9
ENDBRANCH   4   5
BRANCH   3  13
HETATM   13  C           1     -20.886  -4.827  -8.553  0.00  0.00     0.181 C 
HETATM   14  C           1     -19.744  -3.882  -8.204  0.00  0.00     0.043 C 
BRANCH  13  15
HETATM   15  C           1     -21.324  -5.567  -7.313  0.00  0.00     0.196 C 
HETATM   16  O           1     -20.799  -6.664  -7.021  0.00  0.00    -0.646 OA
HETATM   17  O           1     -22.212  -5.084  -6.578  0.00  0.00    -0.646 OA
ENDBRANCH  13  15
ENDBRANCH   3  13
TORSDOF 6
ENDMDL
MODEL 7
REMARK VINA RESULT:      -4.6     11.710     13.498
REMARK  6 active torsions:
REMARK  status: ('A' for Active; 'I' for Inactive)
REMARK    1  A    between atoms: O_2  and  C_4 
REMARK    2  A    between atoms: C_3  and  C_9 
REMARK    3  A    between atoms: C_4  and  C_11 
REMARK    4  A    between atoms: N_5  and  C_11 
REMARK    5  A    between atoms: C_9  and  N_12 
REMARK    6  A    between atoms: C_11  and  C_13 
REMARK       I    between atoms: N_12  and  C_13 
ROOT
HETATM    1  H           1     -22.026  -3.400 -12.652  0.00  0.00     0.163 HD
HETATM    2  O           1     -25.058  -2.887 -12.031  0.00  0.00    -0.271 OA
HETATM    3  N           1     -22.879  -3.367 -12.108  0.00  0.00    -0.345 N 
HETATM    4  C           1     -24.041  -2.926 -12.681  0.00  0.00     0.251 C 
ENDROOT
BRANCH   4   5
HETATM    5  C           1     -24.052  -2.490 -14.126  0.00  0.00     0.297 C 
BRANCH   5   6
HETATM    6  C           1     -22.710  -2.821 -14.766  0.00  0.00     0.206 C 
BRANCH   6   7
HETATM    7  O           1     -22.480  -1.958 -15.847  0.00  0.00    -0.398 OA
HETATM    8  H           1     -23.302  -1.541 -16.044  0.00  0.00     0.209 HD
ENDBRANCH   6   7
ENDBRANCH   5   6
BRANCH   5   9
HETATM    9  N           1     -24.288  -1.011 -14.199  0.00  0.00    -0.064 N 
HETATM   10  H           1     -25.316  -0.823 -14.227  0.00  0.00     0.275 HD
HETATM   11  H           1     -23.874  -0.550 -13.357  0.00  0.00     0.275 HD
HETATM   12  H           1     -23.840  -0.628 -15.062  0.00  0.00     0.275 HD
ENDBRANCH   5   9
ENDBRANCH   4   5
BRANCH   3  13
HETATM   13  C           1     -22.868  -3.786 -10.719  0.00  0.00     0.181 C 
HETATM   14  C           1     -23.633  -5.096 -10.579  0.00  0.00     0.043 C 
BRANCH  13  15
HETATM   15  C           1     -21.443  -3.984 -10.265  0.00  0.00     0.196 C 
HETATM   16  O           1     -21.166  -3.959  -9.047  0.00  0.00    -0.646 OA
HETATM   17  O           1     -20.539  -4.173 -11.108  0.00  0.00    -0.646 OA
ENDBRANCH  13  15
ENDBRANCH   3  13
TORSDOF 6
ENDMDL
MODEL 8
REMARK VINA RESULT:      -4.5      3.017      3.995
REMARK  6 active torsions:
REMARK  status: ('A' for Active; 'I' for Inactive)
REMARK    1  A    between atoms: O_2  and  C_4 
REMARK    2  A    between atoms: C_3  and  C_9 
REMARK    3  A    between atoms: C_4  and  C_11 
REMARK    4  A    between atoms: N_5  and  C_11 
REMARK    5  A    between atoms: C_9  and  N_12 
REMARK    6  A    between atoms: C_11  and  C_13 
REMARK       I    between atoms: N_12  and  C_13 
ROOT
HETATM    1  H           1     -34.596  -1.340 -10.752  0.00  0.00     0.163 HD
HETATM    2  O           1     -36.231  -4.017 -10.755  0.00  0.00    -0.271 OA
HETATM    3  N           1     -35.407  -1.943 -10.693  0.00  0.00    -0.345 N 
HETATM    4  C           1     -35.264  -3.298 -10.826  0.00  0.00     0.251 C 
ENDROOT
BRANCH   4   5
HETATM    5  C           1     -33.897  -3.893 -11.061  0.00  0.00     0.297 C 
BRANCH   5   6
HETATM    6  C           1     -33.526  -3.749 -12.531  0.00  0.00     0.206 C 
BRANCH   6   7
HETATM    7  O           1     -34.533  -3.039 -13.201  0.00  0.00    -0.398 OA
HETATM    8  H           1     -35.085  -2.658 -12.540  0.00  0.00     0.209 HD
ENDBRANCH   6   7
ENDBRANCH   5   6
BRANCH   5   9
HETATM    9  N           1     -33.914  -5.346 -10.690  0.00  0.00    -0.064 N 
HETATM   10  H           1     -34.334  -5.458  -9.739  0.00  0.00     0.275 HD
HETATM   11  H           1     -34.485  -5.876 -11.386  0.00  0.00     0.275 HD
HETATM   12  H           1     -32.936  -5.716 -10.685  0.00  0.00     0.275 HD
ENDBRANCH   5   9
ENDBRANCH   4   5
BRANCH   3  13
HETATM   13  C           1     -36.720  -1.371 -10.467  0.00  0.00     0.181 C 
HETATM   14  C           1     -36.650  -0.380  -9.313  0.00  0.00     0.043 C 
BRANCH  13  15
HETATM   15  C           1     -37.180  -0.660 -11.716  0.00  0.00     0.196 C 
HETATM   16  O           1     -38.005   0.275 -11.635  0.00  0.00    -0.646 OA
HETATM   17  O           1     -36.734  -1.006 -12.832  0.00  0.00    -0.646 OA
ENDBRANCH  13  15
ENDBRANCH   3  13
TORSDOF 6
ENDMDL
MODEL 9
REMARK VINA RESULT:      -4.1     13.126     15.181
REMARK  6 active torsions:
REMARK  status: ('A' for Active; 'I' for Inactive)
REMARK    1  A    between atoms: O_2  and  C_4 
REMARK    2  A    between atoms: C_3  and  C_9 
REMARK    3  A    between atoms: C_4  and  C_11 
REMARK    4  A    between atoms: N_5  and  C_11 
REMARK    5  A    between atoms: C_9  and  N_12 
REMARK    6  A    between atoms: C_11  and  C_13 
REMARK       I    between atoms: N_12  and  C_13 
ROOT
HETATM    1  H           1     -21.808  -5.760  -9.484  0.00  0.00     0.163 HD
HETATM    2  O           1     -23.488  -3.545  -8.031  0.00  0.00    -0.271 OA
HETATM    3  N           1     -22.051  -5.086  -8.769  0.00  0.00    -0.345 N 
HETATM    4  C           1     -23.199  -4.349  -8.884  0.00  0.00     0.251 C 
ENDROOT
BRANCH   4   5
HETATM    5  C           1     -24.103  -4.544 -10.077  0.00  0.00     0.297 C 
BRANCH   5   6
HETATM    6  C           1     -23.422  -3.998 -11.325  0.00  0.00     0.206 C 
BRANCH   6   7
HETATM    7  O           1     -22.303  -3.238 -10.954  0.00  0.00    -0.398 OA
HETATM    8  H           1     -21.839  -3.029 -11.746  0.00  0.00     0.209 HD
ENDBRANCH   6   7
ENDBRANCH   5   6
BRANCH   5   9
HETATM    9  N           1     -25.392  -3.811  -9.851  0.00  0.00    -0.064 N 
HETATM   10  H           1     -26.133  -4.490  -9.565  0.00  0.00     0.275 HD
HETATM   11  H           1     -25.261  -3.101  -9.095  0.00  0.00     0.275 HD
HETATM   12  H           1     -25.680  -3.331 -10.734  0.00  0.00     0.275 HD
ENDBRANCH   5   9
ENDBRANCH   4   5
BRANCH   3  13
HETATM   13  C           1     -21.181  -4.900  -7.623  0.00  0.00     0.181 C 
HETATM   14  C           1     -20.965  -6.238  -6.928  0.00  0.00     0.043 C 
BRANCH  13  15
HETATM   15  C           1     -19.854  -4.351  -8.084  0.00  0.00     0.196 C 
HETATM   16  O           1     -19.771  -3.748  -9.175  0.00  0.00    -0.646 OA
HETATM   17  O           1     -18.835  -4.500  -7.374  0.00  0.00    -0.646 OA
ENDBRANCH  13  15
ENDBRANCH   3  13
TORSDOF 6
ENDMDL
