MODEL 1
REMARK VINA RESULT:      -5.6      0.000      0.000
REMARK  7 active torsions:
REMARK  status: ('A' for Active; 'I' for Inactive)
REMARK    1  A    between atoms: N_1  and  C_6 
REMARK    2  A    between atoms: C_3  and  C_16 
REMARK    3  A    between atoms: C_3  and  N_4 
REMARK       I    between atoms: N_4  and  C_5 
REMARK    4  A    between atoms: C_5  and  C_6 
REMARK    5  A    between atoms: C_6  and  C_7 
REMARK    6  A    between atoms: C_7  and  C_8 
REMARK    7  A    between atoms: C_8  and  Se_9 
ROOT
HETATM    1  C           1     -24.201  -3.380  -9.658  0.00  0.00     0.274 C 
ENDROOT
BRANCH   1   2
HETATM    2  N           1     -25.681  -3.619  -9.688  0.00  0.00    -0.067 N 
HETATM    3  H           1     -26.019  -3.837  -8.723  0.00  0.00     0.275 HD
HETATM    4  H           1     -26.165  -2.763 -10.040  0.00  0.00     0.275 HD
HETATM    5  H           1     -25.891  -4.424 -10.321  0.00  0.00     0.275 HD
ENDBRANCH   1   2
BRANCH   1   6
HETATM    6  C           1     -23.603  -3.768 -10.988  0.00  0.00     0.248 C 
HETATM    7  O           1     -23.616  -4.923 -11.343  0.00  0.00    -0.271 OA
HETATM    8  N           1     -23.045  -2.812 -11.793  0.00  0.00    -0.349 N 
HETATM    9  H           1     -23.033  -1.844 -11.496  0.00  0.00     0.163 HD
BRANCH   8  10
HETATM   10  C           1     -22.470  -3.184 -13.071  0.00  0.00     0.235 C 
BRANCH  10  11
HETATM   11  C           1     -23.251  -2.532 -14.185  0.00  0.00     0.191 C 
HETATM   12  O           1     -24.383  -2.054 -13.958  0.00  0.00    -0.647 OA
HETATM   13  O           1     -22.765  -2.469 -15.335  0.00  0.00    -0.647 OA
ENDBRANCH  10  11
ENDBRANCH   8  10
ENDBRANCH   1   6
BRANCH   1  14
HETATM   14  C           1     -23.574  -4.220  -8.554  0.00  0.00     0.042 C 
BRANCH  14  15
HETATM   15  C           1     -22.220  -3.635  -8.176  0.00  0.00     0.003 C 
BRANCH  15  16
HETATM   16 Se           1     -20.868  -5.038  -8.226  0.00  0.00     0.000 Se
HETATM   17  C           1     -20.205  -4.562  -9.996  0.00  0.00     0.000 C 
ENDBRANCH  15  16
ENDBRANCH  14  15
ENDBRANCH   1  14
TORSDOF 7
ENDMDL
MODEL 2
REMARK VINA RESULT:      -5.6      1.606      1.872
REMARK  7 active torsions:
REMARK  status: ('A' for Active; 'I' for Inactive)
REMARK    1  A    between atoms: N_1  and  C_6 
REMARK    2  A    between atoms: C_3  and  C_16 
REMARK    3  A    between atoms: C_3  and  N_4 
REMARK       I    between atoms: N_4  and  C_5 
REMARK    4  A    between atoms: C_5  and  C_6 
REMARK    5  A    between atoms: C_6  and  C_7 
REMARK    6  A    between atoms: C_7  and  C_8 
REMARK    7  A    between atoms: C_8  and  Se_9 
ROOT
HETATM    1  C           1     -23.161  -3.592  -9.296  0.00  0.00     0.274 C 
ENDROOT
BRANCH   1   2
HETATM    2  N           1     -23.962  -4.006  -8.097  0.00  0.00    -0.067 N 
HETATM    3  H           1     -23.322  -4.153  -7.284  0.00  0.00     0.275 HD
HETATM    4  H           1     -24.654  -3.258  -7.865  0.00  0.00     0.275 HD
HETATM    5  H           1     -24.468  -4.896  -8.308  0.00  0.00     0.275 HD
ENDBRANCH   1   2
BRANCH   1   6
HETATM    6  C           1     -24.093  -3.308 -10.449  0.00  0.00     0.248 C 
HETATM    7  O           1     -25.283  -3.231 -10.259  0.00  0.00    -0.271 OA
HETATM    8  N           1     -23.589  -3.138 -11.710  0.00  0.00    -0.349 N 
HETATM    9  H           1     -22.592  -3.203 -11.870  0.00  0.00     0.163 HD
BRANCH   8  10
HETATM   10  C           1     -24.484  -2.866 -12.818  0.00  0.00     0.235 C 
BRANCH  10  11
HETATM   11  C           1     -23.689  -2.356 -13.995  0.00  0.00     0.191 C 
HETATM   12  O           1     -22.607  -2.901 -14.302  0.00  0.00    -0.647 OA
HETATM   13  O           1     -24.113  -1.389 -14.664  0.00  0.00    -0.647 OA
ENDBRANCH  10  11
ENDBRANCH   8  10
ENDBRANCH   1   6
BRANCH   1  14
HETATM   14  C           1     -22.205  -4.712  -9.679  0.00  0.00     0.042 C 
BRANCH  14  15
HETATM   15  C           1     -20.776  -4.187  -9.672  0.00  0.00     0.003 C 
BRANCH  15  16
HETATM   16 Se           1     -20.123  -4.099  -7.838  0.00  0.00     0.000 Se
HETATM   17  C           1     -20.872  -5.821  -7.316  0.00  0.00     0.000 C 
ENDBRANCH  15  16
ENDBRANCH  14  15
ENDBRANCH   1  14
TORSDOF 7
ENDMDL
MODEL 3
REMARK VINA RESULT:      -5.3      1.755      2.404
REMARK  7 active torsions:
REMARK  status: ('A' for Active; 'I' for Inactive)
REMARK    1  A    between atoms: N_1  and  C_6 
REMARK    2  A    between atoms: C_3  and  C_16 
REMARK    3  A    between atoms: C_3  and  N_4 
REMARK       I    between atoms: N_4  and  C_5 
REMARK    4  A    between atoms: C_5  and  C_6 
REMARK    5  A    between atoms: C_6  and  C_7 
REMARK    6  A    between atoms: C_7  and  C_8 
REMARK    7  A    between atoms: C_8  and  Se_9 
ROOT
HETATM    1  C           1     -21.467  -4.300 -10.844  0.00  0.00     0.274 C 
ENDROOT
BRANCH   1   2
HETATM    2  N           1     -20.313  -3.502 -11.374  0.00  0.00    -0.067 N 
HETATM    3  H           1     -20.344  -3.495 -12.419  0.00  0.00     0.275 HD
HETATM    4  H           1     -20.374  -2.522 -11.017  0.00  0.00     0.275 HD
HETATM    5  H           1     -19.416  -3.935 -11.056  0.00  0.00     0.275 HD
ENDBRANCH   1   2
BRANCH   1   6
HETATM    6  C           1     -22.678  -4.070 -11.715  0.00  0.00     0.248 C 
HETATM    7  O           1     -23.517  -4.933 -11.823  0.00  0.00    -0.271 OA
HETATM    8  N           1     -22.826  -2.884 -12.382  0.00  0.00    -0.349 N 
HETATM    9  H           1     -22.124  -2.161 -12.292  0.00  0.00     0.163 HD
BRANCH   8  10
HETATM   10  C           1     -23.990  -2.663 -13.218  0.00  0.00     0.235 C 
BRANCH  10  11
HETATM   11  C           1     -23.560  -2.055 -14.531  0.00  0.00     0.191 C 
HETATM   12  O           1     -24.054  -0.972 -14.909  0.00  0.00    -0.647 OA
HETATM   13  O           1     -22.709  -2.636 -15.239  0.00  0.00    -0.647 OA
ENDBRANCH  10  11
ENDBRANCH   8  10
ENDBRANCH   1   6
BRANCH   1  14
HETATM   14  C           1     -21.775  -3.864  -9.419  0.00  0.00     0.042 C 
BRANCH  14  15
HETATM   15  C           1     -21.327  -4.947  -8.447  0.00  0.00     0.003 C 
BRANCH  15  16
HETATM   16 Se           1     -19.610  -4.454  -7.670  0.00  0.00     0.000 Se
HETATM   17  C           1     -20.157  -4.801  -5.831  0.00  0.00     0.000 C 
ENDBRANCH  15  16
ENDBRANCH  14  15
ENDBRANCH   1  14
TORSDOF 7
ENDMDL
MODEL 4
REMARK VINA RESULT:      -5.2     11.575     12.534
REMARK  7 active torsions:
REMARK  status: ('A' for Active; 'I' for Inactive)
REMARK    1  A    between atoms: N_1  and  C_6 
REMARK    2  A    between atoms: C_3  and  C_16 
REMARK    3  A    between atoms: C_3  and  N_4 
REMARK       I    between atoms: N_4  and  C_5 
REMARK    4  A    between atoms: C_5  and  C_6 
REMARK    5  A    between atoms: C_6  and  C_7 
REMARK    6  A    between atoms: C_7  and  C_8 
REMARK    7  A    between atoms: C_8  and  Se_9 
ROOT
HETATM    1  C           1     -34.910  -1.070 -12.003  0.00  0.00     0.274 C 
ENDROOT
BRANCH   1   2
HETATM    2  N           1     -35.670  -0.679 -10.770  0.00  0.00    -0.067 N 
HETATM    3  H           1     -35.279  -1.187  -9.944  0.00  0.00     0.275 HD
HETATM    4  H           1     -35.582   0.351 -10.619  0.00  0.00     0.275 HD
HETATM    5  H           1     -36.677  -0.931 -10.889  0.00  0.00     0.275 HD
ENDBRANCH   1   2
BRANCH   1   6
HETATM    6  C           1     -35.684  -0.644 -13.226  0.00  0.00     0.248 C 
HETATM    7  O           1     -36.873  -0.848 -13.290  0.00  0.00    -0.271 OA
HETATM    8  N           1     -35.039  -0.028 -14.264  0.00  0.00    -0.349 N 
HETATM    9  H           1     -34.043   0.143 -14.212  0.00  0.00     0.163 HD
BRANCH   8  10
HETATM   10  C           1     -35.783   0.382 -15.440  0.00  0.00     0.235 C 
BRANCH  10  11
HETATM   11  C           1     -35.844  -0.762 -16.422  0.00  0.00     0.191 C 
HETATM   12  O           1     -36.862  -0.925 -17.128  0.00  0.00    -0.647 OA
HETATM   13  O           1     -34.877  -1.547 -16.528  0.00  0.00    -0.647 OA
ENDBRANCH  10  11
ENDBRANCH   8  10
ENDBRANCH   1   6
BRANCH   1  14
HETATM   14  C           1     -34.717  -2.580 -12.023  0.00  0.00     0.042 C 
BRANCH  14  15
HETATM   15  C           1     -33.488  -2.947 -11.202  0.00  0.00     0.003 C 
BRANCH  15  16
HETATM   16 Se           1     -32.633  -4.517 -11.978  0.00  0.00     0.000 Se
HETATM   17  C           1     -33.748  -5.799 -11.023  0.00  0.00     0.000 C 
ENDBRANCH  15  16
ENDBRANCH  14  15
ENDBRANCH   1  14
TORSDOF 7
ENDMDL
MODEL 5
REMARK VINA RESULT:      -5.0      3.356      5.730
REMARK  7 active torsions:
REMARK  status: ('A' for Active; 'I' for Inactive)
REMARK    1  A    between atoms: N_1  and  C_6 
REMARK    2  A    between atoms: C_3  and  C_16 
REMARK    3  A    between atoms: C_3  and  N_4 
REMARK       I    between atoms: N_4  and  C_5 
REMARK    4  A    between atoms: C_5  and  C_6 
REMARK    5  A    between atoms: C_6  and  C_7 
REMARK    6  A    between atoms: C_7  and  C_8 
REMARK    7  A    between atoms: C_8  and  Se_9 
ROOT
HETATM    1  C           1     -23.956  -4.409  -9.368  0.00  0.00     0.274 C 
ENDROOT
BRANCH   1   2
HETATM    2  N           1     -24.649  -3.100  -9.128  0.00  0.00    -0.067 N 
HETATM    3  H           1     -24.236  -2.636  -8.286  0.00  0.00     0.275 HD
HETATM    4  H           1     -24.526  -2.482  -9.961  0.00  0.00     0.275 HD
HETATM    5  H           1     -25.668  -3.270  -8.966  0.00  0.00     0.275 HD
ENDBRANCH   1   2
BRANCH   1   6
HETATM    6  C           1     -22.559  -4.349  -8.799  0.00  0.00     0.248 C 
HETATM    7  O           1     -21.610  -4.606  -9.501  0.00  0.00    -0.271 OA
HETATM    8  N           1     -22.368  -4.003  -7.489  0.00  0.00    -0.349 N 
HETATM    9  H           1     -23.162  -3.788  -6.900  0.00  0.00     0.163 HD
BRANCH   8  10
HETATM   10  C           1     -21.026  -3.946  -6.943  0.00  0.00     0.235 C 
BRANCH  10  11
HETATM   11  C           1     -20.708  -5.246  -6.246  0.00  0.00     0.191 C 
HETATM   12  O           1     -20.732  -5.308  -4.998  0.00  0.00    -0.647 OA
HETATM   13  O           1     -20.422  -6.261  -6.917  0.00  0.00    -0.647 OA
ENDBRANCH  10  11
ENDBRANCH   8  10
ENDBRANCH   1   6
BRANCH   1  14
HETATM   14  C           1     -23.885  -4.679 -10.864  0.00  0.00     0.042 C 
BRANCH  14  15
HETATM   15  C           1     -24.184  -3.395 -11.627  0.00  0.00     0.003 C 
BRANCH  15  16
HETATM   16 Se           1     -22.537  -2.701 -12.404  0.00  0.00     0.000 Se
HETATM   17  C           1     -23.228  -2.643 -14.225  0.00  0.00     0.000 C 
ENDBRANCH  15  16
ENDBRANCH  14  15
ENDBRANCH   1  14
TORSDOF 7
ENDMDL
MODEL 6
REMARK VINA RESULT:      -4.9      2.827      3.396
REMARK  7 active torsions:
REMARK  status: ('A' for Active; 'I' for Inactive)
REMARK    1  A    between atoms: N_1  and  C_6 
REMARK    2  A    between atoms: C_3  and  C_16 
REMARK    3  A    between atoms: C_3  and  N_4 
REMARK       I    between atoms: N_4  and  C_5 
REMARK    4  A    between atoms: C_5  and  C_6 
REMARK    5  A    between atoms: C_6  and  C_7 
REMARK    6  A    between atoms: C_7  and  C_8 
REMARK    7  A    between atoms: C_8  and  Se_9 
ROOT
HETATM    1  C           1     -20.981  -4.054  -8.324  0.00  0.00     0.274 C 
ENDROOT
BRANCH   1   2
HETATM    2  N           1     -22.124  -3.480  -7.540  0.00  0.00    -0.067 N 
HETATM    3  H           1     -22.917  -4.160  -7.531  0.00  0.00     0.275 HD
HETATM    4  H           1     -21.815  -3.292  -6.560  0.00  0.00     0.275 HD
HETATM    5  H           1     -22.437  -2.587  -7.985  0.00  0.00     0.275 HD
ENDBRANCH   1   2
BRANCH   1   6
HETATM    6  C           1     -21.343  -4.085  -9.789  0.00  0.00     0.248 C 
HETATM    7  O           1     -20.574  -4.561 -10.591  0.00  0.00    -0.271 OA
HETATM    8  N           1     -22.541  -3.574 -10.209  0.00  0.00    -0.349 N 
HETATM    9  H           1     -23.185  -3.176  -9.538  0.00  0.00     0.163 HD
BRANCH   8  10
HETATM   10  C           1     -22.889  -3.604 -11.616  0.00  0.00     0.235 C 
BRANCH  10  11
HETATM   11  C           1     -24.339  -3.224 -11.786  0.00  0.00     0.191 C 
HETATM   12  O           1     -25.094  -3.182 -10.792  0.00  0.00    -0.647 OA
HETATM   13  O           1     -24.785  -2.952 -12.922  0.00  0.00    -0.647 OA
ENDBRANCH  10  11
ENDBRANCH   8  10
ENDBRANCH   1   6
BRANCH   1  14
HETATM   14  C           1     -20.695  -5.469  -7.841  0.00  0.00     0.042 C 
BRANCH  14  15
HETATM   15  C           1     -20.189  -5.423  -6.405  0.00  0.00     0.003 C 
BRANCH  15  16
HETATM   16 Se           1     -21.392  -6.440  -5.258  0.00  0.00     0.000 Se
HETATM   17  C           1     -20.145  -7.911  -4.976  0.00  0.00     0.000 C 
ENDBRANCH  15  16
ENDBRANCH  14  15
ENDBRANCH   1  14
TORSDOF 7
ENDMDL
MODEL 7
REMARK VINA RESULT:      -4.9     11.091     12.128
REMARK  7 active torsions:
REMARK  status: ('A' for Active; 'I' for Inactive)
REMARK    1  A    between atoms: N_1  and  C_6 
REMARK    2  A    between atoms: C_3  and  C_16 
REMARK    3  A    between atoms: C_3  and  N_4 
REMARK       I    between atoms: N_4  and  C_5 
REMARK    4  A    between atoms: C_5  and  C_6 
REMARK    5  A    between atoms: C_6  and  C_7 
REMARK    6  A    between atoms: C_7  and  C_8 
REMARK    7  A    between atoms: C_8  and  Se_9 
ROOT
HETATM    1  C           1     -33.826  -4.202 -12.410  0.00  0.00     0.274 C 
ENDROOT
BRANCH   1   2
HETATM    2  N           1     -32.389  -4.609 -12.274  0.00  0.00    -0.067 N 
HETATM    3  H           1     -31.784  -3.756 -12.273  0.00  0.00     0.275 HD
HETATM    4  H           1     -32.257  -5.130 -11.379  0.00  0.00     0.275 HD
HETATM    5  H           1     -32.124  -5.222 -13.078  0.00  0.00     0.275 HD
ENDBRANCH   1   2
BRANCH   1   6
HETATM    6  C           1     -33.971  -2.743 -12.049  0.00  0.00     0.248 C 
HETATM    7  O           1     -33.420  -2.306 -11.066  0.00  0.00    -0.271 OA
HETATM    8  N           1     -34.726  -1.915 -12.834  0.00  0.00    -0.349 N 
HETATM    9  H           1     -35.188  -2.280 -13.658  0.00  0.00     0.163 HD
BRANCH   8  10
HETATM   10  C           1     -34.866  -0.514 -12.488  0.00  0.00     0.235 C 
BRANCH  10  11
HETATM   11  C           1     -36.164  -0.304 -11.749  0.00  0.00     0.191 C 
HETATM   12  O           1     -36.236   0.555 -10.844  0.00  0.00    -0.647 OA
HETATM   13  O           1     -37.168  -0.989 -12.041  0.00  0.00    -0.647 OA
ENDBRANCH  10  11
ENDBRANCH   8  10
ENDBRANCH   1   6
BRANCH   1  14
HETATM   14  C           1     -34.683  -5.044 -11.475  0.00  0.00     0.042 C 
BRANCH  14  15
HETATM   15  C           1     -33.843  -6.175 -10.896  0.00  0.00     0.003 C 
BRANCH  15  16
HETATM   16 Se           1     -34.970  -7.326  -9.799  0.00  0.00     0.000 Se
HETATM   17  C           1     -33.791  -8.873  -9.922  0.00  0.00     0.000 C 
ENDBRANCH  15  16
ENDBRANCH  14  15
ENDBRANCH   1  14
TORSDOF 7
ENDMDL
MODEL 8
REMARK VINA RESULT:      -4.9     11.396     12.286
REMARK  7 active torsions:
REMARK  status: ('A' for Active; 'I' for Inactive)
REMARK    1  A    between atoms: N_1  and  C_6 
REMARK    2  A    between atoms: C_3  and  C_16 
REMARK    3  A    between atoms: C_3  and  N_4 
REMARK       I    between atoms: N_4  and  C_5 
REMARK    4  A    between atoms: C_5  and  C_6 
REMARK    5  A    between atoms: C_6  and  C_7 
REMARK    6  A    between atoms: C_7  and  C_8 
REMARK    7  A    between atoms: C_8  and  Se_9 
ROOT
HETATM    1  C           1     -33.871  -1.811 -11.309  0.00  0.00     0.274 C 
ENDROOT
BRANCH   1   2
HETATM    2  N           1     -34.423  -1.757  -9.916  0.00  0.00    -0.067 N 
HETATM    3  H           1     -34.063  -0.904  -9.431  0.00  0.00     0.275 HD
HETATM    4  H           1     -35.466  -1.721  -9.955  0.00  0.00     0.275 HD
HETATM    5  H           1     -34.123  -2.609  -9.389  0.00  0.00     0.275 HD
ENDBRANCH   1   2
BRANCH   1   6
HETATM    6  C           1     -34.991  -1.611 -12.301  0.00  0.00     0.248 C 
HETATM    7  O           1     -36.082  -2.082 -12.083  0.00  0.00    -0.271 OA
HETATM    8  N           1     -34.771  -0.896 -13.447  0.00  0.00    -0.349 N 
HETATM    9  H           1     -33.857  -0.501 -13.630  0.00  0.00     0.163 HD
BRANCH   8  10
HETATM   10  C           1     -35.846  -0.704 -14.400  0.00  0.00     0.235 C 
BRANCH  10  11
HETATM   11  C           1     -35.758   0.683 -14.989  0.00  0.00     0.191 C 
HETATM   12  O           1     -35.056   1.555 -14.432  0.00  0.00    -0.647 OA
HETATM   13  O           1     -36.386   0.959 -16.033  0.00  0.00    -0.647 OA
ENDBRANCH  10  11
ENDBRANCH   8  10
ENDBRANCH   1   6
BRANCH   1  14
HETATM   14  C           1     -33.219  -3.166 -11.545  0.00  0.00     0.042 C 
BRANCH  14  15
HETATM   15  C           1     -33.829  -4.195 -10.603  0.00  0.00     0.003 C 
BRANCH  15  16
HETATM   16 Se           1     -34.683  -5.604 -11.643  0.00  0.00     0.000 Se
HETATM   17  C           1     -34.622  -6.924 -10.211  0.00  0.00     0.000 C 
ENDBRANCH  15  16
ENDBRANCH  14  15
ENDBRANCH   1  14
TORSDOF 7
ENDMDL
MODEL 9
REMARK VINA RESULT:      -4.7     13.458     14.067
REMARK  7 active torsions:
REMARK  status: ('A' for Active; 'I' for Inactive)
REMARK    1  A    between atoms: N_1  and  C_6 
REMARK    2  A    between atoms: C_3  and  C_16 
REMARK    3  A    between atoms: C_3  and  N_4 
REMARK       I    between atoms: N_4  and  C_5 
REMARK    4  A    between atoms: C_5  and  C_6 
REMARK    5  A    between atoms: C_6  and  C_7 
REMARK    6  A    between atoms: C_7  and  C_8 
REMARK    7  A    between atoms: C_8  and  Se_9 
ROOT
HETATM    1  C           1     -36.348  -0.948 -11.225  0.00  0.00     0.274 C 
ENDROOT
BRANCH   1   2
HETATM    2  N           1     -35.150  -1.203 -10.360  0.00  0.00    -0.067 N 
HETATM    3  H           1     -34.335  -0.660 -10.725  0.00  0.00     0.275 HD
HETATM    4  H           1     -35.356  -0.904  -9.381  0.00  0.00     0.275 HD
HETATM    5  H           1     -34.922  -2.223 -10.373  0.00  0.00     0.275 HD
ENDBRANCH   1   2
BRANCH   1   6
HETATM    6  C           1     -35.915  -0.248 -12.489  0.00  0.00     0.248 C 
HETATM    7  O           1     -34.895   0.399 -12.502  0.00  0.00    -0.271 OA
HETATM    8  N           1     -36.678  -0.345 -13.622  0.00  0.00    -0.349 N 
HETATM    9  H           1     -37.533  -0.887 -13.612  0.00  0.00     0.163 HD
BRANCH   8  10
HETATM   10  C           1     -36.262   0.328 -14.837  0.00  0.00     0.235 C 
BRANCH  10  11
HETATM   11  C           1     -36.093  -0.685 -15.942  0.00  0.00     0.191 C 
HETATM   12  O           1     -36.826  -0.634 -16.954  0.00  0.00    -0.647 OA
HETATM   13  O           1     -35.221  -1.575 -15.847  0.00  0.00    -0.647 OA
ENDBRANCH  10  11
ENDBRANCH   8  10
ENDBRANCH   1   6
BRANCH   1  14
HETATM   14  C           1     -37.340  -0.073 -10.473  0.00  0.00     0.042 C 
BRANCH  14  15
HETATM   15  C           1     -37.002  -0.080  -8.988  0.00  0.00     0.003 C 
BRANCH  15  16
HETATM   16 Se           1     -37.737   1.516  -8.145  0.00  0.00     0.000 Se
HETATM   17  C           1     -37.197   1.011  -6.342  0.00  0.00     0.000 C 
ENDBRANCH  15  16
ENDBRANCH  14  15
ENDBRANCH   1  14
TORSDOF 7
ENDMDL
