MODEL 1
REMARK VINA RESULT:      -6.9      0.000      0.000
REMARK  8 active torsions:
REMARK  status: ('A' for Active; 'I' for Inactive)
REMARK       I    between atoms: C_1  and  N_6 
REMARK    1  A    between atoms: C_1  and  C_12 
REMARK    2  A    between atoms: C_2  and  C_10 
REMARK    3  A    between atoms: N_6  and  C_22 
REMARK    4  A    between atoms: C_10  and  C_22 
REMARK    5  A    between atoms: C_12  and  C_13 
REMARK    6  A    between atoms: C_12  and  N_18 
REMARK    7  A    between atoms: C_13  and  C_14 
REMARK    8  A    between atoms: C_22  and  C_24 
ROOT
HETATM    1  C           1     -22.810  -4.440  -7.150  0.00  0.00     0.249 C 
HETATM    2  N           1     -21.639  -4.110  -6.522  0.00  0.00    -0.344 N 
HETATM    3  H           1     -21.387  -3.138  -6.399  0.00  0.00     0.163 HD
HETATM    4  O           1     -23.824  -4.573  -6.506  0.00  0.00    -0.271 OA
ENDROOT
BRANCH   2   5
HETATM    5  C           1     -20.760  -5.156  -6.033  0.00  0.00     0.189 C 
BRANCH   5   6
HETATM    6  C           1     -21.566  -6.424  -5.792  0.00  0.00     0.074 C 
BRANCH   6   7
HETATM    7  C           1     -21.346  -6.897  -4.388  0.00  0.00    -0.056 A 
HETATM    8  C           1     -20.503  -7.979  -4.142  0.00  0.00     0.007 A 
HETATM    9  C           1     -20.297  -8.420  -2.833  0.00  0.00     0.001 A 
HETATM   10  C           1     -20.936  -7.777  -1.773  0.00  0.00     0.000 A 
HETATM   11  C           1     -21.779  -6.695  -2.020  0.00  0.00     0.001 A 
HETATM   12  C           1     -21.985  -6.254  -3.328  0.00  0.00     0.007 A 
ENDBRANCH   6   7
ENDBRANCH   5   6
BRANCH   5  13
HETATM   13  C           1     -19.687  -5.429  -7.059  0.00  0.00     0.197 C 
HETATM   14  O           1     -18.967  -4.497  -7.475  0.00  0.00    -0.646 OA
HETATM   15  O           1     -19.519  -6.590  -7.494  0.00  0.00    -0.646 OA
ENDBRANCH   5  13
ENDBRANCH   2   5
BRANCH   1  16
HETATM   16  C           1     -22.834  -4.637  -8.646  0.00  0.00     0.275 C 
BRANCH  16  17
HETATM   17  C           1     -21.876  -3.651  -9.303  0.00  0.00     0.046 C 
BRANCH  17  18
HETATM   18  C           1     -21.589  -4.095 -10.731  0.00  0.00    -0.020 C 
HETATM   19  C           1     -21.896  -2.953 -11.689  0.00  0.00     0.009 C 
HETATM   20  C           1     -20.122  -4.482 -10.856  0.00  0.00     0.009 C 
ENDBRANCH  17  18
ENDBRANCH  16  17
BRANCH  16  21
HETATM   21  N           1     -24.223  -4.400  -9.158  0.00  0.00    -0.066 N 
HETATM   22  H           1     -24.663  -5.314  -9.406  0.00  0.00     0.275 HD
HETATM   23  H           1     -24.183  -3.792 -10.007  0.00  0.00     0.275 HD
HETATM   24  H           1     -24.791  -3.928  -8.419  0.00  0.00     0.275 HD
ENDBRANCH  16  21
ENDBRANCH   1  16
TORSDOF 8
ENDMDL
MODEL 2
REMARK VINA RESULT:      -6.8      2.531      7.317
REMARK  8 active torsions:
REMARK  status: ('A' for Active; 'I' for Inactive)
REMARK       I    between atoms: C_1  and  N_6 
REMARK    1  A    between atoms: C_1  and  C_12 
REMARK    2  A    between atoms: C_2  and  C_10 
REMARK    3  A    between atoms: N_6  and  C_22 
REMARK    4  A    between atoms: C_10  and  C_22 
REMARK    5  A    between atoms: C_12  and  C_13 
REMARK    6  A    between atoms: C_12  and  N_18 
REMARK    7  A    between atoms: C_13  and  C_14 
REMARK    8  A    between atoms: C_22  and  C_24 
ROOT
HETATM    1  C           1     -21.751  -6.389  -3.068  0.00  0.00     0.249 C 
HETATM    2  N           1     -22.425  -6.376  -4.260  0.00  0.00    -0.344 N 
HETATM    3  H           1     -23.422  -6.205  -4.276  0.00  0.00     0.163 HD
HETATM    4  O           1     -21.276  -5.367  -2.632  0.00  0.00    -0.271 OA
ENDROOT
BRANCH   2   5
HETATM    5  C           1     -21.709  -6.609  -5.500  0.00  0.00     0.189 C 
BRANCH   5   6
HETATM    6  C           1     -20.794  -5.425  -5.786  0.00  0.00     0.074 C 
BRANCH   6   7
HETATM    7  C           1     -21.063  -4.910  -7.166  0.00  0.00    -0.056 A 
HETATM    8  C           1     -22.303  -4.351  -7.472  0.00  0.00     0.007 A 
HETATM    9  C           1     -22.553  -3.871  -8.759  0.00  0.00     0.001 A 
HETATM   10  C           1     -21.562  -3.951  -9.738  0.00  0.00     0.000 A 
HETATM   11  C           1     -20.323  -4.510  -9.431  0.00  0.00     0.001 A 
HETATM   12  C           1     -20.072  -4.990  -8.145  0.00  0.00     0.007 A 
ENDBRANCH   6   7
ENDBRANCH   5   6
BRANCH   5  13
HETATM   13  C           1     -20.881  -7.864  -5.372  0.00  0.00     0.197 C 
HETATM   14  O           1     -19.642  -7.785  -5.228  0.00  0.00    -0.646 OA
HETATM   15  O           1     -21.435  -8.985  -5.412  0.00  0.00    -0.646 OA
ENDBRANCH   5  13
ENDBRANCH   2   5
BRANCH   1  16
HETATM   16  C           1     -21.603  -7.679  -2.300  0.00  0.00     0.275 C 
BRANCH  16  17
HETATM   17  C           1     -22.240  -7.527  -0.924  0.00  0.00     0.046 C 
BRANCH  17  18
HETATM   18  C           1     -21.976  -8.780  -0.099  0.00  0.00    -0.020 C 
HETATM   19  C           1     -21.548  -8.381   1.307  0.00  0.00     0.009 C 
HETATM   20  C           1     -23.246  -9.616  -0.026  0.00  0.00     0.009 C 
ENDBRANCH  17  18
ENDBRANCH  16  17
BRANCH  16  21
HETATM   21  N           1     -20.147  -8.002  -2.143  0.00  0.00    -0.066 N 
HETATM   22  H           1     -19.946  -8.221  -1.141  0.00  0.00     0.275 HD
HETATM   23  H           1     -19.573  -7.180  -2.440  0.00  0.00     0.275 HD
HETATM   24  H           1     -19.907  -8.828  -2.736  0.00  0.00     0.275 HD
ENDBRANCH  16  21
ENDBRANCH   1  16
TORSDOF 8
ENDMDL
MODEL 3
REMARK VINA RESULT:      -6.7      3.742      7.077
REMARK  8 active torsions:
REMARK  status: ('A' for Active; 'I' for Inactive)
REMARK       I    between atoms: C_1  and  N_6 
REMARK    1  A    between atoms: C_1  and  C_12 
REMARK    2  A    between atoms: C_2  and  C_10 
REMARK    3  A    between atoms: N_6  and  C_22 
REMARK    4  A    between atoms: C_10  and  C_22 
REMARK    5  A    between atoms: C_12  and  C_13 
REMARK    6  A    between atoms: C_12  and  N_18 
REMARK    7  A    between atoms: C_13  and  C_14 
REMARK    8  A    between atoms: C_22  and  C_24 
ROOT
HETATM    1  C           1     -21.848  -7.063  -2.500  0.00  0.00     0.249 C 
HETATM    2  N           1     -21.700  -7.661  -3.723  0.00  0.00    -0.344 N 
HETATM    3  H           1     -22.476  -8.160  -4.139  0.00  0.00     0.163 HD
HETATM    4  O           1     -22.228  -5.918  -2.429  0.00  0.00    -0.271 OA
ENDROOT
BRANCH   2   5
HETATM    5  C           1     -20.432  -7.579  -4.421  0.00  0.00     0.189 C 
BRANCH   5   6
HETATM    6  C           1     -20.073  -8.947  -4.983  0.00  0.00     0.074 C 
BRANCH   6   7
HETATM    7  C           1     -18.665  -9.289  -4.603  0.00  0.00    -0.056 A 
HETATM    8  C           1     -17.742  -9.636  -5.589  0.00  0.00     0.007 A 
HETATM    9  C           1     -16.430  -9.955  -5.235  0.00  0.00     0.001 A 
HETATM   10  C           1     -16.043  -9.927  -3.895  0.00  0.00     0.000 A 
HETATM   11  C           1     -16.967  -9.580  -2.910  0.00  0.00     0.001 A 
HETATM   12  C           1     -18.278  -9.261  -3.263  0.00  0.00     0.007 A 
ENDBRANCH   6   7
ENDBRANCH   5   6
BRANCH   5  13
HETATM   13  C           1     -20.545  -6.585  -5.551  0.00  0.00     0.197 C 
HETATM   14  O           1     -20.458  -5.360  -5.319  0.00  0.00    -0.646 OA
HETATM   15  O           1     -20.727  -6.988  -6.722  0.00  0.00    -0.646 OA
ENDBRANCH   5  13
ENDBRANCH   2   5
BRANCH   1  16
HETATM   16  C           1     -21.535  -7.834  -1.241  0.00  0.00     0.275 C 
BRANCH  16  17
HETATM   17  C           1     -21.920  -9.296  -1.432  0.00  0.00     0.046 C 
BRANCH  17  18
HETATM   18  C           1     -22.425  -9.866  -0.113  0.00  0.00    -0.020 C 
HETATM   19  C           1     -23.694 -10.671  -0.361  0.00  0.00     0.009 C 
HETATM   20  C           1     -21.359 -10.771   0.489  0.00  0.00     0.009 C 
ENDBRANCH  17  18
ENDBRANCH  16  17
BRANCH  16  21
HETATM   21  N           1     -22.315  -7.259  -0.097  0.00  0.00    -0.066 N 
HETATM   22  H           1     -21.672  -6.714   0.522  0.00  0.00     0.275 HD
HETATM   23  H           1     -22.752  -8.033   0.453  0.00  0.00     0.275 HD
HETATM   24  H           1     -23.062  -6.629  -0.466  0.00  0.00     0.275 HD
ENDBRANCH  16  21
ENDBRANCH   1  16
TORSDOF 8
ENDMDL
MODEL 4
REMARK VINA RESULT:      -6.6      4.681      6.801
REMARK  8 active torsions:
REMARK  status: ('A' for Active; 'I' for Inactive)
REMARK       I    between atoms: C_1  and  N_6 
REMARK    1  A    between atoms: C_1  and  C_12 
REMARK    2  A    between atoms: C_2  and  C_10 
REMARK    3  A    between atoms: N_6  and  C_22 
REMARK    4  A    between atoms: C_10  and  C_22 
REMARK    5  A    between atoms: C_12  and  C_13 
REMARK    6  A    between atoms: C_12  and  N_18 
REMARK    7  A    between atoms: C_13  and  C_14 
REMARK    8  A    between atoms: C_22  and  C_24 
ROOT
HETATM    1  C           1     -19.706  -8.491  -4.893  0.00  0.00     0.249 C 
HETATM    2  N           1     -20.014  -7.746  -3.786  0.00  0.00    -0.344 N 
HETATM    3  H           1     -19.326  -7.116  -3.392  0.00  0.00     0.163 HD
HETATM    4  O           1     -19.920  -8.050  -5.998  0.00  0.00    -0.271 OA
ENDROOT
BRANCH   2   5
HETATM    5  C           1     -21.326  -7.860  -3.180  0.00  0.00     0.189 C 
BRANCH   5   6
HETATM    6  C           1     -21.177  -8.281  -1.724  0.00  0.00     0.074 C 
BRANCH   6   7
HETATM    7  C           1     -22.139  -9.389  -1.424  0.00  0.00    -0.056 A 
HETATM    8  C           1     -22.902  -9.352  -0.257  0.00  0.00     0.007 A 
HETATM    9  C           1     -23.798 -10.384   0.023  0.00  0.00     0.001 A 
HETATM   10  C           1     -23.930 -11.453  -0.865  0.00  0.00     0.000 A 
HETATM   11  C           1     -23.167 -11.489  -2.031  0.00  0.00     0.001 A 
HETATM   12  C           1     -22.271 -10.457  -2.311  0.00  0.00     0.007 A 
ENDBRANCH   6   7
ENDBRANCH   5   6
BRANCH   5  13
HETATM   13  C           1     -22.028  -6.525  -3.248  0.00  0.00     0.197 C 
HETATM   14  O           1     -22.364  -5.941  -2.195  0.00  0.00    -0.646 OA
HETATM   15  O           1     -22.272  -6.003  -4.358  0.00  0.00    -0.646 OA
ENDBRANCH   5  13
ENDBRANCH   2   5
BRANCH   1  16
HETATM   16  C           1     -19.097  -9.862  -4.733  0.00  0.00     0.275 C 
BRANCH  16  17
HETATM   17  C           1     -17.608  -9.725  -4.439  0.00  0.00     0.046 C 
BRANCH  17  18
HETATM   18  C           1     -17.386  -9.708  -2.932  0.00  0.00    -0.020 C 
HETATM   19  C           1     -18.317 -10.716  -2.271  0.00  0.00     0.009 C 
HETATM   20  C           1     -15.941 -10.076  -2.628  0.00  0.00     0.009 C 
ENDBRANCH  17  18
ENDBRANCH  16  17
BRANCH  16  21
HETATM   21  N           1     -19.285 -10.643  -6.000  0.00  0.00    -0.066 N 
HETATM   22  H           1     -19.264 -11.665  -5.784  0.00  0.00     0.275 HD
HETATM   23  H           1     -18.515 -10.413  -6.669  0.00  0.00     0.275 HD
HETATM   24  H           1     -20.205 -10.395  -6.428  0.00  0.00     0.275 HD
ENDBRANCH  16  21
ENDBRANCH   1  16
TORSDOF 8
ENDMDL
MODEL 5
REMARK VINA RESULT:      -6.6      2.672      4.377
REMARK  8 active torsions:
REMARK  status: ('A' for Active; 'I' for Inactive)
REMARK       I    between atoms: C_1  and  N_6 
REMARK    1  A    between atoms: C_1  and  C_12 
REMARK    2  A    between atoms: C_2  and  C_10 
REMARK    3  A    between atoms: N_6  and  C_22 
REMARK    4  A    between atoms: C_10  and  C_22 
REMARK    5  A    between atoms: C_12  and  C_13 
REMARK    6  A    between atoms: C_12  and  N_18 
REMARK    7  A    between atoms: C_13  and  C_14 
REMARK    8  A    between atoms: C_22  and  C_24 
ROOT
HETATM    1  C           1     -20.568  -7.366  -5.645  0.00  0.00     0.249 C 
HETATM    2  N           1     -20.957  -8.522  -5.023  0.00  0.00    -0.344 N 
HETATM    3  H           1     -21.571  -9.171  -5.499  0.00  0.00     0.163 HD
HETATM    4  O           1     -19.566  -7.349  -6.320  0.00  0.00    -0.271 OA
ENDROOT
BRANCH   2   5
HETATM    5  C           1     -20.487  -8.816  -3.683  0.00  0.00     0.189 C 
BRANCH   5   6
HETATM    6  C           1     -21.419  -9.828  -3.030  0.00  0.00     0.074 C 
BRANCH   6   7
HETATM    7  C           1     -21.991  -9.242  -1.776  0.00  0.00    -0.056 A 
HETATM    8  C           1     -22.859  -9.997  -0.987  0.00  0.00     0.007 A 
HETATM    9  C           1     -23.392  -9.451   0.181  0.00  0.00     0.001 A 
HETATM   10  C           1     -23.057  -8.151   0.560  0.00  0.00     0.000 A 
HETATM   11  C           1     -22.189  -7.397  -0.229  0.00  0.00     0.001 A 
HETATM   12  C           1     -21.656  -7.942  -1.398  0.00  0.00     0.007 A 
ENDBRANCH   6   7
ENDBRANCH   5   6
BRANCH   5  13
HETATM   13  C           1     -19.093  -9.390  -3.755  0.00  0.00     0.197 C 
HETATM   14  O           1     -18.239  -9.070  -2.900  0.00  0.00    -0.646 OA
HETATM   15  O           1     -18.792 -10.188  -4.670  0.00  0.00    -0.646 OA
ENDBRANCH   5  13
ENDBRANCH   2   5
BRANCH   1  16
HETATM   16  C           1     -21.393  -6.112  -5.488  0.00  0.00     0.275 C 
BRANCH  16  17
HETATM   17  C           1     -20.484  -4.892  -5.573  0.00  0.00     0.046 C 
BRANCH  17  18
HETATM   18  C           1     -20.871  -4.051  -6.782  0.00  0.00    -0.020 C 
HETATM   19  C           1     -19.802  -4.186  -7.858  0.00  0.00     0.009 C 
HETATM   20  C           1     -22.207  -4.536  -7.331  0.00  0.00     0.009 C 
ENDBRANCH  17  18
ENDBRANCH  16  17
BRANCH  16  21
HETATM   21  N           1     -22.081  -6.130  -4.156  0.00  0.00    -0.066 N 
HETATM   22  H           1     -21.633  -6.848  -3.544  0.00  0.00     0.275 HD
HETATM   23  H           1     -23.091  -6.367  -4.288  0.00  0.00     0.275 HD
HETATM   24  H           1     -21.999  -5.189  -3.709  0.00  0.00     0.275 HD
ENDBRANCH  16  21
ENDBRANCH   1  16
TORSDOF 8
ENDMDL
MODEL 6
REMARK VINA RESULT:      -6.6      4.907      7.117
REMARK  8 active torsions:
REMARK  status: ('A' for Active; 'I' for Inactive)
REMARK       I    between atoms: C_1  and  N_6 
REMARK    1  A    between atoms: C_1  and  C_12 
REMARK    2  A    between atoms: C_2  and  C_10 
REMARK    3  A    between atoms: N_6  and  C_22 
REMARK    4  A    between atoms: C_10  and  C_22 
REMARK    5  A    between atoms: C_12  and  C_13 
REMARK    6  A    between atoms: C_12  and  N_18 
REMARK    7  A    between atoms: C_13  and  C_14 
REMARK    8  A    between atoms: C_22  and  C_24 
ROOT
HETATM    1  C           1     -21.318  -7.493  -3.633  0.00  0.00     0.249 C 
HETATM    2  N           1     -21.996  -8.609  -4.044  0.00  0.00    -0.344 N 
HETATM    3  H           1     -22.952  -8.531  -4.366  0.00  0.00     0.163 HD
HETATM    4  O           1     -20.678  -6.847  -4.428  0.00  0.00    -0.271 OA
ENDROOT
BRANCH   2   5
HETATM    5  C           1     -21.342  -9.904  -4.017  0.00  0.00     0.189 C 
BRANCH   5   6
HETATM    6  C           1     -22.384 -10.994  -3.809  0.00  0.00     0.074 C 
BRANCH   6   7
HETATM    7  C           1     -22.461 -11.339  -2.354  0.00  0.00    -0.056 A 
HETATM    8  C           1     -21.311 -11.727  -1.668  0.00  0.00     0.007 A 
HETATM    9  C           1     -21.383 -12.049  -0.312  0.00  0.00     0.001 A 
HETATM   10  C           1     -22.605 -11.983   0.356  0.00  0.00     0.000 A 
HETATM   11  C           1     -23.755 -11.596  -0.330  0.00  0.00     0.001 A 
HETATM   12  C           1     -23.684 -11.274  -1.686  0.00  0.00     0.007 A 
ENDBRANCH   6   7
ENDBRANCH   5   6
BRANCH   5  13
HETATM   13  C           1     -20.630 -10.133  -5.329  0.00  0.00     0.197 C 
HETATM   14  O           1     -19.450  -9.749  -5.475  0.00  0.00    -0.646 OA
HETATM   15  O           1     -21.221 -10.708  -6.269  0.00  0.00    -0.646 OA
ENDBRANCH   5  13
ENDBRANCH   2   5
BRANCH   1  16
HETATM   16  C           1     -21.372  -7.069  -2.185  0.00  0.00     0.275 C 
BRANCH  16  17
HETATM   17  C           1     -21.892  -8.223  -1.337  0.00  0.00     0.046 C 
BRANCH  17  18
HETATM   18  C           1     -22.023  -7.771   0.112  0.00  0.00    -0.020 C 
HETATM   19  C           1     -23.447  -8.016   0.593  0.00  0.00     0.009 C 
HETATM   20  C           1     -21.052  -8.561   0.979  0.00  0.00     0.009 C 
ENDBRANCH  17  18
ENDBRANCH  16  17
BRANCH  16  21
HETATM   21  N           1     -22.291  -5.892  -2.044  0.00  0.00    -0.066 N 
HETATM   22  H           1     -23.283  -6.216  -2.111  0.00  0.00     0.275 HD
HETATM   23  H           1     -22.098  -5.205  -2.808  0.00  0.00     0.275 HD
HETATM   24  H           1     -22.134  -5.436  -1.117  0.00  0.00     0.275 HD
ENDBRANCH  16  21
ENDBRANCH   1  16
TORSDOF 8
ENDMDL
MODEL 7
REMARK VINA RESULT:      -6.6      3.962      6.752
REMARK  8 active torsions:
REMARK  status: ('A' for Active; 'I' for Inactive)
REMARK       I    between atoms: C_1  and  N_6 
REMARK    1  A    between atoms: C_1  and  C_12 
REMARK    2  A    between atoms: C_2  and  C_10 
REMARK    3  A    between atoms: N_6  and  C_22 
REMARK    4  A    between atoms: C_10  and  C_22 
REMARK    5  A    between atoms: C_12  and  C_13 
REMARK    6  A    between atoms: C_12  and  N_18 
REMARK    7  A    between atoms: C_13  and  C_14 
REMARK    8  A    between atoms: C_22  and  C_24 
ROOT
HETATM    1  C           1     -19.512  -9.558  -4.717  0.00  0.00     0.249 C 
HETATM    2  N           1     -19.796  -8.224  -4.592  0.00  0.00    -0.344 N 
HETATM    3  H           1     -19.077  -7.535  -4.770  0.00  0.00     0.163 HD
HETATM    4  O           1     -19.668 -10.112  -5.779  0.00  0.00    -0.271 OA
ENDROOT
BRANCH   2   5
HETATM    5  C           1     -21.128  -7.801  -4.204  0.00  0.00     0.189 C 
BRANCH   5   6
HETATM    6  C           1     -21.047  -6.986  -2.921  0.00  0.00     0.074 C 
BRANCH   6   7
HETATM    7  C           1     -21.760  -7.713  -1.822  0.00  0.00    -0.056 A 
HETATM    8  C           1     -22.321  -6.999  -0.764  0.00  0.00     0.007 A 
HETATM    9  C           1     -22.985  -7.676   0.260  0.00  0.00     0.001 A 
HETATM   10  C           1     -23.086  -9.067   0.225  0.00  0.00     0.000 A 
HETATM   11  C           1     -22.525  -9.780  -0.833  0.00  0.00     0.001 A 
HETATM   12  C           1     -21.861  -9.104  -1.858  0.00  0.00     0.007 A 
ENDBRANCH   6   7
ENDBRANCH   5   6
BRANCH   5  13
HETATM   13  C           1     -21.724  -6.954  -5.301  0.00  0.00     0.197 C 
HETATM   14  O           1     -21.265  -7.019  -6.462  0.00  0.00    -0.646 OA
HETATM   15  O           1     -22.679  -6.186  -5.049  0.00  0.00    -0.646 OA
ENDBRANCH   5  13
ENDBRANCH   2   5
BRANCH   1  16
HETATM   16  C           1     -19.002 -10.335  -3.528  0.00  0.00     0.275 C 
BRANCH  16  17
HETATM   17  C           1     -17.726  -9.686  -3.007  0.00  0.00     0.046 C 
BRANCH  17  18
HETATM   18  C           1     -16.521 -10.509  -3.444  0.00  0.00    -0.020 C 
HETATM   19  C           1     -15.782  -9.776  -4.555  0.00  0.00     0.009 C 
HETATM   20  C           1     -15.587 -10.710  -2.259  0.00  0.00     0.009 C 
ENDBRANCH  17  18
ENDBRANCH  16  17
BRANCH  16  21
HETATM   21  N           1     -18.711 -11.747  -3.942  0.00  0.00    -0.066 N 
HETATM   22  H           1     -17.963 -12.141  -3.329  0.00  0.00     0.275 HD
HETATM   23  H           1     -18.389 -11.759  -4.936  0.00  0.00     0.275 HD
HETATM   24  H           1     -19.578 -12.322  -3.849  0.00  0.00     0.275 HD
ENDBRANCH  16  21
ENDBRANCH   1  16
TORSDOF 8
ENDMDL
MODEL 8
REMARK VINA RESULT:      -6.5      1.746      6.864
REMARK  8 active torsions:
REMARK  status: ('A' for Active; 'I' for Inactive)
REMARK       I    between atoms: C_1  and  N_6 
REMARK    1  A    between atoms: C_1  and  C_12 
REMARK    2  A    between atoms: C_2  and  C_10 
REMARK    3  A    between atoms: N_6  and  C_22 
REMARK    4  A    between atoms: C_10  and  C_22 
REMARK    5  A    between atoms: C_12  and  C_13 
REMARK    6  A    between atoms: C_12  and  N_18 
REMARK    7  A    between atoms: C_13  and  C_14 
REMARK    8  A    between atoms: C_22  and  C_24 
ROOT
HETATM    1  C           1     -21.531  -6.203  -4.671  0.00  0.00     0.249 C 
HETATM    2  N           1     -22.201  -5.553  -5.673  0.00  0.00    -0.344 N 
HETATM    3  H           1     -23.123  -5.173  -5.501  0.00  0.00     0.163 HD
HETATM    4  O           1     -20.807  -5.584  -3.928  0.00  0.00    -0.271 OA
ENDROOT
BRANCH   2   5
HETATM    5  C           1     -21.587  -5.409  -6.979  0.00  0.00     0.189 C 
BRANCH   5   6
HETATM    6  C           1     -21.952  -4.051  -7.563  0.00  0.00     0.074 C 
BRANCH   6   7
HETATM    7  C           1     -22.188  -4.188  -9.036  0.00  0.00    -0.056 A 
HETATM    8  C           1     -23.469  -4.464  -9.513  0.00  0.00     0.007 A 
HETATM    9  C           1     -23.689  -4.592 -10.885  0.00  0.00     0.001 A 
HETATM   10  C           1     -22.628  -4.444 -11.778  0.00  0.00     0.000 A 
HETATM   11  C           1     -21.348  -4.168 -11.301  0.00  0.00     0.001 A 
HETATM   12  C           1     -21.127  -4.040  -9.929  0.00  0.00     0.007 A 
ENDBRANCH   6   7
ENDBRANCH   5   6
BRANCH   5  13
HETATM   13  C           1     -20.088  -5.512  -6.843  0.00  0.00     0.197 C 
HETATM   14  O           1     -19.420  -4.511  -6.505  0.00  0.00    -0.646 OA
HETATM   15  O           1     -19.513  -6.600  -7.069  0.00  0.00    -0.646 OA
ENDBRANCH   5  13
ENDBRANCH   2   5
BRANCH   1  16
HETATM   16  C           1     -21.698  -7.692  -4.495  0.00  0.00     0.275 C 
BRANCH  16  17
HETATM   17  C           1     -20.903  -8.153  -3.280  0.00  0.00     0.046 C 
BRANCH  17  18
HETATM   18  C           1     -21.860  -8.508  -2.150  0.00  0.00    -0.020 C 
HETATM   19  C           1     -21.391  -9.788  -1.471  0.00  0.00     0.009 C 
HETATM   20  C           1     -21.887  -7.374  -1.133  0.00  0.00     0.009 C 
ENDBRANCH  17  18
ENDBRANCH  16  17
BRANCH  16  21
HETATM   21  N           1     -21.195  -8.399  -5.718  0.00  0.00    -0.066 N 
HETATM   22  H           1     -21.218  -7.744  -6.532  0.00  0.00     0.275 HD
HETATM   23  H           1     -21.803  -9.225  -5.919  0.00  0.00     0.275 HD
HETATM   24  H           1     -20.214  -8.720  -5.556  0.00  0.00     0.275 HD
ENDBRANCH  16  21
ENDBRANCH   1  16
TORSDOF 8
ENDMDL
MODEL 9
REMARK VINA RESULT:      -6.4      5.118      7.676
REMARK  8 active torsions:
REMARK  status: ('A' for Active; 'I' for Inactive)
REMARK       I    between atoms: C_1  and  N_6 
REMARK    1  A    between atoms: C_1  and  C_12 
REMARK    2  A    between atoms: C_2  and  C_10 
REMARK    3  A    between atoms: N_6  and  C_22 
REMARK    4  A    between atoms: C_10  and  C_22 
REMARK    5  A    between atoms: C_12  and  C_13 
REMARK    6  A    between atoms: C_12  and  N_18 
REMARK    7  A    between atoms: C_13  and  C_14 
REMARK    8  A    between atoms: C_22  and  C_24 
ROOT
HETATM    1  C           1     -19.392 -10.477  -3.230  0.00  0.00     0.249 C 
HETATM    2  N           1     -19.657 -11.468  -2.323  0.00  0.00    -0.344 N 
HETATM    3  H           1     -19.965 -12.378  -2.643  0.00  0.00     0.163 HD
HETATM    4  O           1     -18.280 -10.357  -3.686  0.00  0.00    -0.271 OA
ENDROOT
BRANCH   2   5
HETATM    5  C           1     -19.497 -11.214  -0.904  0.00  0.00     0.189 C 
BRANCH   5   6
HETATM    6  C           1     -20.765 -11.626  -0.169  0.00  0.00     0.074 C 
BRANCH   6   7
HETATM    7  C           1     -21.566 -10.406   0.168  0.00  0.00    -0.056 A 
HETATM    8  C           1     -20.966  -9.343   0.843  0.00  0.00     0.007 A 
HETATM    9  C           1     -21.712  -8.206   1.157  0.00  0.00     0.001 A 
HETATM   10  C           1     -23.058  -8.134   0.796  0.00  0.00     0.000 A 
HETATM   11  C           1     -23.656  -9.197   0.122  0.00  0.00     0.001 A 
HETATM   12  C           1     -22.911 -10.334  -0.192  0.00  0.00     0.007 A 
ENDBRANCH   6   7
ENDBRANCH   5   6
BRANCH   5  13
HETATM   13  C           1     -18.329 -12.013  -0.380  0.00  0.00     0.197 C 
HETATM   14  O           1     -18.528 -13.002   0.357  0.00  0.00    -0.646 OA
HETATM   15  O           1     -17.161 -11.685  -0.684  0.00  0.00    -0.646 OA
ENDBRANCH   5  13
ENDBRANCH   2   5
BRANCH   1  16
HETATM   16  C           1     -20.490  -9.536  -3.660  0.00  0.00     0.275 C 
BRANCH  16  17
HETATM   17  C           1     -20.533  -8.341  -2.716  0.00  0.00     0.046 C 
BRANCH  17  18
HETATM   18  C           1     -21.622  -7.375  -3.165  0.00  0.00    -0.020 C 
HETATM   19  C           1     -21.837  -6.317  -2.092  0.00  0.00     0.009 C 
HETATM   20  C           1     -21.197  -6.702  -4.464  0.00  0.00     0.009 C 
ENDBRANCH  17  18
ENDBRANCH  16  17
BRANCH  16  21
HETATM   21  N           1     -21.807 -10.252  -3.618  0.00  0.00    -0.066 N 
HETATM   22  H           1     -22.276 -10.171  -4.549  0.00  0.00     0.275 HD
HETATM   23  H           1     -22.415  -9.822  -2.885  0.00  0.00     0.275 HD
HETATM   24  H           1     -21.648 -11.260  -3.392  0.00  0.00     0.275 HD
ENDBRANCH  16  21
ENDBRANCH   1  16
TORSDOF 8
ENDMDL
