MODEL 1
REMARK VINA RESULT:      -6.8      0.000      0.000
REMARK  8 active torsions:
REMARK  status: ('A' for Active; 'I' for Inactive)
REMARK    1  A    between atoms: N_7  and  C_9 
REMARK    2  A    between atoms: C_9  and  C_10 
REMARK       I    between atoms: C_10  and  N_11 
REMARK    3  A    between atoms: N_11  and  C_21 
REMARK    4  A    between atoms: C_14  and  C_21 
REMARK       I    between atoms: N_18  and  C_20 
REMARK    5  A    between atoms: N_18  and  C_24 
REMARK       I    between atoms: N_19  and  C_20 
REMARK    6  A    between atoms: C_21  and  C_22 
REMARK    7  A    between atoms: C_22  and  C_23 
REMARK    8  A    between atoms: C_23  and  C_24 
ROOT
HETATM    1  C           1     -23.009  -3.260  -9.974  0.00  0.00     0.185 C 
ENDROOT
BRANCH   1   2
HETATM    2  N           1     -22.060  -4.291  -9.598  0.00  0.00    -0.345 N 
HETATM    3  C           1     -21.525  -4.304  -8.339  0.00  0.00     0.248 C 
HETATM    4  O           1     -21.844  -3.457  -7.538  0.00  0.00    -0.271 OA
HETATM    5  H           1     -21.793  -5.000 -10.269  0.00  0.00     0.163 HD
BRANCH   3   6
HETATM    6  C           1     -20.538  -5.376  -7.949  0.00  0.00     0.270 C 
HETATM    7  C           1     -21.051  -6.118  -6.723  0.00  0.00     0.050 C 
BRANCH   6   8
HETATM    8  N           1     -19.214  -4.745  -7.634  0.00  0.00    -0.067 N 
HETATM    9  H           1     -19.177  -4.501  -6.619  0.00  0.00     0.275 HD
HETATM   10  H           1     -18.446  -5.417  -7.859  0.00  0.00     0.275 HD
HETATM   11  H           1     -19.098  -3.877  -8.205  0.00  0.00     0.275 HD
ENDBRANCH   6   8
ENDBRANCH   3   6
ENDBRANCH   1   2
BRANCH   1  12
HETATM   12  C           1     -24.394  -3.856 -10.045  0.00  0.00     0.196 C 
HETATM   13  O           1     -24.538  -5.097 -10.091  0.00  0.00    -0.646 OA
HETATM   14  O           1     -25.396  -3.109 -10.057  0.00  0.00    -0.646 OA
ENDBRANCH   1  12
BRANCH   1  15
HETATM   15  C           1     -22.630  -2.693 -11.334  0.00  0.00     0.038 C 
BRANCH  15  16
HETATM   16  C           1     -23.053  -3.665 -12.427  0.00  0.00     0.023 C 
BRANCH  16  17
HETATM   17  C           1     -23.991  -2.961 -13.399  0.00  0.00     0.138 C 
BRANCH  17  18
HETATM   18  N           1     -23.211  -2.381 -14.502  0.00  0.00    -0.227 N 
HETATM   19  H           1     -22.365  -2.883 -14.867  0.00  0.00     0.177 HD
HETATM   20  C           1     -23.560  -1.275 -15.011  0.00  0.00     0.665 C 
HETATM   21  N           1     -24.580  -0.669 -14.570  0.00  0.00    -0.235 N 
HETATM   22  N           1     -22.869  -0.762 -15.986  0.00  0.00    -0.235 N 
HETATM   23  H           1     -24.869   0.248 -14.993  0.00  0.00     0.174 HD
HETATM   24  H           1     -25.137  -1.083 -13.783  0.00  0.00     0.174 HD
HETATM   25  H           1     -23.157   0.150 -16.406  0.00  0.00     0.174 HD
HETATM   26  H           1     -22.027  -1.263 -16.349  0.00  0.00     0.174 HD
ENDBRANCH  17  18
ENDBRANCH  16  17
ENDBRANCH  15  16
ENDBRANCH   1  15
TORSDOF 8
ENDMDL
MODEL 2
REMARK VINA RESULT:      -6.4      2.421      3.576
REMARK  8 active torsions:
REMARK  status: ('A' for Active; 'I' for Inactive)
REMARK    1  A    between atoms: N_7  and  C_9 
REMARK    2  A    between atoms: C_9  and  C_10 
REMARK       I    between atoms: C_10  and  N_11 
REMARK    3  A    between atoms: N_11  and  C_21 
REMARK    4  A    between atoms: C_14  and  C_21 
REMARK       I    between atoms: N_18  and  C_20 
REMARK    5  A    between atoms: N_18  and  C_24 
REMARK       I    between atoms: N_19  and  C_20 
REMARK    6  A    between atoms: C_21  and  C_22 
REMARK    7  A    between atoms: C_22  and  C_23 
REMARK    8  A    between atoms: C_23  and  C_24 
ROOT
HETATM    1  C           1     -21.766  -4.731  -8.485  0.00  0.00     0.185 C 
ENDROOT
BRANCH   1   2
HETATM    2  N           1     -21.686  -4.804  -7.039  0.00  0.00    -0.345 N 
HETATM    3  C           1     -21.307  -5.971  -6.431  0.00  0.00     0.248 C 
HETATM    4  O           1     -21.038  -6.940  -7.100  0.00  0.00    -0.271 OA
HETATM    5  H           1     -21.912  -3.992  -6.478  0.00  0.00     0.163 HD
BRANCH   3   6
HETATM    6  C           1     -21.225  -6.046  -4.927  0.00  0.00     0.270 C 
HETATM    7  C           1     -20.428  -7.279  -4.523  0.00  0.00     0.050 C 
BRANCH   6   8
HETATM    8  N           1     -22.608  -6.134  -4.354  0.00  0.00    -0.067 N 
HETATM    9  H           1     -23.200  -5.372  -4.753  0.00  0.00     0.275 HD
HETATM   10  H           1     -23.025  -7.061  -4.594  0.00  0.00     0.275 HD
HETATM   11  H           1     -22.561  -6.031  -3.314  0.00  0.00     0.275 HD
ENDBRANCH   6   8
ENDBRANCH   3   6
ENDBRANCH   1   2
BRANCH   1  12
HETATM   12  C           1     -20.448  -4.243  -9.036  0.00  0.00     0.196 C 
HETATM   13  O           1     -20.203  -4.352 -10.257  0.00  0.00    -0.646 OA
HETATM   14  O           1     -19.603  -3.730  -8.272  0.00  0.00    -0.646 OA
ENDBRANCH   1  12
BRANCH   1  15
HETATM   15  C           1     -22.873  -3.765  -8.884  0.00  0.00     0.038 C 
BRANCH  15  16
HETATM   16  C           1     -23.988  -4.530  -9.583  0.00  0.00     0.023 C 
BRANCH  16  17
HETATM   17  C           1     -23.605  -4.769 -11.039  0.00  0.00     0.138 C 
BRANCH  17  18
HETATM   18  N           1     -24.032  -3.622 -11.853  0.00  0.00    -0.227 N 
HETATM   19  H           1     -25.015  -3.262 -11.779  0.00  0.00     0.177 HD
HETATM   20  C           1     -23.213  -3.068 -12.645  0.00  0.00     0.665 C 
HETATM   21  N           1     -22.028  -3.502 -12.735  0.00  0.00    -0.235 N 
HETATM   22  N           1     -23.591  -2.054 -13.365  0.00  0.00    -0.235 N 
HETATM   23  H           1     -21.348  -3.043 -13.391  0.00  0.00     0.174 HD
HETATM   24  H           1     -21.723  -4.321 -12.153  0.00  0.00     0.174 HD
HETATM   25  H           1     -22.915  -1.597 -14.018  0.00  0.00     0.174 HD
HETATM   26  H           1     -24.569  -1.696 -13.290  0.00  0.00     0.174 HD
ENDBRANCH  17  18
ENDBRANCH  16  17
ENDBRANCH  15  16
ENDBRANCH   1  15
TORSDOF 8
ENDMDL
MODEL 3
REMARK VINA RESULT:      -6.3      3.249      5.051
REMARK  8 active torsions:
REMARK  status: ('A' for Active; 'I' for Inactive)
REMARK    1  A    between atoms: N_7  and  C_9 
REMARK    2  A    between atoms: C_9  and  C_10 
REMARK       I    between atoms: C_10  and  N_11 
REMARK    3  A    between atoms: N_11  and  C_21 
REMARK    4  A    between atoms: C_14  and  C_21 
REMARK       I    between atoms: N_18  and  C_20 
REMARK    5  A    between atoms: N_18  and  C_24 
REMARK       I    between atoms: N_19  and  C_20 
REMARK    6  A    between atoms: C_21  and  C_22 
REMARK    7  A    between atoms: C_22  and  C_23 
REMARK    8  A    between atoms: C_23  and  C_24 
ROOT
HETATM    1  C           1     -21.368  -5.446  -6.678  0.00  0.00     0.185 C 
ENDROOT
BRANCH   1   2
HETATM    2  N           1     -21.113  -5.375  -5.252  0.00  0.00    -0.345 N 
HETATM    3  C           1     -21.534  -6.384  -4.429  0.00  0.00     0.248 C 
HETATM    4  O           1     -22.118  -7.336  -4.891  0.00  0.00    -0.271 OA
HETATM    5  H           1     -20.625  -4.577  -4.865  0.00  0.00     0.163 HD
BRANCH   3   6
HETATM    6  C           1     -21.269  -6.309  -2.946  0.00  0.00     0.270 C 
HETATM    7  C           1     -20.859  -7.683  -2.433  0.00  0.00     0.050 C 
BRANCH   6   8
HETATM    8  N           1     -22.514  -5.862  -2.238  0.00  0.00    -0.067 N 
HETATM    9  H           1     -22.298  -5.684  -1.232  0.00  0.00     0.275 HD
HETATM   10  H           1     -22.869  -4.984  -2.679  0.00  0.00     0.275 HD
HETATM   11  H           1     -23.242  -6.609  -2.311  0.00  0.00     0.275 HD
ENDBRANCH   6   8
ENDBRANCH   3   6
ENDBRANCH   1   2
BRANCH   1  12
HETATM   12  C           1     -20.077  -5.737  -7.404  0.00  0.00     0.196 C 
HETATM   13  O           1     -19.434  -6.777  -7.142  0.00  0.00    -0.646 OA
HETATM   14  O           1     -19.650  -4.938  -8.265  0.00  0.00    -0.646 OA
ENDBRANCH   1  12
BRANCH   1  15
HETATM   15  C           1     -21.933  -4.117  -7.159  0.00  0.00     0.038 C 
BRANCH  15  16
HETATM   16  C           1     -23.195  -4.367  -7.974  0.00  0.00     0.023 C 
BRANCH  16  17
HETATM   17  C           1     -23.116  -3.594  -9.285  0.00  0.00     0.138 C 
BRANCH  17  18
HETATM   18  N           1     -21.789  -3.786  -9.888  0.00  0.00    -0.227 N 
HETATM   19  H           1     -21.029  -4.265  -9.345  0.00  0.00     0.177 HD
HETATM   20  C           1     -21.564  -3.375 -11.065  0.00  0.00     0.665 C 
HETATM   21  N           1     -22.480  -2.798 -11.720  0.00  0.00    -0.235 N 
HETATM   22  N           1     -20.391  -3.545 -11.599  0.00  0.00    -0.235 N 
HETATM   23  H           1     -22.293  -2.456 -12.696  0.00  0.00     0.174 HD
HETATM   24  H           1     -23.427  -2.660 -11.289  0.00  0.00     0.174 HD
HETATM   25  H           1     -20.205  -3.205 -12.569  0.00  0.00     0.174 HD
HETATM   26  H           1     -19.635  -4.021 -11.057  0.00  0.00     0.174 HD
ENDBRANCH  17  18
ENDBRANCH  16  17
ENDBRANCH  15  16
ENDBRANCH   1  15
TORSDOF 8
ENDMDL
MODEL 4
REMARK VINA RESULT:      -6.2      1.962      6.892
REMARK  8 active torsions:
REMARK  status: ('A' for Active; 'I' for Inactive)
REMARK    1  A    between atoms: N_7  and  C_9 
REMARK    2  A    between atoms: C_9  and  C_10 
REMARK       I    between atoms: C_10  and  N_11 
REMARK    3  A    between atoms: N_11  and  C_21 
REMARK    4  A    between atoms: C_14  and  C_21 
REMARK       I    between atoms: N_18  and  C_20 
REMARK    5  A    between atoms: N_18  and  C_24 
REMARK       I    between atoms: N_19  and  C_20 
REMARK    6  A    between atoms: C_21  and  C_22 
REMARK    7  A    between atoms: C_22  and  C_23 
REMARK    8  A    between atoms: C_23  and  C_24 
ROOT
HETATM    1  C           1     -22.209  -4.285  -9.339  0.00  0.00     0.185 C 
ENDROOT
BRANCH   1   2
HETATM    2  N           1     -22.282  -3.357 -10.452  0.00  0.00    -0.345 N 
HETATM    3  C           1     -22.816  -3.760 -11.646  0.00  0.00     0.248 C 
HETATM    4  O           1     -23.229  -4.888 -11.773  0.00  0.00    -0.271 OA
HETATM    5  H           1     -21.936  -2.412 -10.345  0.00  0.00     0.163 HD
BRANCH   3   6
HETATM    6  C           1     -22.890  -2.795 -12.803  0.00  0.00     0.270 C 
HETATM    7  C           1     -24.349  -2.542 -13.161  0.00  0.00     0.050 C 
BRANCH   6   8
HETATM    8  N           1     -22.179  -3.378 -13.987  0.00  0.00    -0.067 N 
HETATM    9  H           1     -22.241  -2.716 -14.792  0.00  0.00     0.275 HD
HETATM   10  H           1     -21.176  -3.540 -13.745  0.00  0.00     0.275 HD
HETATM   11  H           1     -22.627  -4.287 -14.248  0.00  0.00     0.275 HD
ENDBRANCH   6   8
ENDBRANCH   3   6
ENDBRANCH   1   2
BRANCH   1  12
HETATM   12  C           1     -23.404  -4.082  -8.439  0.00  0.00     0.196 C 
HETATM   13  O           1     -23.346  -4.425  -7.238  0.00  0.00    -0.646 OA
HETATM   14  O           1     -24.450  -3.573  -8.894  0.00  0.00    -0.646 OA
ENDBRANCH   1  12
BRANCH   1  15
HETATM   15  C           1     -20.931  -4.033  -8.552  0.00  0.00     0.038 C 
BRANCH  15  16
HETATM   16  C           1     -20.157  -5.337  -8.410  0.00  0.00     0.023 C 
BRANCH  16  17
HETATM   17  C           1     -19.710  -5.508  -6.963  0.00  0.00     0.138 C 
BRANCH  17  18
HETATM   18  N           1     -20.873  -5.389  -6.072  0.00  0.00    -0.227 N 
HETATM   19  H           1     -21.236  -4.440  -5.807  0.00  0.00     0.177 HD
HETATM   20  C           1     -21.437  -6.431  -5.625  0.00  0.00     0.665 C 
HETATM   21  N           1     -20.999  -7.574  -5.944  0.00  0.00    -0.235 N 
HETATM   22  N           1     -22.466  -6.325  -4.837  0.00  0.00    -0.235 N 
HETATM   23  H           1     -21.467  -8.439  -5.573  0.00  0.00     0.174 HD
HETATM   24  H           1     -20.168  -7.660  -6.581  0.00  0.00     0.174 HD
HETATM   25  H           1     -22.931  -7.185  -4.468  0.00  0.00     0.174 HD
HETATM   26  H           1     -22.827  -5.381  -4.574  0.00  0.00     0.174 HD
ENDBRANCH  17  18
ENDBRANCH  16  17
ENDBRANCH  15  16
ENDBRANCH   1  15
TORSDOF 8
ENDMDL
MODEL 5
REMARK VINA RESULT:      -6.1      3.803      5.725
REMARK  8 active torsions:
REMARK  status: ('A' for Active; 'I' for Inactive)
REMARK    1  A    between atoms: N_7  and  C_9 
REMARK    2  A    between atoms: C_9  and  C_10 
REMARK       I    between atoms: C_10  and  N_11 
REMARK    3  A    between atoms: N_11  and  C_21 
REMARK    4  A    between atoms: C_14  and  C_21 
REMARK       I    between atoms: N_18  and  C_20 
REMARK    5  A    between atoms: N_18  and  C_24 
REMARK       I    between atoms: N_19  and  C_20 
REMARK    6  A    between atoms: C_21  and  C_22 
REMARK    7  A    between atoms: C_22  and  C_23 
REMARK    8  A    between atoms: C_23  and  C_24 
ROOT
HETATM    1  C           1     -21.574  -5.939  -6.128  0.00  0.00     0.185 C 
ENDROOT
BRANCH   1   2
HETATM    2  N           1     -21.561  -5.815  -4.683  0.00  0.00    -0.345 N 
HETATM    3  C           1     -21.332  -6.917  -3.903  0.00  0.00     0.248 C 
HETATM    4  O           1     -21.138  -7.992  -4.418  0.00  0.00    -0.271 OA
HETATM    5  H           1     -21.723  -4.915  -4.251  0.00  0.00     0.163 HD
BRANCH   3   6
HETATM    6  C           1     -21.319  -6.788  -2.400  0.00  0.00     0.270 C 
HETATM    7  C           1     -21.654  -8.134  -1.772  0.00  0.00     0.050 C 
BRANCH   6   8
HETATM    8  N           1     -22.338  -5.772  -1.977  0.00  0.00    -0.067 N 
HETATM    9  H           1     -22.150  -5.479  -0.992  0.00  0.00     0.275 HD
HETATM   10  H           1     -22.280  -4.939  -2.605  0.00  0.00     0.275 HD
HETATM   11  H           1     -23.294  -6.191  -2.040  0.00  0.00     0.275 HD
ENDBRANCH   6   8
ENDBRANCH   3   6
ENDBRANCH   1   2
BRANCH   1  12
HETATM   12  C           1     -20.206  -5.604  -6.671  0.00  0.00     0.196 C 
HETATM   13  O           1     -19.482  -4.778  -6.074  0.00  0.00    -0.646 OA
HETATM   14  O           1     -19.797  -6.152  -7.717  0.00  0.00    -0.646 OA
ENDBRANCH   1  12
BRANCH   1  15
HETATM   15  C           1     -22.601  -4.978  -6.709  0.00  0.00     0.038 C 
BRANCH  15  16
HETATM   16  C           1     -21.886  -3.864  -7.463  0.00  0.00     0.023 C 
BRANCH  16  17
HETATM   17  C           1     -22.513  -3.699  -8.842  0.00  0.00     0.138 C 
BRANCH  17  18
HETATM   18  N           1     -23.977  -3.667  -8.715  0.00  0.00    -0.227 N 
HETATM   19  H           1     -24.426  -3.808  -7.776  0.00  0.00     0.177 HD
HETATM   20  C           1     -24.697  -3.470  -9.738  0.00  0.00     0.665 C 
HETATM   21  N           1     -24.157  -3.300 -10.869  0.00  0.00    -0.235 N 
HETATM   22  N           1     -25.992  -3.442  -9.625  0.00  0.00    -0.235 N 
HETATM   23  H           1     -24.754  -3.137 -11.718  0.00  0.00     0.174 HD
HETATM   24  H           1     -23.111  -3.323 -10.960  0.00  0.00     0.174 HD
HETATM   25  H           1     -26.586  -3.280 -10.469  0.00  0.00     0.174 HD
HETATM   26  H           1     -26.438  -3.582  -8.691  0.00  0.00     0.174 HD
ENDBRANCH  17  18
ENDBRANCH  16  17
ENDBRANCH  15  16
ENDBRANCH   1  15
TORSDOF 8
ENDMDL
MODEL 6
REMARK VINA RESULT:      -6.0      1.900      6.374
REMARK  8 active torsions:
REMARK  status: ('A' for Active; 'I' for Inactive)
REMARK    1  A    between atoms: N_7  and  C_9 
REMARK    2  A    between atoms: C_9  and  C_10 
REMARK       I    between atoms: C_10  and  N_11 
REMARK    3  A    between atoms: N_11  and  C_21 
REMARK    4  A    between atoms: C_14  and  C_21 
REMARK       I    between atoms: N_18  and  C_20 
REMARK    5  A    between atoms: N_18  and  C_24 
REMARK       I    between atoms: N_19  and  C_20 
REMARK    6  A    between atoms: C_21  and  C_22 
REMARK    7  A    between atoms: C_22  and  C_23 
REMARK    8  A    between atoms: C_23  and  C_24 
ROOT
HETATM    1  C           1     -23.148  -4.321 -10.952  0.00  0.00     0.185 C 
ENDROOT
BRANCH   1   2
HETATM    2  N           1     -23.563  -4.008 -12.306  0.00  0.00    -0.345 N 
HETATM    3  C           1     -23.282  -2.781 -12.843  0.00  0.00     0.248 C 
HETATM    4  O           1     -22.686  -1.958 -12.190  0.00  0.00    -0.271 OA
HETATM    5  H           1     -24.063  -4.697 -12.853  0.00  0.00     0.163 HD
BRANCH   3   6
HETATM    6  C           1     -23.715  -2.456 -14.251  0.00  0.00     0.270 C 
HETATM    7  C           1     -22.561  -2.713 -15.210  0.00  0.00     0.050 C 
BRANCH   6   8
HETATM    8  N           1     -24.118  -1.013 -14.330  0.00  0.00    -0.067 N 
HETATM    9  H           1     -23.476  -0.439 -13.740  0.00  0.00     0.275 HD
HETATM   10  H           1     -24.063  -0.690 -15.321  0.00  0.00     0.275 HD
HETATM   11  H           1     -25.099  -0.907 -13.982  0.00  0.00     0.275 HD
ENDBRANCH   6   8
ENDBRANCH   3   6
ENDBRANCH   1   2
BRANCH   1  12
HETATM   12  C           1     -24.201  -3.844  -9.982  0.00  0.00     0.196 C 
HETATM   13  O           1     -25.274  -3.366 -10.411  0.00  0.00    -0.646 OA
HETATM   14  O           1     -24.001  -3.926  -8.751  0.00  0.00    -0.646 OA
ENDBRANCH   1  12
BRANCH   1  15
HETATM   15  C           1     -21.828  -3.624 -10.653  0.00  0.00     0.038 C 
BRANCH  15  16
HETATM   16  C           1     -20.734  -4.666 -10.466  0.00  0.00     0.023 C 
BRANCH  16  17
HETATM   17  C           1     -20.097  -4.495  -9.092  0.00  0.00     0.138 C 
BRANCH  17  18
HETATM   18  N           1     -21.151  -4.344  -8.078  0.00  0.00    -0.227 N 
HETATM   19  H           1     -21.757  -3.486  -8.075  0.00  0.00     0.177 HD
HETATM   20  C           1     -21.328  -5.248  -7.209  0.00  0.00     0.665 C 
HETATM   21  N           1     -20.598  -6.281  -7.214  0.00  0.00    -0.235 N 
HETATM   22  N           1     -22.260  -5.114  -6.313  0.00  0.00    -0.235 N 
HETATM   23  H           1     -20.744  -7.032  -6.493  0.00  0.00     0.174 HD
HETATM   24  H           1     -19.845  -6.390  -7.938  0.00  0.00     0.174 HD
HETATM   25  H           1     -22.405  -5.860  -5.596  0.00  0.00     0.174 HD
HETATM   26  H           1     -22.862  -4.260  -6.309  0.00  0.00     0.174 HD
ENDBRANCH  17  18
ENDBRANCH  16  17
ENDBRANCH  15  16
ENDBRANCH   1  15
TORSDOF 8
ENDMDL
MODEL 7
REMARK VINA RESULT:      -5.9      4.395      6.670
REMARK  8 active torsions:
REMARK  status: ('A' for Active; 'I' for Inactive)
REMARK    1  A    between atoms: N_7  and  C_9 
REMARK    2  A    between atoms: C_9  and  C_10 
REMARK       I    between atoms: C_10  and  N_11 
REMARK    3  A    between atoms: N_11  and  C_21 
REMARK    4  A    between atoms: C_14  and  C_21 
REMARK       I    between atoms: N_18  and  C_20 
REMARK    5  A    between atoms: N_18  and  C_24 
REMARK       I    between atoms: N_19  and  C_20 
REMARK    6  A    between atoms: C_21  and  C_22 
REMARK    7  A    between atoms: C_22  and  C_23 
REMARK    8  A    between atoms: C_23  and  C_24 
ROOT
HETATM    1  C           1     -20.736  -6.889  -5.385  0.00  0.00     0.185 C 
ENDROOT
BRANCH   1   2
HETATM    2  N           1     -21.017  -8.292  -5.621  0.00  0.00    -0.345 N 
HETATM    3  C           1     -20.458  -9.247  -4.816  0.00  0.00     0.248 C 
HETATM    4  O           1     -19.732  -8.922  -3.907  0.00  0.00    -0.271 OA
HETATM    5  H           1     -21.625  -8.565  -6.382  0.00  0.00     0.163 HD
BRANCH   3   6
HETATM    6  C           1     -20.751 -10.707  -5.061  0.00  0.00     0.270 C 
HETATM    7  C           1     -19.841 -11.562  -4.189  0.00  0.00     0.050 C 
BRANCH   6   8
HETATM    8  N           1     -20.506 -11.029  -6.506  0.00  0.00    -0.067 N 
HETATM    9  H           1     -20.830 -12.001  -6.706  0.00  0.00     0.275 HD
HETATM   10  H           1     -21.031 -10.355  -7.106  0.00  0.00     0.275 HD
HETATM   11  H           1     -19.482 -10.955  -6.709  0.00  0.00     0.275 HD
ENDBRANCH   6   8
ENDBRANCH   3   6
ENDBRANCH   1   2
BRANCH   1  12
HETATM   12  C           1     -21.915  -6.251  -4.691  0.00  0.00     0.196 C 
HETATM   13  O           1     -22.951  -5.986  -5.338  0.00  0.00    -0.646 OA
HETATM   14  O           1     -21.855  -5.988  -3.471  0.00  0.00    -0.646 OA
ENDBRANCH   1  12
BRANCH   1  15
HETATM   15  C           1     -20.490  -6.191  -6.715  0.00  0.00     0.038 C 
BRANCH  15  16
HETATM   16  C           1     -20.015  -4.766  -6.462  0.00  0.00     0.023 C 
BRANCH  16  17
HETATM   17  C           1     -20.607  -3.837  -7.514  0.00  0.00     0.138 C 
BRANCH  17  18
HETATM   18  N           1     -22.071  -3.816  -7.383  0.00  0.00    -0.227 N 
HETATM   19  H           1     -22.511  -3.649  -6.445  0.00  0.00     0.177 HD
HETATM   20  C           1     -22.800  -4.001  -8.402  0.00  0.00     0.665 C 
HETATM   21  N           1     -22.269  -4.203  -9.533  0.00  0.00    -0.235 N 
HETATM   22  N           1     -24.095  -3.982  -8.286  0.00  0.00    -0.235 N 
HETATM   23  H           1     -22.874  -4.356 -10.378  0.00  0.00     0.174 HD
HETATM   24  H           1     -21.223  -4.218  -9.626  0.00  0.00     0.174 HD
HETATM   25  H           1     -24.696  -4.134  -9.127  0.00  0.00     0.174 HD
HETATM   26  H           1     -24.533  -3.815  -7.352  0.00  0.00     0.174 HD
ENDBRANCH  17  18
ENDBRANCH  16  17
ENDBRANCH  15  16
ENDBRANCH   1  15
TORSDOF 8
ENDMDL
MODEL 8
REMARK VINA RESULT:      -5.8      1.729      2.177
REMARK  8 active torsions:
REMARK  status: ('A' for Active; 'I' for Inactive)
REMARK    1  A    between atoms: N_7  and  C_9 
REMARK    2  A    between atoms: C_9  and  C_10 
REMARK       I    between atoms: C_10  and  N_11 
REMARK    3  A    between atoms: N_11  and  C_21 
REMARK    4  A    between atoms: C_14  and  C_21 
REMARK       I    between atoms: N_18  and  C_20 
REMARK    5  A    between atoms: N_18  and  C_24 
REMARK       I    between atoms: N_19  and  C_20 
REMARK    6  A    between atoms: C_21  and  C_22 
REMARK    7  A    between atoms: C_22  and  C_23 
REMARK    8  A    between atoms: C_23  and  C_24 
ROOT
HETATM    1  C           1     -22.814  -3.720  -8.858  0.00  0.00     0.185 C 
ENDROOT
BRANCH   1   2
HETATM    2  N           1     -22.750  -4.717  -7.806  0.00  0.00    -0.345 N 
HETATM    3  C           1     -21.841  -4.584  -6.791  0.00  0.00     0.248 C 
HETATM    4  O           1     -21.093  -3.636  -6.770  0.00  0.00    -0.271 OA
HETATM    5  H           1     -23.376  -5.511  -7.823  0.00  0.00     0.163 HD
BRANCH   3   6
HETATM    6  C           1     -21.774  -5.621  -5.697  0.00  0.00     0.270 C 
HETATM    7  C           1     -20.938  -6.803  -6.168  0.00  0.00     0.050 C 
BRANCH   6   8
HETATM    8  N           1     -23.161  -6.089  -5.367  0.00  0.00    -0.067 N 
HETATM    9  H           1     -23.367  -5.888  -4.364  0.00  0.00     0.275 HD
HETATM   10  H           1     -23.850  -5.589  -5.972  0.00  0.00     0.275 HD
HETATM   11  H           1     -23.229  -7.119  -5.538  0.00  0.00     0.275 HD
ENDBRANCH   6   8
ENDBRANCH   3   6
ENDBRANCH   1   2
BRANCH   1  12
HETATM   12  C           1     -24.128  -3.848  -9.590  0.00  0.00     0.196 C 
HETATM   13  O           1     -24.717  -4.950  -9.628  0.00  0.00    -0.646 OA
HETATM   14  O           1     -24.627  -2.853 -10.158  0.00  0.00    -0.646 OA
ENDBRANCH   1  12
BRANCH   1  15
HETATM   15  C           1     -21.666  -3.938  -9.833  0.00  0.00     0.038 C 
BRANCH  15  16
HETATM   16  C           1     -22.206  -4.519 -11.133  0.00  0.00     0.023 C 
BRANCH  16  17
HETATM   17  C           1     -21.642  -3.738 -12.313  0.00  0.00     0.138 C 
BRANCH  17  18
HETATM   18  N           1     -22.497  -2.572 -12.584  0.00  0.00    -0.227 N 
HETATM   19  H           1     -22.444  -1.727 -11.963  0.00  0.00     0.177 HD
HETATM   20  C           1     -23.296  -2.588 -13.565  0.00  0.00     0.665 C 
HETATM   21  N           1     -23.360  -3.607 -14.314  0.00  0.00    -0.235 N 
HETATM   22  N           1     -24.052  -1.557 -13.805  0.00  0.00    -0.235 N 
HETATM   23  H           1     -24.024  -3.620 -15.128  0.00  0.00     0.174 HD
HETATM   24  H           1     -22.750  -4.439 -14.121  0.00  0.00     0.174 HD
HETATM   25  H           1     -24.712  -1.570 -14.614  0.00  0.00     0.174 HD
HETATM   26  H           1     -23.999  -0.717 -13.187  0.00  0.00     0.174 HD
ENDBRANCH  17  18
ENDBRANCH  16  17
ENDBRANCH  15  16
ENDBRANCH   1  15
TORSDOF 8
ENDMDL
MODEL 9
REMARK VINA RESULT:      -5.8      2.399      6.849
REMARK  8 active torsions:
REMARK  status: ('A' for Active; 'I' for Inactive)
REMARK    1  A    between atoms: N_7  and  C_9 
REMARK    2  A    between atoms: C_9  and  C_10 
REMARK       I    between atoms: C_10  and  N_11 
REMARK    3  A    between atoms: N_11  and  C_21 
REMARK    4  A    between atoms: C_14  and  C_21 
REMARK       I    between atoms: N_18  and  C_20 
REMARK    5  A    between atoms: N_18  and  C_24 
REMARK       I    between atoms: N_19  and  C_20 
REMARK    6  A    between atoms: C_21  and  C_22 
REMARK    7  A    between atoms: C_22  and  C_23 
REMARK    8  A    between atoms: C_23  and  C_24 
ROOT
HETATM    1  C           1     -21.846  -3.984 -10.568  0.00  0.00     0.185 C 
ENDROOT
BRANCH   1   2
HETATM    2  N           1     -22.187  -4.120 -11.971  0.00  0.00    -0.345 N 
HETATM    3  C           1     -22.672  -3.045 -12.665  0.00  0.00     0.248 C 
HETATM    4  O           1     -22.815  -1.981 -12.111  0.00  0.00    -0.271 OA
HETATM    5  H           1     -22.068  -5.011 -12.436  0.00  0.00     0.163 HD
BRANCH   3   6
HETATM    6  C           1     -23.027  -3.187 -14.125  0.00  0.00     0.270 C 
HETATM    7  C           1     -23.518  -1.849 -14.661  0.00  0.00     0.050 C 
BRANCH   6   8
HETATM    8  N           1     -24.109  -4.214 -14.278  0.00  0.00    -0.067 N 
HETATM    9  H           1     -24.442  -4.225 -15.268  0.00  0.00     0.275 HD
HETATM   10  H           1     -23.734  -5.155 -14.025  0.00  0.00     0.275 HD
HETATM   11  H           1     -24.907  -3.975 -13.645  0.00  0.00     0.275 HD
ENDBRANCH   6   8
ENDBRANCH   3   6
ENDBRANCH   1   2
BRANCH   1  12
HETATM   12  C           1     -20.421  -4.433 -10.353  0.00  0.00     0.196 C 
HETATM   13  O           1     -19.603  -4.386 -11.297  0.00  0.00    -0.646 OA
HETATM   14  O           1     -20.059  -4.851  -9.232  0.00  0.00    -0.646 OA
ENDBRANCH   1  12
BRANCH   1  15
HETATM   15  C           1     -22.782  -4.846  -9.732  0.00  0.00     0.038 C 
BRANCH  15  16
HETATM   16  C           1     -23.476  -3.980  -8.690  0.00  0.00     0.023 C 
BRANCH  16  17
HETATM   17  C           1     -23.149  -4.502  -7.296  0.00  0.00     0.138 C 
BRANCH  17  18
HETATM   18  N           1     -21.736  -4.235  -6.990  0.00  0.00    -0.227 N 
HETATM   19  H           1     -21.243  -3.429  -7.447  0.00  0.00     0.177 HD
HETATM   20  C           1     -21.114  -4.977  -6.174  0.00  0.00     0.665 C 
HETATM   21  N           1     -21.708  -5.949  -5.623  0.00  0.00    -0.235 N 
HETATM   22  N           1     -19.864  -4.741  -5.904  0.00  0.00    -0.235 N 
HETATM   23  H           1     -21.192  -6.566  -4.947  0.00  0.00     0.174 HD
HETATM   24  H           1     -22.717  -6.140  -5.842  0.00  0.00     0.174 HD
HETATM   25  H           1     -19.351  -5.354  -5.231  0.00  0.00     0.174 HD
HETATM   26  H           1     -19.374  -3.939  -6.359  0.00  0.00     0.174 HD
ENDBRANCH  17  18
ENDBRANCH  16  17
ENDBRANCH  15  16
ENDBRANCH   1  15
TORSDOF 8
ENDMDL
