MODEL 1
REMARK VINA RESULT:      -7.4      0.000      0.000
REMARK  11 active torsions:
REMARK  status: ('A' for Active; 'I' for Inactive)
REMARK    1  A    between atoms: C_2  and  C_9 
REMARK    2  A    between atoms: C_5  and  C_9 
REMARK    3  A    between atoms: C_5  and  C_28 
REMARK    4  A    between atoms: O_6  and  C_12 
REMARK    5  A    between atoms: O_6  and  P_7 
REMARK    6  A    between atoms: P_7  and  O_19 
REMARK    7  A    between atoms: C_8  and  C_24 
REMARK    8  A    between atoms: C_8  and  C_11 
REMARK    9  A    between atoms: C_8  and  N_16 
REMARK   10  A    between atoms: C_9  and  N_14 
REMARK   11  A    between atoms: C_11  and  O_15 
REMARK       I    between atoms: N_14  and  C_24 
ROOT
HETATM    1  C           1     -36.538  -0.523 -11.873  0.00  0.00     0.189 C 
ENDROOT
BRANCH   1   2
HETATM    2  C           1     -36.966   0.130 -10.581  0.00  0.00     0.197 C 
HETATM    3  O           1     -36.265  -0.001  -9.554  0.00  0.00    -0.646 OA
HETATM    4  O           1     -38.019   0.801 -10.539  0.00  0.00    -0.646 OA
ENDBRANCH   1   2
BRANCH   1   5
HETATM    5  C           1     -35.018  -0.577 -11.937  0.00  0.00     0.074 C 
BRANCH   5   6
HETATM    6  C           1     -34.559  -1.988 -11.743  0.00  0.00    -0.056 A 
HETATM    7  C           1     -34.040  -2.390 -10.512  0.00  0.00     0.010 A 
HETATM    8  C           1     -33.612  -3.706 -10.331  0.00  0.00     0.038 A 
HETATM    9  C           1     -33.704  -4.620 -11.381  0.00  0.00     0.081 A 
HETATM   10  C           1     -34.223  -4.217 -12.612  0.00  0.00     0.038 A 
HETATM   11  C           1     -34.651  -2.902 -12.792  0.00  0.00     0.010 A 
BRANCH   9  12
HETATM   12  O           1     -33.289  -5.897 -11.205  0.00  0.00    -0.247 OA
BRANCH  12  13
HETATM   13  P           1     -34.375  -6.985 -10.711  0.00  0.00     0.411 P 
HETATM   14  O           1     -33.674  -8.172 -10.172  0.00  0.00    -0.624 OA
HETATM   15  O           1     -35.224  -6.392  -9.653  0.00  0.00    -0.624 OA
BRANCH  13  16
HETATM   16  O           1     -35.300  -7.427 -11.959  0.00  0.00    -0.300 OA
HETATM   17  H           1     -34.753  -7.318 -12.718  0.00  0.00     0.223 HD
ENDBRANCH  13  16
ENDBRANCH  12  13
ENDBRANCH   9  12
ENDBRANCH   5   6
ENDBRANCH   1   5
BRANCH   1  18
HETATM   18  N           1     -37.042   0.247 -12.993  0.00  0.00    -0.344 N 
HETATM   19  C           1     -36.895  -0.225 -14.269  0.00  0.00     0.251 C 
HETATM   20  O           1     -37.751  -0.925 -14.757  0.00  0.00    -0.271 OA
HETATM   21  H           1     -37.502   1.133 -12.832  0.00  0.00     0.163 HD
BRANCH  19  22
HETATM   22  C           1     -35.665   0.128 -15.068  0.00  0.00     0.297 C 
BRANCH  22  23
HETATM   23  C           1     -35.899   1.435 -15.814  0.00  0.00     0.206 C 
BRANCH  23  24
HETATM   24  O           1     -37.276   1.639 -15.981  0.00  0.00    -0.398 OA
HETATM   25  H           1     -37.451   2.533 -15.740  0.00  0.00     0.209 HD
ENDBRANCH  23  24
ENDBRANCH  22  23
BRANCH  22  26
HETATM   26  N           1     -35.381  -0.966 -16.056  0.00  0.00    -0.064 N 
HETATM   27  H           1     -35.129  -0.545 -16.980  0.00  0.00     0.275 HD
HETATM   28  H           1     -34.585  -1.547 -15.711  0.00  0.00     0.275 HD
HETATM   29  H           1     -36.230  -1.565 -16.166  0.00  0.00     0.275 HD
ENDBRANCH  22  26
ENDBRANCH  19  22
ENDBRANCH   1  18
TORSDOF 11
ENDMDL
MODEL 2
REMARK VINA RESULT:      -6.9     13.086     16.105
REMARK  11 active torsions:
REMARK  status: ('A' for Active; 'I' for Inactive)
REMARK    1  A    between atoms: C_2  and  C_9 
REMARK    2  A    between atoms: C_5  and  C_9 
REMARK    3  A    between atoms: C_5  and  C_28 
REMARK    4  A    between atoms: O_6  and  C_12 
REMARK    5  A    between atoms: O_6  and  P_7 
REMARK    6  A    between atoms: P_7  and  O_19 
REMARK    7  A    between atoms: C_8  and  C_24 
REMARK    8  A    between atoms: C_8  and  C_11 
REMARK    9  A    between atoms: C_8  and  N_16 
REMARK   10  A    between atoms: C_9  and  N_14 
REMARK   11  A    between atoms: C_11  and  O_15 
REMARK       I    between atoms: N_14  and  C_24 
ROOT
HETATM    1  C           1     -21.524  -5.551  -6.663  0.00  0.00     0.189 C 
ENDROOT
BRANCH   1   2
HETATM    2  C           1     -20.028  -5.640  -6.488  0.00  0.00     0.197 C 
HETATM    3  O           1     -19.393  -4.664  -6.036  0.00  0.00    -0.646 OA
HETATM    4  O           1     -19.425  -6.691  -6.795  0.00  0.00    -0.646 OA
ENDBRANCH   1   2
BRANCH   1   5
HETATM    5  C           1     -21.899  -4.150  -7.129  0.00  0.00     0.074 C 
BRANCH   5   6
HETATM    6  C           1     -22.383  -4.206  -8.543  0.00  0.00    -0.056 A 
HETATM    7  C           1     -23.745  -4.090  -8.820  0.00  0.00     0.010 A 
HETATM    8  C           1     -24.197  -4.142 -10.139  0.00  0.00     0.038 A 
HETATM    9  C           1     -23.285  -4.310 -11.182  0.00  0.00     0.081 A 
HETATM   10  C           1     -21.923  -4.425 -10.905  0.00  0.00     0.038 A 
HETATM   11  C           1     -21.472  -4.373  -9.586  0.00  0.00     0.010 A 
BRANCH   9  12
HETATM   12  O           1     -23.723  -4.359 -12.463  0.00  0.00    -0.247 OA
BRANCH  12  13
HETATM   13  P           1     -23.973  -2.962 -13.234  0.00  0.00     0.411 P 
HETATM   14  O           1     -23.665  -3.131 -14.672  0.00  0.00    -0.624 OA
HETATM   15  O           1     -25.387  -2.556 -13.076  0.00  0.00    -0.624 OA
BRANCH  13  16
HETATM   16  O           1     -23.013  -1.824 -12.607  0.00  0.00    -0.300 OA
HETATM   17  H           1     -22.185  -2.252 -12.470  0.00  0.00     0.223 HD
ENDBRANCH  13  16
ENDBRANCH  12  13
ENDBRANCH   9  12
ENDBRANCH   5   6
ENDBRANCH   1   5
BRANCH   1  18
HETATM   18  N           1     -22.176  -5.830  -5.399  0.00  0.00    -0.344 N 
HETATM   19  C           1     -21.573  -6.648  -4.483  0.00  0.00     0.251 C 
HETATM   20  O           1     -20.832  -6.181  -3.651  0.00  0.00    -0.271 OA
HETATM   21  H           1     -23.078  -5.419  -5.193  0.00  0.00     0.163 HD
BRANCH  19  22
HETATM   22  C           1     -21.833  -8.134  -4.511  0.00  0.00     0.297 C 
BRANCH  22  23
HETATM   23  C           1     -21.400  -8.752  -3.189  0.00  0.00     0.206 C 
BRANCH  23  24
HETATM   24  O           1     -20.006  -8.909  -3.178  0.00  0.00    -0.398 OA
HETATM   25  H           1     -19.634  -8.044  -3.146  0.00  0.00     0.209 HD
ENDBRANCH  23  24
ENDBRANCH  22  23
BRANCH  22  26
HETATM   26  N           1     -21.051  -8.756  -5.632  0.00  0.00    -0.064 N 
HETATM   27  H           1     -20.303  -8.096  -5.943  0.00  0.00     0.275 HD
HETATM   28  H           1     -20.615  -9.645  -5.300  0.00  0.00     0.275 HD
HETATM   29  H           1     -21.692  -8.959  -6.432  0.00  0.00     0.275 HD
ENDBRANCH  22  26
ENDBRANCH  19  22
ENDBRANCH   1  18
TORSDOF 11
ENDMDL
MODEL 3
REMARK VINA RESULT:      -6.8     13.747     16.821
REMARK  11 active torsions:
REMARK  status: ('A' for Active; 'I' for Inactive)
REMARK    1  A    between atoms: C_2  and  C_9 
REMARK    2  A    between atoms: C_5  and  C_9 
REMARK    3  A    between atoms: C_5  and  C_28 
REMARK    4  A    between atoms: O_6  and  C_12 
REMARK    5  A    between atoms: O_6  and  P_7 
REMARK    6  A    between atoms: P_7  and  O_19 
REMARK    7  A    between atoms: C_8  and  C_24 
REMARK    8  A    between atoms: C_8  and  C_11 
REMARK    9  A    between atoms: C_8  and  N_16 
REMARK   10  A    between atoms: C_9  and  N_14 
REMARK   11  A    between atoms: C_11  and  O_15 
REMARK       I    between atoms: N_14  and  C_24 
ROOT
HETATM    1  C           1     -21.526  -6.980  -5.701  0.00  0.00     0.189 C 
ENDROOT
BRANCH   1   2
HETATM    2  C           1     -20.737  -8.262  -5.595  0.00  0.00     0.197 C 
HETATM    3  O           1     -19.496  -8.222  -5.453  0.00  0.00    -0.646 OA
HETATM    4  O           1     -21.325  -9.364  -5.649  0.00  0.00    -0.646 OA
ENDBRANCH   1   2
BRANCH   1   5
HETATM    5  C           1     -20.584  -5.828  -6.027  0.00  0.00     0.074 C 
BRANCH   5   6
HETATM    6  C           1     -21.060  -5.126  -7.260  0.00  0.00    -0.056 A 
HETATM    7  C           1     -22.320  -4.529  -7.280  0.00  0.00     0.010 A 
HETATM    8  C           1     -22.765  -3.874  -8.429  0.00  0.00     0.038 A 
HETATM    9  C           1     -21.947  -3.816  -9.558  0.00  0.00     0.081 A 
HETATM   10  C           1     -20.686  -4.412  -9.537  0.00  0.00     0.038 A 
HETATM   11  C           1     -20.243  -5.067  -8.389  0.00  0.00     0.010 A 
BRANCH   9  12
HETATM   12  O           1     -22.378  -3.180 -10.673  0.00  0.00    -0.247 OA
BRANCH  12  13
HETATM   13  P           1     -23.640  -3.805 -11.464  0.00  0.00     0.411 P 
HETATM   14  O           1     -23.521  -3.497 -12.906  0.00  0.00    -0.624 OA
HETATM   15  O           1     -23.666  -5.273 -11.273  0.00  0.00    -0.624 OA
BRANCH  13  16
HETATM   16  O           1     -25.006  -3.164 -10.887  0.00  0.00    -0.300 OA
HETATM   17  H           1     -25.508  -2.932 -11.650  0.00  0.00     0.223 HD
ENDBRANCH  13  16
ENDBRANCH  12  13
ENDBRANCH   9  12
ENDBRANCH   5   6
ENDBRANCH   1   5
BRANCH   1  18
HETATM   18  N           1     -22.192  -6.716  -4.441  0.00  0.00    -0.344 N 
HETATM   19  C           1     -21.474  -6.703  -3.276  0.00  0.00     0.251 C 
HETATM   20  O           1     -20.980  -5.673  -2.882  0.00  0.00    -0.271 OA
HETATM   21  H           1     -23.189  -6.543  -4.422  0.00  0.00     0.163 HD
BRANCH  19  22
HETATM   22  C           1     -21.297  -7.974  -2.483  0.00  0.00     0.297 C 
BRANCH  22  23
HETATM   23  C           1     -21.888  -7.793  -1.091  0.00  0.00     0.206 C 
BRANCH  23  24
HETATM   24  O           1     -22.733  -6.674  -1.083  0.00  0.00    -0.398 OA
HETATM   25  H           1     -22.882  -6.450  -0.180  0.00  0.00     0.209 HD
ENDBRANCH  23  24
ENDBRANCH  22  23
BRANCH  22  26
HETATM   26  N           1     -19.835  -8.291  -2.366  0.00  0.00    -0.064 N 
HETATM   27  H           1     -19.492  -8.692  -3.268  0.00  0.00     0.275 HD
HETATM   28  H           1     -19.306  -7.417  -2.151  0.00  0.00     0.275 HD
HETATM   29  H           1     -19.689  -8.985  -1.599  0.00  0.00     0.275 HD
ENDBRANCH  22  26
ENDBRANCH  19  22
ENDBRANCH   1  18
TORSDOF 11
ENDMDL
MODEL 4
REMARK VINA RESULT:      -6.2     15.301     18.002
REMARK  11 active torsions:
REMARK  status: ('A' for Active; 'I' for Inactive)
REMARK    1  A    between atoms: C_2  and  C_9 
REMARK    2  A    between atoms: C_5  and  C_9 
REMARK    3  A    between atoms: C_5  and  C_28 
REMARK    4  A    between atoms: O_6  and  C_12 
REMARK    5  A    between atoms: O_6  and  P_7 
REMARK    6  A    between atoms: P_7  and  O_19 
REMARK    7  A    between atoms: C_8  and  C_24 
REMARK    8  A    between atoms: C_8  and  C_11 
REMARK    9  A    between atoms: C_8  and  N_16 
REMARK   10  A    between atoms: C_9  and  N_14 
REMARK   11  A    between atoms: C_11  and  O_15 
REMARK       I    between atoms: N_14  and  C_24 
ROOT
HETATM    1  C           1     -20.965  -7.350  -3.747  0.00  0.00     0.189 C 
ENDROOT
BRANCH   1   2
HETATM    2  C           1     -21.521  -6.836  -2.442  0.00  0.00     0.197 C 
HETATM    3  O           1     -21.188  -7.377  -1.365  0.00  0.00    -0.646 OA
HETATM    4  O           1     -22.314  -5.870  -2.438  0.00  0.00    -0.646 OA
ENDBRANCH   1   2
BRANCH   1   5
HETATM    5  C           1     -22.032  -7.250  -4.830  0.00  0.00     0.074 C 
BRANCH   5   6
HETATM    6  C           1     -21.574  -6.306  -5.897  0.00  0.00    -0.056 A 
HETATM    7  C           1     -22.429  -5.304  -6.356  0.00  0.00     0.010 A 
HETATM    8  C           1     -22.002  -4.424  -7.351  0.00  0.00     0.038 A 
HETATM    9  C           1     -20.719  -4.546  -7.886  0.00  0.00     0.081 A 
HETATM   10  C           1     -19.864  -5.547  -7.426  0.00  0.00     0.038 A 
HETATM   11  C           1     -20.291  -6.427  -6.432  0.00  0.00     0.010 A 
BRANCH   9  12
HETATM   12  O           1     -20.305  -3.691  -8.851  0.00  0.00    -0.247 OA
BRANCH  12  13
HETATM   13  P           1     -20.588  -4.090 -10.391  0.00  0.00     0.411 P 
HETATM   14  O           1     -19.641  -5.148 -10.808  0.00  0.00    -0.624 OA
HETATM   15  O           1     -21.975  -4.587 -10.526  0.00  0.00    -0.624 OA
BRANCH  13  16
HETATM   16  O           1     -20.388  -2.789 -11.327  0.00  0.00    -0.300 OA
HETATM   17  H           1     -19.895  -2.183 -10.801  0.00  0.00     0.223 HD
ENDBRANCH  13  16
ENDBRANCH  12  13
ENDBRANCH   9  12
ENDBRANCH   5   6
ENDBRANCH   1   5
BRANCH   1  18
HETATM   18  N           1     -20.565  -8.735  -3.591  0.00  0.00    -0.344 N 
HETATM   19  C           1     -19.251  -9.089  -3.731  0.00  0.00     0.251 C 
HETATM   20  O           1     -18.518  -9.086  -2.771  0.00  0.00    -0.271 OA
HETATM   21  H           1     -21.259  -9.441  -3.377  0.00  0.00     0.163 HD
BRANCH  19  22
HETATM   22  C           1     -18.716  -9.484  -5.086  0.00  0.00     0.297 C 
BRANCH  22  23
HETATM   23  C           1     -19.473 -10.702  -5.598  0.00  0.00     0.206 C 
BRANCH  23  24
HETATM   24  O           1     -20.734 -10.307  -6.066  0.00  0.00    -0.398 OA
HETATM   25  H           1     -20.596  -9.570  -6.637  0.00  0.00     0.209 HD
ENDBRANCH  23  24
ENDBRANCH  22  23
BRANCH  22  26
HETATM   26  N           1     -17.257  -9.816  -4.968  0.00  0.00    -0.064 N 
HETATM   27  H           1     -16.782  -9.631  -5.881  0.00  0.00     0.275 HD
HETATM   28  H           1     -16.824  -9.224  -4.225  0.00  0.00     0.275 HD
HETATM   29  H           1     -17.149 -10.825  -4.718  0.00  0.00     0.275 HD
ENDBRANCH  22  26
ENDBRANCH  19  22
ENDBRANCH   1  18
TORSDOF 11
ENDMDL
MODEL 5
REMARK VINA RESULT:      -6.0     14.108     16.422
REMARK  11 active torsions:
REMARK  status: ('A' for Active; 'I' for Inactive)
REMARK    1  A    between atoms: C_2  and  C_9 
REMARK    2  A    between atoms: C_5  and  C_9 
REMARK    3  A    between atoms: C_5  and  C_28 
REMARK    4  A    between atoms: O_6  and  C_12 
REMARK    5  A    between atoms: O_6  and  P_7 
REMARK    6  A    between atoms: P_7  and  O_19 
REMARK    7  A    between atoms: C_8  and  C_24 
REMARK    8  A    between atoms: C_8  and  C_11 
REMARK    9  A    between atoms: C_8  and  N_16 
REMARK   10  A    between atoms: C_9  and  N_14 
REMARK   11  A    between atoms: C_11  and  O_15 
REMARK       I    between atoms: N_14  and  C_24 
ROOT
HETATM    1  C           1     -21.198  -5.717  -6.867  0.00  0.00     0.189 C 
ENDROOT
BRANCH   1   2
HETATM    2  C           1     -19.986  -4.984  -6.347  0.00  0.00     0.197 C 
HETATM    3  O           1     -18.911  -5.023  -6.983  0.00  0.00    -0.646 OA
HETATM    4  O           1     -20.057  -4.337  -5.280  0.00  0.00    -0.646 OA
ENDBRANCH   1   2
BRANCH   1   5
HETATM    5  C           1     -21.150  -7.169  -6.409  0.00  0.00     0.074 C 
BRANCH   5   6
HETATM    6  C           1     -21.202  -7.222  -4.915  0.00  0.00    -0.056 A 
HETATM    7  C           1     -22.160  -6.482  -4.223  0.00  0.00     0.010 A 
HETATM    8  C           1     -22.209  -6.532  -2.829  0.00  0.00     0.038 A 
HETATM    9  C           1     -21.299  -7.324  -2.128  0.00  0.00     0.081 A 
HETATM   10  C           1     -20.342  -8.065  -2.820  0.00  0.00     0.038 A 
HETATM   11  C           1     -20.293  -8.014  -4.213  0.00  0.00     0.010 A 
BRANCH   9  12
HETATM   12  O           1     -21.347  -7.373  -0.775  0.00  0.00    -0.247 OA
BRANCH  12  13
HETATM   13  P           1     -22.322  -8.463  -0.090  0.00  0.00     0.411 P 
HETATM   14  O           1     -22.688  -9.493  -1.087  0.00  0.00    -0.624 OA
HETATM   15  O           1     -21.625  -9.105   1.047  0.00  0.00    -0.624 OA
BRANCH  13  16
HETATM   16  O           1     -23.658  -7.729   0.443  0.00  0.00    -0.300 OA
HETATM   17  H           1     -24.109  -8.382   0.952  0.00  0.00     0.223 HD
ENDBRANCH  13  16
ENDBRANCH  12  13
ENDBRANCH   9  12
ENDBRANCH   5   6
ENDBRANCH   1   5
BRANCH   1  18
HETATM   18  N           1     -21.206  -5.669  -8.316  0.00  0.00    -0.344 N 
HETATM   19  C           1     -21.773  -4.604  -8.963  0.00  0.00     0.251 C 
HETATM   20  O           1     -21.104  -3.637  -9.237  0.00  0.00    -0.271 OA
HETATM   21  H           1     -20.792  -6.422  -8.850  0.00  0.00     0.163 HD
BRANCH  19  22
HETATM   22  C           1     -23.236  -4.638  -9.334  0.00  0.00     0.297 C 
BRANCH  22  23
HETATM   23  C           1     -23.423  -4.042 -10.722  0.00  0.00     0.206 C 
BRANCH  23  24
HETATM   24  O           1     -22.588  -4.704 -11.634  0.00  0.00    -0.398 OA
HETATM   25  H           1     -21.909  -4.097 -11.874  0.00  0.00     0.209 HD
ENDBRANCH  23  24
ENDBRANCH  22  23
BRANCH  22  26
HETATM   26  N           1     -24.022  -3.837  -8.337  0.00  0.00    -0.064 N 
HETATM   27  H           1     -24.950  -3.585  -8.746  0.00  0.00     0.275 HD
HETATM   28  H           1     -24.166  -4.405  -7.472  0.00  0.00     0.275 HD
HETATM   29  H           1     -23.497  -2.966  -8.100  0.00  0.00     0.275 HD
ENDBRANCH  22  26
ENDBRANCH  19  22
ENDBRANCH   1  18
TORSDOF 11
ENDMDL
MODEL 6
REMARK VINA RESULT:      -6.0     14.844     17.446
REMARK  11 active torsions:
REMARK  status: ('A' for Active; 'I' for Inactive)
REMARK    1  A    between atoms: C_2  and  C_9 
REMARK    2  A    between atoms: C_5  and  C_9 
REMARK    3  A    between atoms: C_5  and  C_28 
REMARK    4  A    between atoms: O_6  and  C_12 
REMARK    5  A    between atoms: O_6  and  P_7 
REMARK    6  A    between atoms: P_7  and  O_19 
REMARK    7  A    between atoms: C_8  and  C_24 
REMARK    8  A    between atoms: C_8  and  C_11 
REMARK    9  A    between atoms: C_8  and  N_16 
REMARK   10  A    between atoms: C_9  and  N_14 
REMARK   11  A    between atoms: C_11  and  O_15 
REMARK       I    between atoms: N_14  and  C_24 
ROOT
HETATM    1  C           1     -20.911  -6.830  -4.260  0.00  0.00     0.189 C 
ENDROOT
BRANCH   1   2
HETATM    2  C           1     -21.465  -6.605  -2.875  0.00  0.00     0.197 C 
HETATM    3  O           1     -22.535  -5.977  -2.725  0.00  0.00    -0.646 OA
HETATM    4  O           1     -20.856  -7.049  -1.878  0.00  0.00    -0.646 OA
ENDBRANCH   1   2
BRANCH   1   5
HETATM    5  C           1     -22.048  -6.803  -5.274  0.00  0.00     0.074 C 
BRANCH   5   6
HETATM    6  C           1     -21.700  -5.869  -6.390  0.00  0.00    -0.056 A 
HETATM    7  C           1     -20.490  -6.015  -7.070  0.00  0.00     0.010 A 
HETATM    8  C           1     -20.165  -5.145  -8.111  0.00  0.00     0.038 A 
HETATM    9  C           1     -21.051  -4.129  -8.473  0.00  0.00     0.081 A 
HETATM   10  C           1     -22.261  -3.984  -7.794  0.00  0.00     0.038 A 
HETATM   11  C           1     -22.585  -4.854  -6.753  0.00  0.00     0.010 A 
BRANCH   9  12
HETATM   12  O           1     -20.736  -3.285  -9.484  0.00  0.00    -0.247 OA
BRANCH  12  13
HETATM   13  P           1     -21.266  -3.645 -10.966  0.00  0.00     0.411 P 
HETATM   14  O           1     -22.168  -4.816 -10.896  0.00  0.00    -0.624 OA
HETATM   15  O           1     -22.002  -2.489 -11.524  0.00  0.00    -0.624 OA
BRANCH  13  16
HETATM   16  O           1     -20.007  -3.991 -11.917  0.00  0.00    -0.300 OA
HETATM   17  H           1     -19.572  -4.712 -11.493  0.00  0.00     0.223 HD
ENDBRANCH  13  16
ENDBRANCH  12  13
ENDBRANCH   9  12
ENDBRANCH   5   6
ENDBRANCH   1   5
BRANCH   1  18
HETATM   18  N           1     -20.248  -8.118  -4.313  0.00  0.00    -0.344 N 
HETATM   19  C           1     -20.947  -9.233  -4.688  0.00  0.00     0.251 C 
HETATM   20  O           1     -20.998  -9.552  -5.852  0.00  0.00    -0.271 OA
HETATM   21  H           1     -19.268  -8.193  -4.072  0.00  0.00     0.163 HD
BRANCH  19  22
HETATM   22  C           1     -21.656 -10.066  -3.647  0.00  0.00     0.297 C 
BRANCH  22  23
HETATM   23  C           1     -20.648 -10.564  -2.621  0.00  0.00     0.206 C 
BRANCH  23  24
HETATM   24  O           1     -20.698  -9.750  -1.480  0.00  0.00    -0.398 OA
HETATM   25  H           1     -19.808  -9.593  -1.217  0.00  0.00     0.209 HD
ENDBRANCH  23  24
ENDBRANCH  22  23
BRANCH  22  26
HETATM   26  N           1     -22.314 -11.240  -4.311  0.00  0.00    -0.064 N 
HETATM   27  H           1     -22.113 -12.108  -3.765  0.00  0.00     0.275 HD
HETATM   28  H           1     -23.346 -11.084  -4.349  0.00  0.00     0.275 HD
HETATM   29  H           1     -21.941 -11.345  -5.282  0.00  0.00     0.275 HD
ENDBRANCH  22  26
ENDBRANCH  19  22
ENDBRANCH   1  18
TORSDOF 11
ENDMDL
MODEL 7
REMARK VINA RESULT:      -5.8     16.250     18.530
REMARK  11 active torsions:
REMARK  status: ('A' for Active; 'I' for Inactive)
REMARK    1  A    between atoms: C_2  and  C_9 
REMARK    2  A    between atoms: C_5  and  C_9 
REMARK    3  A    between atoms: C_5  and  C_28 
REMARK    4  A    between atoms: O_6  and  C_12 
REMARK    5  A    between atoms: O_6  and  P_7 
REMARK    6  A    between atoms: P_7  and  O_19 
REMARK    7  A    between atoms: C_8  and  C_24 
REMARK    8  A    between atoms: C_8  and  C_11 
REMARK    9  A    between atoms: C_8  and  N_16 
REMARK   10  A    between atoms: C_9  and  N_14 
REMARK   11  A    between atoms: C_11  and  O_15 
REMARK       I    between atoms: N_14  and  C_24 
ROOT
HETATM    1  C           1     -21.353  -7.431  -1.626  0.00  0.00     0.189 C 
ENDROOT
BRANCH   1   2
HETATM    2  C           1     -22.013  -7.677  -0.292  0.00  0.00     0.197 C 
HETATM    3  O           1     -21.355  -8.170   0.650  0.00  0.00    -0.646 OA
HETATM    4  O           1     -23.218  -7.388  -0.128  0.00  0.00    -0.646 OA
ENDBRANCH   1   2
BRANCH   1   5
HETATM    5  C           1     -22.189  -6.447  -2.434  0.00  0.00     0.074 C 
BRANCH   5   6
HETATM    6  C           1     -21.632  -6.336  -3.818  0.00  0.00    -0.056 A 
HETATM    7  C           1     -20.652  -5.385  -4.101  0.00  0.00     0.010 A 
HETATM    8  C           1     -20.131  -5.280  -5.391  0.00  0.00     0.038 A 
HETATM    9  C           1     -20.591  -6.129  -6.399  0.00  0.00     0.081 A 
HETATM   10  C           1     -21.570  -7.081  -6.115  0.00  0.00     0.038 A 
HETATM   11  C           1     -22.090  -7.184  -4.826  0.00  0.00     0.010 A 
BRANCH   9  12
HETATM   12  O           1     -20.085  -6.028  -7.651  0.00  0.00    -0.247 OA
BRANCH  12  13
HETATM   13  P           1     -20.394  -4.682  -8.488  0.00  0.00     0.411 P 
HETATM   14  O           1     -19.448  -3.620  -8.081  0.00  0.00    -0.624 OA
HETATM   15  O           1     -20.239  -4.953  -9.935  0.00  0.00    -0.624 OA
BRANCH  13  16
HETATM   16  O           1     -21.906  -4.200  -8.190  0.00  0.00    -0.300 OA
HETATM   17  H           1     -22.405  -4.995  -8.113  0.00  0.00     0.223 HD
ENDBRANCH  13  16
ENDBRANCH  12  13
ENDBRANCH   9  12
ENDBRANCH   5   6
ENDBRANCH   1   5
BRANCH   1  18
HETATM   18  N           1     -21.245  -8.682  -2.351  0.00  0.00    -0.344 N 
HETATM   19  C           1     -20.047  -9.340  -2.407  0.00  0.00     0.251 C 
HETATM   20  O           1     -19.765 -10.156  -1.562  0.00  0.00    -0.271 OA
HETATM   21  H           1     -22.057  -9.069  -2.815  0.00  0.00     0.163 HD
BRANCH  19  22
HETATM   22  C           1     -19.076  -9.047  -3.525  0.00  0.00     0.297 C 
BRANCH  22  23
HETATM   23  C           1     -19.452  -9.864  -4.753  0.00  0.00     0.206 C 
BRANCH  23  24
HETATM   24  O           1     -20.599 -10.623  -4.479  0.00  0.00    -0.398 OA
HETATM   25  H           1     -20.400 -11.159  -3.730  0.00  0.00     0.209 HD
ENDBRANCH  23  24
ENDBRANCH  22  23
BRANCH  22  26
HETATM   26  N           1     -17.688  -9.413  -3.088  0.00  0.00    -0.064 N 
HETATM   27  H           1     -17.645 -10.437  -2.880  0.00  0.00     0.275 HD
HETATM   28  H           1     -17.012  -9.186  -3.851  0.00  0.00     0.275 HD
HETATM   29  H           1     -17.439  -8.872  -2.229  0.00  0.00     0.275 HD
ENDBRANCH  22  26
ENDBRANCH  19  22
ENDBRANCH   1  18
TORSDOF 11
ENDMDL
MODEL 8
REMARK VINA RESULT:      -5.6     17.951     20.559
REMARK  11 active torsions:
REMARK  status: ('A' for Active; 'I' for Inactive)
REMARK    1  A    between atoms: C_2  and  C_9 
REMARK    2  A    between atoms: C_5  and  C_9 
REMARK    3  A    between atoms: C_5  and  C_28 
REMARK    4  A    between atoms: O_6  and  C_12 
REMARK    5  A    between atoms: O_6  and  P_7 
REMARK    6  A    between atoms: P_7  and  O_19 
REMARK    7  A    between atoms: C_8  and  C_24 
REMARK    8  A    between atoms: C_8  and  C_11 
REMARK    9  A    between atoms: C_8  and  N_16 
REMARK   10  A    between atoms: C_9  and  N_14 
REMARK   11  A    between atoms: C_11  and  O_15 
REMARK       I    between atoms: N_14  and  C_24 
ROOT
HETATM    1  C           1     -21.064  -7.810  -2.432  0.00  0.00     0.189 C 
ENDROOT
BRANCH   1   2
HETATM    2  C           1     -21.502  -6.437  -2.880  0.00  0.00     0.197 C 
HETATM    3  O           1     -21.100  -5.977  -3.970  0.00  0.00    -0.646 OA
HETATM    4  O           1     -22.269  -5.761  -2.161  0.00  0.00    -0.646 OA
ENDBRANCH   1   2
BRANCH   1   5
HETATM    5  C           1     -20.987  -8.737  -3.638  0.00  0.00     0.074 C 
BRANCH   5   6
HETATM    6  C           1     -19.560  -9.111  -3.891  0.00  0.00    -0.056 A 
HETATM    7  C           1     -19.107  -9.286  -5.199  0.00  0.00     0.010 A 
HETATM    8  C           1     -17.777  -9.634  -5.436  0.00  0.00     0.038 A 
HETATM    9  C           1     -16.900  -9.806  -4.364  0.00  0.00     0.081 A 
HETATM   10  C           1     -17.353  -9.630  -3.057  0.00  0.00     0.038 A 
HETATM   11  C           1     -18.683  -9.282  -2.821  0.00  0.00     0.010 A 
BRANCH   9  12
HETATM   12  O           1     -15.608 -10.143  -4.594  0.00  0.00    -0.247 OA
BRANCH  12  13
HETATM   13  P           1     -15.297 -11.636  -5.126  0.00  0.00     0.411 P 
HETATM   14  O           1     -15.278 -11.639  -6.606  0.00  0.00    -0.624 OA
HETATM   15  O           1     -13.980 -12.079  -4.615  0.00  0.00    -0.624 OA
BRANCH  13  16
HETATM   16  O           1     -16.444 -12.644  -4.600  0.00  0.00    -0.300 OA
HETATM   17  H           1     -17.127 -12.596  -5.248  0.00  0.00     0.223 HD
ENDBRANCH  13  16
ENDBRANCH  12  13
ENDBRANCH   9  12
ENDBRANCH   5   6
ENDBRANCH   1   5
BRANCH   1  18
HETATM   18  N           1     -22.020  -8.336  -1.479  0.00  0.00    -0.344 N 
HETATM   19  C           1     -21.589  -8.839  -0.282  0.00  0.00     0.251 C 
HETATM   20  O           1     -21.489  -8.113   0.679  0.00  0.00    -0.271 OA
HETATM   21  H           1     -23.008  -8.331  -1.698  0.00  0.00     0.163 HD
BRANCH  19  22
HETATM   22  C           1     -21.236 -10.302  -0.160  0.00  0.00     0.297 C 
BRANCH  22  23
HETATM   23  C           1     -22.510 -11.136  -0.171  0.00  0.00     0.206 C 
BRANCH  23  24
HETATM   24  O           1     -23.623 -10.293  -0.045  0.00  0.00    -0.398 OA
HETATM   25  H           1     -24.311 -10.667  -0.569  0.00  0.00     0.209 HD
ENDBRANCH  23  24
ENDBRANCH  22  23
BRANCH  22  26
HETATM   26  N           1     -20.500 -10.532   1.127  0.00  0.00    -0.064 N 
HETATM   27  H           1     -20.017 -11.458   1.093  0.00  0.00     0.275 HD
HETATM   28  H           1     -19.792  -9.776   1.263  0.00  0.00     0.275 HD
HETATM   29  H           1     -21.178 -10.522   1.922  0.00  0.00     0.275 HD
ENDBRANCH  22  26
ENDBRANCH  19  22
ENDBRANCH   1  18
TORSDOF 11
ENDMDL
MODEL 9
REMARK VINA RESULT:      -5.5      2.093      4.288
REMARK  11 active torsions:
REMARK  status: ('A' for Active; 'I' for Inactive)
REMARK    1  A    between atoms: C_2  and  C_9 
REMARK    2  A    between atoms: C_5  and  C_9 
REMARK    3  A    between atoms: C_5  and  C_28 
REMARK    4  A    between atoms: O_6  and  C_12 
REMARK    5  A    between atoms: O_6  and  P_7 
REMARK    6  A    between atoms: P_7  and  O_19 
REMARK    7  A    between atoms: C_8  and  C_24 
REMARK    8  A    between atoms: C_8  and  C_11 
REMARK    9  A    between atoms: C_8  and  N_16 
REMARK   10  A    between atoms: C_9  and  N_14 
REMARK   11  A    between atoms: C_11  and  O_15 
REMARK       I    between atoms: N_14  and  C_24 
ROOT
HETATM    1  C           1     -36.202   0.186 -11.453  0.00  0.00     0.189 C 
ENDROOT
BRANCH   1   2
HETATM    2  C           1     -37.369  -0.385 -12.221  0.00  0.00     0.197 C 
HETATM    3  O           1     -38.073  -1.283 -11.710  0.00  0.00    -0.646 OA
HETATM    4  O           1     -37.632   0.040 -13.366  0.00  0.00    -0.646 OA
ENDBRANCH   1   2
BRANCH   1   5
HETATM    5  C           1     -34.910  -0.088 -12.212  0.00  0.00     0.074 C 
BRANCH   5   6
HETATM    6  C           1     -34.485  -1.503 -11.980  0.00  0.00    -0.056 A 
HETATM    7  C           1     -34.733  -2.474 -12.951  0.00  0.00     0.010 A 
HETATM    8  C           1     -34.336  -3.794 -12.736  0.00  0.00     0.038 A 
HETATM    9  C           1     -33.691  -4.143 -11.549  0.00  0.00     0.081 A 
HETATM   10  C           1     -33.443  -3.173 -10.579  0.00  0.00     0.038 A 
HETATM   11  C           1     -33.840  -1.853 -10.794  0.00  0.00     0.010 A 
BRANCH   9  12
HETATM   12  O           1     -33.306  -5.425 -11.340  0.00  0.00    -0.247 OA
BRANCH  12  13
HETATM   13  P           1     -34.436  -6.498 -10.918  0.00  0.00     0.411 P 
HETATM   14  O           1     -33.789  -7.687 -10.320  0.00  0.00    -0.624 OA
HETATM   15  O           1     -35.355  -5.888  -9.931  0.00  0.00    -0.624 OA
BRANCH  13  16
HETATM   16  O           1     -35.272  -6.941 -12.228  0.00  0.00    -0.300 OA
HETATM   17  H           1     -34.620  -7.114 -12.886  0.00  0.00     0.223 HD
ENDBRANCH  13  16
ENDBRANCH  12  13
ENDBRANCH   9  12
ENDBRANCH   5   6
ENDBRANCH   1   5
BRANCH   1  18
HETATM   18  N           1     -36.134  -0.435 -10.145  0.00  0.00    -0.344 N 
HETATM   19  C           1     -36.970  -0.020  -9.144  0.00  0.00     0.251 C 
HETATM   20  O           1     -38.049  -0.544  -9.002  0.00  0.00    -0.271 OA
HETATM   21  H           1     -35.467  -1.177  -9.971  0.00  0.00     0.163 HD
BRANCH  19  22
HETATM   22  C           1     -36.545   1.094  -8.219  0.00  0.00     0.297 C 
BRANCH  22  23
HETATM   23  C           1     -36.549   0.591  -6.781  0.00  0.00     0.206 C 
BRANCH  23  24
HETATM   24  O           1     -37.428   1.370  -6.015  0.00  0.00    -0.398 OA
HETATM   25  H           1     -37.419   1.014  -5.142  0.00  0.00     0.209 HD
ENDBRANCH  23  24
ENDBRANCH  22  23
BRANCH  22  26
HETATM   26  N           1     -37.503   2.242  -8.348  0.00  0.00    -0.064 N 
HETATM   27  H           1     -37.256   2.982  -7.652  0.00  0.00     0.275 HD
HETATM   28  H           1     -37.443   2.638  -9.312  0.00  0.00     0.275 HD
HETATM   29  H           1     -38.476   1.906  -8.168  0.00  0.00     0.275 HD
ENDBRANCH  22  26
ENDBRANCH  19  22
ENDBRANCH   1  18
TORSDOF 11
ENDMDL
