MODEL 1
REMARK VINA RESULT:      -6.0      0.000      0.000
REMARK  9 active torsions:
REMARK  status: ('A' for Active; 'I' for Inactive)
REMARK       I    between atoms: C_5  and  N_10 
REMARK    1  A    between atoms: C_5  and  C_6 
REMARK    2  A    between atoms: C_6  and  C_7 
REMARK    3  A    between atoms: C_6  and  N_8 
REMARK    4  A    between atoms: C_7  and  S_21 
REMARK    5  A    between atoms: N_10  and  C_15 
REMARK    6  A    between atoms: C_13  and  C_20 
REMARK    7  A    between atoms: C_13  and  C_14 
REMARK    8  A    between atoms: C_14  and  C_15 
REMARK    9  A    between atoms: C_15  and  C_16 
ROOT
HETATM    1  C           1     -21.706  -4.540  -7.973  0.00  0.00     0.249 C 
HETATM    2  O           1     -21.766  -3.414  -7.538  0.00  0.00    -0.271 OA
HETATM    3  N           1     -22.218  -4.824  -9.210  0.00  0.00    -0.345 N 
HETATM    4  H           1     -22.169  -5.767  -9.574  0.00  0.00     0.163 HD
ENDROOT
BRANCH   3   5
HETATM    5  C           1     -22.833  -3.774  -9.999  0.00  0.00     0.186 C 
BRANCH   5   6
HETATM    6  C           1     -22.518  -3.997 -11.472  0.00  0.00     0.046 C 
BRANCH   6   7
HETATM    7  C           1     -22.739  -2.701 -12.241  0.00  0.00     0.116 C 
BRANCH   7   8
HETATM    8  C           1     -23.777  -2.923 -13.314  0.00  0.00     0.172 C 
HETATM    9  O           1     -23.423  -3.067 -14.504  0.00  0.00    -0.648 OA
HETATM   10  O           1     -24.989  -2.964 -13.013  0.00  0.00    -0.648 OA
ENDBRANCH   7   8
ENDBRANCH   6   7
ENDBRANCH   5   6
BRANCH   5  11
HETATM   11  C           1     -24.328  -3.802  -9.794  0.00  0.00     0.196 C 
HETATM   12  O           1     -24.940  -2.749  -9.511  0.00  0.00    -0.646 OA
HETATM   13  O           1     -24.954  -4.878  -9.908  0.00  0.00    -0.646 OA
ENDBRANCH   5  11
ENDBRANCH   3   5
BRANCH   1  14
HETATM   14  C           1     -21.066  -5.633  -7.152  0.00  0.00     0.283 C 
BRANCH  14  15
HETATM   15  C           1     -20.809  -5.123  -5.740  0.00  0.00     0.113 C 
BRANCH  15  16
HETATM   16  S           1     -21.519  -6.284  -4.539  0.00  0.00    -0.180 SA
HETATM   17  H           1     -20.488  -6.242  -3.676  0.00  0.00     0.101 HD
ENDBRANCH  15  16
ENDBRANCH  14  15
BRANCH  14  18
HETATM   18  N           1     -19.766  -6.036  -7.782  0.00  0.00    -0.066 N 
HETATM   19  H           1     -19.299  -6.756  -7.185  0.00  0.00     0.275 HD
HETATM   20  H           1     -19.147  -5.198  -7.866  0.00  0.00     0.275 HD
HETATM   21  H           1     -19.947  -6.433  -8.731  0.00  0.00     0.275 HD
ENDBRANCH  14  18
ENDBRANCH   1  14
TORSDOF 9
ENDMDL
MODEL 2
REMARK VINA RESULT:      -5.5     10.211     11.640
REMARK  9 active torsions:
REMARK  status: ('A' for Active; 'I' for Inactive)
REMARK       I    between atoms: C_5  and  N_10 
REMARK    1  A    between atoms: C_5  and  C_6 
REMARK    2  A    between atoms: C_6  and  C_7 
REMARK    3  A    between atoms: C_6  and  N_8 
REMARK    4  A    between atoms: C_7  and  S_21 
REMARK    5  A    between atoms: N_10  and  C_15 
REMARK    6  A    between atoms: C_13  and  C_20 
REMARK    7  A    between atoms: C_13  and  C_14 
REMARK    8  A    between atoms: C_14  and  C_15 
REMARK    9  A    between atoms: C_15  and  C_16 
ROOT
HETATM    1  C           1     -26.992  -6.393 -18.192  0.00  0.00     0.249 C 
HETATM    2  O           1     -27.036  -6.017 -17.044  0.00  0.00    -0.271 OA
HETATM    3  N           1     -28.122  -6.870 -18.800  0.00  0.00    -0.345 N 
HETATM    4  H           1     -28.085  -7.185 -19.760  0.00  0.00     0.163 HD
ENDROOT
BRANCH   3   5
HETATM    5  C           1     -29.372  -6.925 -18.066  0.00  0.00     0.186 C 
BRANCH   5   6
HETATM    6  C           1     -30.032  -5.553 -18.085  0.00  0.00     0.046 C 
BRANCH   6   7
HETATM    7  C           1     -30.908  -5.393 -16.850  0.00  0.00     0.116 C 
BRANCH   7   8
HETATM    8  C           1     -31.775  -4.167 -17.004  0.00  0.00     0.172 C 
HETATM    9  O           1     -31.349  -3.175 -17.632  0.00  0.00    -0.648 OA
HETATM   10  O           1     -32.920  -4.144 -16.502  0.00  0.00    -0.648 OA
ENDBRANCH   7   8
ENDBRANCH   6   7
ENDBRANCH   5   6
BRANCH   5  11
HETATM   11  C           1     -30.289  -7.935 -18.711  0.00  0.00     0.196 C 
HETATM   12  O           1     -31.523  -7.734 -18.736  0.00  0.00    -0.646 OA
HETATM   13  O           1     -29.814  -8.972 -19.223  0.00  0.00    -0.646 OA
ENDBRANCH   5  11
ENDBRANCH   3   5
BRANCH   1  14
HETATM   14  C           1     -25.692  -6.335 -18.955  0.00  0.00     0.283 C 
BRANCH  14  15
HETATM   15  C           1     -25.918  -6.819 -20.381  0.00  0.00     0.113 C 
BRANCH  15  16
HETATM   16  S           1     -24.512  -7.843 -20.903  0.00  0.00    -0.180 SA
HETATM   17  H           1     -23.789  -6.835 -21.422  0.00  0.00     0.101 HD
ENDBRANCH  15  16
ENDBRANCH  14  15
BRANCH  14  18
HETATM   18  N           1     -24.678  -7.214 -18.284  0.00  0.00    -0.066 N 
HETATM   19  H           1     -25.167  -7.885 -17.649  0.00  0.00     0.275 HD
HETATM   20  H           1     -24.021  -6.622 -17.728  0.00  0.00     0.275 HD
HETATM   21  H           1     -24.143  -7.745 -19.007  0.00  0.00     0.275 HD
ENDBRANCH  14  18
ENDBRANCH   1  14
TORSDOF 9
ENDMDL
MODEL 3
REMARK VINA RESULT:      -5.4      2.313      3.532
REMARK  9 active torsions:
REMARK  status: ('A' for Active; 'I' for Inactive)
REMARK       I    between atoms: C_5  and  N_10 
REMARK    1  A    between atoms: C_5  and  C_6 
REMARK    2  A    between atoms: C_6  and  C_7 
REMARK    3  A    between atoms: C_6  and  N_8 
REMARK    4  A    between atoms: C_7  and  S_21 
REMARK    5  A    between atoms: N_10  and  C_15 
REMARK    6  A    between atoms: C_13  and  C_20 
REMARK    7  A    between atoms: C_13  and  C_14 
REMARK    8  A    between atoms: C_14  and  C_15 
REMARK    9  A    between atoms: C_15  and  C_16 
ROOT
HETATM    1  C           1     -21.271  -6.134  -6.251  0.00  0.00     0.249 C 
HETATM    2  O           1     -21.128  -7.137  -6.910  0.00  0.00    -0.271 OA
HETATM    3  N           1     -21.544  -4.943  -6.867  0.00  0.00    -0.345 N 
HETATM    4  H           1     -21.663  -4.103  -6.316  0.00  0.00     0.163 HD
ENDROOT
BRANCH   3   5
HETATM    5  C           1     -21.663  -4.884  -8.312  0.00  0.00     0.186 C 
BRANCH   5   6
HETATM    6  C           1     -22.752  -3.889  -8.691  0.00  0.00     0.046 C 
BRANCH   6   7
HETATM    7  C           1     -23.690  -4.526  -9.708  0.00  0.00     0.116 C 
BRANCH   7   8
HETATM    8  C           1     -24.534  -3.455 -10.354  0.00  0.00     0.172 C 
HETATM    9  O           1     -24.108  -2.845 -11.358  0.00  0.00    -0.648 OA
HETATM   10  O           1     -25.659  -3.178  -9.885  0.00  0.00    -0.648 OA
ENDBRANCH   7   8
ENDBRANCH   6   7
ENDBRANCH   5   6
BRANCH   5  11
HETATM   11  C           1     -20.348  -4.442  -8.906  0.00  0.00     0.196 C 
HETATM   12  O           1     -20.143  -4.564 -10.133  0.00  0.00    -0.646 OA
HETATM   13  O           1     -19.463  -3.952  -8.170  0.00  0.00    -0.646 OA
ENDBRANCH   5  11
ENDBRANCH   3   5
BRANCH   1  14
HETATM   14  C           1     -21.148  -6.195  -4.748  0.00  0.00     0.283 C 
BRANCH  14  15
HETATM   15  C           1     -20.474  -7.501  -4.346  0.00  0.00     0.113 C 
BRANCH  15  16
HETATM   16  S           1     -20.904  -7.900  -2.629  0.00  0.00    -0.180 SA
HETATM   17  H           1     -21.593  -9.020  -2.913  0.00  0.00     0.101 HD
ENDBRANCH  15  16
ENDBRANCH  14  15
BRANCH  14  18
HETATM   18  N           1     -22.513  -6.127  -4.132  0.00  0.00    -0.066 N 
HETATM   19  H           1     -23.014  -5.282  -4.489  0.00  0.00     0.275 HD
HETATM   20  H           1     -22.422  -6.066  -3.093  0.00  0.00     0.275 HD
HETATM   21  H           1     -23.053  -6.985  -4.384  0.00  0.00     0.275 HD
ENDBRANCH  14  18
ENDBRANCH   1  14
TORSDOF 9
ENDMDL
MODEL 4
REMARK VINA RESULT:      -5.1      8.504     10.430
REMARK  9 active torsions:
REMARK  status: ('A' for Active; 'I' for Inactive)
REMARK       I    between atoms: C_5  and  N_10 
REMARK    1  A    between atoms: C_5  and  C_6 
REMARK    2  A    between atoms: C_6  and  C_7 
REMARK    3  A    between atoms: C_6  and  N_8 
REMARK    4  A    between atoms: C_7  and  S_21 
REMARK    5  A    between atoms: N_10  and  C_15 
REMARK    6  A    between atoms: C_13  and  C_20 
REMARK    7  A    between atoms: C_13  and  C_14 
REMARK    8  A    between atoms: C_14  and  C_15 
REMARK    9  A    between atoms: C_15  and  C_16 
ROOT
HETATM    1  C           1     -26.944  -6.918 -16.253  0.00  0.00     0.249 C 
HETATM    2  O           1     -27.230  -7.567 -15.275  0.00  0.00    -0.271 OA
HETATM    3  N           1     -27.885  -6.690 -17.222  0.00  0.00    -0.345 N 
HETATM    4  H           1     -27.646  -6.147 -18.041  0.00  0.00     0.163 HD
ENDROOT
BRANCH   3   5
HETATM    5  C           1     -29.224  -7.227 -17.073  0.00  0.00     0.186 C 
BRANCH   5   6
HETATM    6  C           1     -30.154  -6.136 -16.559  0.00  0.00     0.046 C 
BRANCH   6   7
HETATM    7  C           1     -30.547  -5.220 -17.710  0.00  0.00     0.116 C 
BRANCH   7   8
HETATM    8  C           1     -31.457  -4.130 -17.198  0.00  0.00     0.172 C 
HETATM    9  O           1     -31.332  -2.962 -17.622  0.00  0.00    -0.648 OA
HETATM   10  O           1     -32.335  -4.396 -16.349  0.00  0.00    -0.648 OA
ENDBRANCH   7   8
ENDBRANCH   6   7
ENDBRANCH   5   6
BRANCH   5  11
HETATM   11  C           1     -29.718  -7.721 -18.411  0.00  0.00     0.196 C 
HETATM   12  O           1     -30.903  -8.099 -18.540  0.00  0.00    -0.646 OA
HETATM   13  O           1     -28.941  -7.753 -19.390  0.00  0.00    -0.646 OA
ENDBRANCH   5  11
ENDBRANCH   3   5
BRANCH   1  14
HETATM   14  C           1     -25.552  -6.359 -16.407  0.00  0.00     0.283 C 
BRANCH  14  15
HETATM   15  C           1     -24.666  -7.385 -17.100  0.00  0.00     0.113 C 
BRANCH  15  16
HETATM   16  S           1     -24.520  -6.969 -18.861  0.00  0.00    -0.180 SA
HETATM   17  H           1     -25.717  -6.364 -18.962  0.00  0.00     0.101 HD
ENDBRANCH  15  16
ENDBRANCH  14  15
BRANCH  14  18
HETATM   18  N           1     -24.987  -6.043 -15.054  0.00  0.00    -0.066 N 
HETATM   19  H           1     -25.341  -5.112 -14.739  0.00  0.00     0.275 HD
HETATM   20  H           1     -23.944  -6.018 -15.110  0.00  0.00     0.275 HD
HETATM   21  H           1     -25.282  -6.778 -14.373  0.00  0.00     0.275 HD
ENDBRANCH  14  18
ENDBRANCH   1  14
TORSDOF 9
ENDMDL
MODEL 5
REMARK VINA RESULT:      -5.0      5.054      8.130
REMARK  9 active torsions:
REMARK  status: ('A' for Active; 'I' for Inactive)
REMARK       I    between atoms: C_5  and  N_10 
REMARK    1  A    between atoms: C_5  and  C_6 
REMARK    2  A    between atoms: C_6  and  C_7 
REMARK    3  A    between atoms: C_6  and  N_8 
REMARK    4  A    between atoms: C_7  and  S_21 
REMARK    5  A    between atoms: N_10  and  C_15 
REMARK    6  A    between atoms: C_13  and  C_20 
REMARK    7  A    between atoms: C_13  and  C_14 
REMARK    8  A    between atoms: C_14  and  C_15 
REMARK    9  A    between atoms: C_15  and  C_16 
ROOT
HETATM    1  C           1     -20.760  -4.767  -6.122  0.00  0.00     0.249 C 
HETATM    2  O           1     -19.678  -4.538  -5.633  0.00  0.00    -0.271 OA
HETATM    3  N           1     -21.569  -5.726  -5.575  0.00  0.00    -0.345 N 
HETATM    4  H           1     -22.474  -5.918  -5.985  0.00  0.00     0.163 HD
ENDROOT
BRANCH   3   5
HETATM    5  C           1     -21.130  -6.468  -4.409  0.00  0.00     0.186 C 
BRANCH   5   6
HETATM    6  C           1     -22.299  -6.644  -3.450  0.00  0.00     0.046 C 
BRANCH   6   7
HETATM    7  C           1     -21.923  -6.089  -2.082  0.00  0.00     0.116 C 
BRANCH   7   8
HETATM    8  C           1     -22.040  -7.180  -1.046  0.00  0.00     0.172 C 
HETATM    9  O           1     -21.138  -8.038  -0.939  0.00  0.00    -0.648 OA
HETATM   10  O           1     -23.039  -7.226  -0.296  0.00  0.00    -0.648 OA
ENDBRANCH   7   8
ENDBRANCH   6   7
ENDBRANCH   5   6
BRANCH   5  11
HETATM   11  C           1     -20.621  -7.822  -4.837  0.00  0.00     0.196 C 
HETATM   12  O           1     -20.984  -8.309  -5.930  0.00  0.00    -0.646 OA
HETATM   13  O           1     -19.836  -8.457  -4.099  0.00  0.00    -0.646 OA
ENDBRANCH   5  11
ENDBRANCH   3   5
BRANCH   1  14
HETATM   14  C           1     -21.217  -3.996  -7.336  0.00  0.00     0.283 C 
BRANCH  14  15
HETATM   15  C           1     -22.667  -4.345  -7.643  0.00  0.00     0.113 C 
BRANCH  15  16
HETATM   16  S           1     -23.062  -3.847  -9.343  0.00  0.00    -0.180 SA
HETATM   17  H           1     -23.371  -5.081  -9.783  0.00  0.00     0.101 HD
ENDBRANCH  15  16
ENDBRANCH  14  15
BRANCH  14  18
HETATM   18  N           1     -20.357  -4.355  -8.510  0.00  0.00    -0.066 N 
HETATM   19  H           1     -20.438  -3.612  -9.241  0.00  0.00     0.275 HD
HETATM   20  H           1     -20.673  -5.269  -8.906  0.00  0.00     0.275 HD
HETATM   21  H           1     -19.361  -4.435  -8.202  0.00  0.00     0.275 HD
ENDBRANCH  14  18
ENDBRANCH   1  14
TORSDOF 9
ENDMDL
MODEL 6
REMARK VINA RESULT:      -4.8      6.086      8.382
REMARK  9 active torsions:
REMARK  status: ('A' for Active; 'I' for Inactive)
REMARK       I    between atoms: C_5  and  N_10 
REMARK    1  A    between atoms: C_5  and  C_6 
REMARK    2  A    between atoms: C_6  and  C_7 
REMARK    3  A    between atoms: C_6  and  N_8 
REMARK    4  A    between atoms: C_7  and  S_21 
REMARK    5  A    between atoms: N_10  and  C_15 
REMARK    6  A    between atoms: C_13  and  C_20 
REMARK    7  A    between atoms: C_13  and  C_14 
REMARK    8  A    between atoms: C_14  and  C_15 
REMARK    9  A    between atoms: C_15  and  C_16 
ROOT
HETATM    1  C           1     -20.648  -7.232  -5.700  0.00  0.00     0.249 C 
HETATM    2  O           1     -19.511  -7.605  -5.874  0.00  0.00    -0.271 OA
HETATM    3  N           1     -21.461  -7.901  -4.825  0.00  0.00    -0.345 N 
HETATM    4  H           1     -22.413  -7.589  -4.680  0.00  0.00     0.163 HD
ENDROOT
BRANCH   3   5
HETATM    5  C           1     -20.960  -9.058  -4.108  0.00  0.00     0.186 C 
BRANCH   5   6
HETATM    6  C           1     -21.465  -9.021  -2.672  0.00  0.00     0.046 C 
BRANCH   6   7
HETATM    7  C           1     -20.943  -7.769  -1.980  0.00  0.00     0.116 C 
BRANCH   7   8
HETATM    8  C           1     -22.085  -6.812  -1.741  0.00  0.00     0.172 C 
HETATM    9  O           1     -22.380  -5.963  -2.609  0.00  0.00    -0.648 OA
HETATM   10  O           1     -22.735  -6.868  -0.675  0.00  0.00    -0.648 OA
ENDBRANCH   7   8
ENDBRANCH   6   7
ENDBRANCH   5   6
BRANCH   5  11
HETATM   11  C           1     -21.446 -10.317  -4.782  0.00  0.00     0.196 C 
HETATM   12  O           1     -21.046 -10.606  -5.930  0.00  0.00    -0.646 OA
HETATM   13  O           1     -22.250 -11.071  -4.191  0.00  0.00    -0.646 OA
ENDBRANCH   5  11
ENDBRANCH   3   5
BRANCH   1  14
HETATM   14  C           1     -21.169  -6.029  -6.446  0.00  0.00     0.283 C 
BRANCH  14  15
HETATM   15  C           1     -20.097  -4.948  -6.481  0.00  0.00     0.113 C 
BRANCH  15  16
HETATM   16  S           1     -20.040  -4.204  -8.135  0.00  0.00    -0.180 SA
HETATM   17  H           1     -19.127  -3.263  -7.835  0.00  0.00     0.101 HD
ENDBRANCH  15  16
ENDBRANCH  14  15
BRANCH  14  18
HETATM   18  N           1     -22.390  -5.501  -5.753  0.00  0.00    -0.066 N 
HETATM   19  H           1     -22.683  -4.603  -6.202  0.00  0.00     0.275 HD
HETATM   20  H           1     -22.171  -5.332  -4.746  0.00  0.00     0.275 HD
HETATM   21  H           1     -23.164  -6.199  -5.830  0.00  0.00     0.275 HD
ENDBRANCH  14  18
ENDBRANCH   1  14
TORSDOF 9
ENDMDL
MODEL 7
REMARK VINA RESULT:      -4.7      9.607     10.743
REMARK  9 active torsions:
REMARK  status: ('A' for Active; 'I' for Inactive)
REMARK       I    between atoms: C_5  and  N_10 
REMARK    1  A    between atoms: C_5  and  C_6 
REMARK    2  A    between atoms: C_6  and  C_7 
REMARK    3  A    between atoms: C_6  and  N_8 
REMARK    4  A    between atoms: C_7  and  S_21 
REMARK    5  A    between atoms: N_10  and  C_15 
REMARK    6  A    between atoms: C_13  and  C_20 
REMARK    7  A    between atoms: C_13  and  C_14 
REMARK    8  A    between atoms: C_14  and  C_15 
REMARK    9  A    between atoms: C_15  and  C_16 
ROOT
HETATM    1  C           1     -26.284  -6.194 -17.906  0.00  0.00     0.249 C 
HETATM    2  O           1     -26.086  -5.550 -16.902  0.00  0.00    -0.271 OA
HETATM    3  N           1     -27.563  -6.517 -18.271  0.00  0.00    -0.345 N 
HETATM    4  H           1     -27.729  -7.056 -19.111  0.00  0.00     0.163 HD
ENDROOT
BRANCH   3   5
HETATM    5  C           1     -28.681  -6.087 -17.452  0.00  0.00     0.186 C 
BRANCH   5   6
HETATM    6  C           1     -29.987  -6.469 -18.137  0.00  0.00     0.046 C 
BRANCH   6   7
HETATM    7  C           1     -31.151  -6.215 -17.189  0.00  0.00     0.116 C 
BRANCH   7   8
HETATM    8  C           1     -31.420  -4.732 -17.109  0.00  0.00     0.172 C 
HETATM    9  O           1     -30.899  -3.957 -17.939  0.00  0.00    -0.648 OA
HETATM   10  O           1     -32.163  -4.278 -16.212  0.00  0.00    -0.648 OA
ENDBRANCH   7   8
ENDBRANCH   6   7
ENDBRANCH   5   6
BRANCH   5  11
HETATM   11  C           1     -28.604  -6.760 -16.104  0.00  0.00     0.196 C 
HETATM   12  O           1     -28.455  -7.999 -16.030  0.00  0.00    -0.646 OA
HETATM   13  O           1     -28.689  -6.077 -15.060  0.00  0.00    -0.646 OA
ENDBRANCH   5  11
ENDBRANCH   3   5
BRANCH   1  14
HETATM   14  C           1     -25.121  -6.640 -18.757  0.00  0.00     0.283 C 
BRANCH  14  15
HETATM   15  C           1     -25.644  -7.314 -20.019  0.00  0.00     0.113 C 
BRANCH  15  16
HETATM   16  S           1     -24.248  -7.966 -20.979  0.00  0.00    -0.180 SA
HETATM   17  H           1     -24.079  -6.872 -21.742  0.00  0.00     0.101 HD
ENDBRANCH  15  16
ENDBRANCH  14  15
BRANCH  14  18
HETATM   18  N           1     -24.279  -7.611 -17.984  0.00  0.00    -0.066 N 
HETATM   19  H           1     -24.367  -7.410 -16.962  0.00  0.00     0.275 HD
HETATM   20  H           1     -23.280  -7.512 -18.274  0.00  0.00     0.275 HD
HETATM   21  H           1     -24.603  -8.585 -18.177  0.00  0.00     0.275 HD
ENDBRANCH  14  18
ENDBRANCH   1  14
TORSDOF 9
ENDMDL
MODEL 8
REMARK VINA RESULT:      -4.6      5.394      8.049
REMARK  9 active torsions:
REMARK  status: ('A' for Active; 'I' for Inactive)
REMARK       I    between atoms: C_5  and  N_10 
REMARK    1  A    between atoms: C_5  and  C_6 
REMARK    2  A    between atoms: C_6  and  C_7 
REMARK    3  A    between atoms: C_6  and  N_8 
REMARK    4  A    between atoms: C_7  and  S_21 
REMARK    5  A    between atoms: N_10  and  C_15 
REMARK    6  A    between atoms: C_13  and  C_20 
REMARK    7  A    between atoms: C_13  and  C_14 
REMARK    8  A    between atoms: C_14  and  C_15 
REMARK    9  A    between atoms: C_15  and  C_16 
ROOT
HETATM    1  C           1     -19.594  -8.930  -4.892  0.00  0.00     0.249 C 
HETATM    2  O           1     -20.208  -9.741  -5.544  0.00  0.00    -0.271 OA
HETATM    3  N           1     -20.047  -7.642  -4.799  0.00  0.00    -0.345 N 
HETATM    4  H           1     -19.532  -6.962  -4.254  0.00  0.00     0.163 HD
ENDROOT
BRANCH   3   5
HETATM    5  C           1     -21.266  -7.250  -5.482  0.00  0.00     0.186 C 
BRANCH   5   6
HETATM    6  C           1     -22.231  -6.631  -4.481  0.00  0.00     0.046 C 
BRANCH   6   7
HETATM    7  C           1     -21.452  -6.100  -3.285  0.00  0.00     0.116 C 
BRANCH   7   8
HETATM    8  C           1     -21.785  -6.921  -2.063  0.00  0.00     0.172 C 
HETATM    9  O           1     -22.638  -6.509  -1.248  0.00  0.00    -0.648 OA
HETATM   10  O           1     -21.207  -8.012  -1.866  0.00  0.00    -0.648 OA
ENDBRANCH   7   8
ENDBRANCH   6   7
ENDBRANCH   5   6
BRANCH   5  11
HETATM   11  C           1     -20.937  -6.242  -6.556  0.00  0.00     0.196 C 
HETATM   12  O           1     -21.663  -5.236  -6.711  0.00  0.00    -0.646 OA
HETATM   13  O           1     -19.939  -6.413  -7.289  0.00  0.00    -0.646 OA
ENDBRANCH   5  11
ENDBRANCH   3   5
BRANCH   1  14
HETATM   14  C           1     -18.326  -9.337  -4.181  0.00  0.00     0.283 C 
BRANCH  14  15
HETATM   15  C           1     -17.823 -10.655  -4.755  0.00  0.00     0.113 C 
BRANCH  15  16
HETATM   16  S           1     -16.307 -10.361  -5.708  0.00  0.00    -0.180 SA
HETATM   17  H           1     -16.101  -9.108  -5.262  0.00  0.00     0.101 HD
ENDBRANCH  15  16
ENDBRANCH  14  15
BRANCH  14  18
HETATM   18  N           1     -18.606  -9.503  -2.717  0.00  0.00    -0.066 N 
HETATM   19  H           1     -19.328  -8.808  -2.420  0.00  0.00     0.275 HD
HETATM   20  H           1     -17.726  -9.346  -2.176  0.00  0.00     0.275 HD
HETATM   21  H           1     -18.958 -10.471  -2.537  0.00  0.00     0.275 HD
ENDBRANCH  14  18
ENDBRANCH   1  14
TORSDOF 9
ENDMDL
MODEL 9
REMARK VINA RESULT:      -4.5      4.955      7.921
REMARK  9 active torsions:
REMARK  status: ('A' for Active; 'I' for Inactive)
REMARK       I    between atoms: C_5  and  N_10 
REMARK    1  A    between atoms: C_5  and  C_6 
REMARK    2  A    between atoms: C_6  and  C_7 
REMARK    3  A    between atoms: C_6  and  N_8 
REMARK    4  A    between atoms: C_7  and  S_21 
REMARK    5  A    between atoms: N_10  and  C_15 
REMARK    6  A    between atoms: C_13  and  C_20 
REMARK    7  A    between atoms: C_13  and  C_14 
REMARK    8  A    between atoms: C_14  and  C_15 
REMARK    9  A    between atoms: C_15  and  C_16 
ROOT
HETATM    1  C           1     -21.369  -5.994  -5.381  0.00  0.00     0.249 C 
HETATM    2  O           1     -22.567  -5.844  -5.442  0.00  0.00    -0.271 OA
HETATM    3  N           1     -20.832  -6.860  -4.468  0.00  0.00    -0.345 N 
HETATM    4  H           1     -19.830  -6.985  -4.417  0.00  0.00     0.163 HD
ENDROOT
BRANCH   3   5
HETATM    5  C           1     -21.701  -7.600  -3.572  0.00  0.00     0.186 C 
BRANCH   5   6
HETATM    6  C           1     -21.200  -9.033  -3.450  0.00  0.00     0.046 C 
BRANCH   6   7
HETATM    7  C           1     -21.121  -9.664  -4.834  0.00  0.00     0.116 C 
BRANCH   7   8
HETATM    8  C           1     -19.674  -9.856  -5.217  0.00  0.00     0.172 C 
HETATM    9  O           1     -19.053  -8.936  -5.790  0.00  0.00    -0.648 OA
HETATM   10  O           1     -19.098 -10.936  -4.962  0.00  0.00    -0.648 OA
ENDBRANCH   7   8
ENDBRANCH   6   7
ENDBRANCH   5   6
BRANCH   5  11
HETATM   11  C           1     -21.694  -6.946  -2.213  0.00  0.00     0.196 C 
HETATM   12  O           1     -21.092  -7.489  -1.260  0.00  0.00    -0.646 OA
HETATM   13  O           1     -22.291  -5.861  -2.039  0.00  0.00    -0.646 OA
ENDBRANCH   5  11
ENDBRANCH   3   5
BRANCH   1  14
HETATM   14  C           1     -20.466  -5.224  -6.313  0.00  0.00     0.283 C 
BRANCH  14  15
HETATM   15  C           1     -21.302  -4.284  -7.171  0.00  0.00     0.113 C 
BRANCH  15  16
HETATM   16  S           1     -20.660  -4.281  -8.869  0.00  0.00    -0.180 SA
HETATM   17  H           1     -21.223  -5.448  -9.234  0.00  0.00     0.101 HD
ENDBRANCH  15  16
ENDBRANCH  14  15
BRANCH  14  18
HETATM   18  N           1     -19.726  -6.183  -7.198  0.00  0.00    -0.066 N 
HETATM   19  H           1     -19.152  -6.828  -6.609  0.00  0.00     0.275 HD
HETATM   20  H           1     -19.101  -5.650  -7.843  0.00  0.00     0.275 HD
HETATM   21  H           1     -20.411  -6.740  -7.758  0.00  0.00     0.275 HD
ENDBRANCH  14  18
ENDBRANCH   1  14
TORSDOF 9
ENDMDL
