MODEL 1
REMARK VINA RESULT:      -7.2      0.000      0.000
REMARK  12 active torsions:
REMARK  status: ('A' for Active; 'I' for Inactive)
REMARK    1  A    between atoms: C_1  and  C_22 
REMARK    2  A    between atoms: C_1  and  C_10 
REMARK    3  A    between atoms: C_2  and  O_25 
REMARK    4  A    between atoms: N_3  and  C_10 
REMARK    5  A    between atoms: C_6  and  C_20 
REMARK    6  A    between atoms: C_6  and  C_24 
REMARK    7  A    between atoms: C_8  and  C_24 
REMARK    8  A    between atoms: C_9  and  C_13 
REMARK    9  A    between atoms: C_9  and  C_23 
REMARK   10  A    between atoms: C_9  and  N_18 
REMARK       I    between atoms: C_13  and  N_15 
REMARK   11  A    between atoms: N_15  and  C_24 
REMARK   12  A    between atoms: C_22  and  C_23 
ROOT
HETATM    1  C           1     -21.304  -6.271  -4.459  0.00  0.00     0.249 C 
HETATM    2  O           1     -21.592  -7.303  -5.017  0.00  0.00    -0.271 OA
HETATM    3  N           1     -21.005  -5.156  -5.193  0.00  0.00    -0.344 N 
HETATM    4  H           1     -20.764  -4.292  -4.725  0.00  0.00     0.163 HD
ENDROOT
BRANCH   1   5
HETATM    5  C           1     -21.275  -6.213  -2.951  0.00  0.00     0.274 C 
BRANCH   5   6
HETATM    6  C           1     -20.851  -7.567  -2.398  0.00  0.00     0.042 C 
BRANCH   6   7
HETATM    7  C           1     -21.854  -8.024  -1.347  0.00  0.00     0.004 C 
BRANCH   7   8
HETATM    8  C           1     -21.138  -8.237  -0.019  0.00  0.00     0.027 C 
BRANCH   8   9
HETATM    9  C           1     -22.137  -8.115   1.122  0.00  0.00     0.229 C 
BRANCH   9  10
HETATM   10  N           1     -23.522  -7.967   0.562  0.00  0.00    -0.079 N 
HETATM   11  H           1     -23.465  -7.787  -0.466  0.00  0.00     0.274 HD
HETATM   12  H           1     -24.060  -8.846   0.732  0.00  0.00     0.274 HD
HETATM   13  H           1     -24.003  -7.166   1.030  0.00  0.00     0.274 HD
ENDBRANCH   9  10
ENDBRANCH   8   9
ENDBRANCH   7   8
ENDBRANCH   6   7
ENDBRANCH   5   6
BRANCH   5  14
HETATM   14  N           1     -22.642  -5.870  -2.438  0.00  0.00    -0.067 N 
HETATM   15  H           1     -22.742  -6.213  -1.455  0.00  0.00     0.275 HD
HETATM   16  H           1     -22.771  -4.833  -2.458  0.00  0.00     0.275 HD
HETATM   17  H           1     -23.364  -6.324  -3.040  0.00  0.00     0.275 HD
ENDBRANCH   5  14
ENDBRANCH   1   5
BRANCH   3  18
HETATM   18  C           1     -21.034  -5.211  -6.641  0.00  0.00     0.189 C 
BRANCH  18  19
HETATM   19  C           1     -21.514  -3.874  -7.191  0.00  0.00     0.074 C 
BRANCH  19  20
HETATM   20  C           1     -22.078  -4.073  -8.563  0.00  0.00    -0.056 A 
HETATM   21  C           1     -21.234  -4.053  -9.674  0.00  0.00     0.010 A 
HETATM   22  C           1     -21.760  -4.238 -10.953  0.00  0.00     0.037 A 
HETATM   23  C           1     -23.130  -4.444 -11.120  0.00  0.00     0.065 A 
HETATM   24  C           1     -23.972  -4.466 -10.010  0.00  0.00     0.037 A 
HETATM   25  C           1     -23.447  -4.280  -8.730  0.00  0.00     0.010 A 
BRANCH  23  26
HETATM   26  O           1     -23.640  -4.625 -12.362  0.00  0.00    -0.361 OA
HETATM   27  H           1     -23.026  -5.190 -12.860  0.00  0.00     0.217 HD
ENDBRANCH  23  26
ENDBRANCH  19  20
ENDBRANCH  18  19
BRANCH  18  28
HETATM   28  C           1     -19.646  -5.499  -7.160  0.00  0.00     0.197 C 
HETATM   29  O           1     -18.822  -4.568  -7.291  0.00  0.00    -0.646 OA
HETATM   30  O           1     -19.320  -6.669  -7.459  0.00  0.00    -0.646 OA
ENDBRANCH  18  28
ENDBRANCH   3  18
TORSDOF 12
ENDMDL
MODEL 2
REMARK VINA RESULT:      -7.0      1.518      2.051
REMARK  12 active torsions:
REMARK  status: ('A' for Active; 'I' for Inactive)
REMARK    1  A    between atoms: C_1  and  C_22 
REMARK    2  A    between atoms: C_1  and  C_10 
REMARK    3  A    between atoms: C_2  and  O_25 
REMARK    4  A    between atoms: N_3  and  C_10 
REMARK    5  A    between atoms: C_6  and  C_20 
REMARK    6  A    between atoms: C_6  and  C_24 
REMARK    7  A    between atoms: C_8  and  C_24 
REMARK    8  A    between atoms: C_9  and  C_13 
REMARK    9  A    between atoms: C_9  and  C_23 
REMARK   10  A    between atoms: C_9  and  N_18 
REMARK       I    between atoms: C_13  and  N_15 
REMARK   11  A    between atoms: N_15  and  C_24 
REMARK   12  A    between atoms: C_22  and  C_23 
ROOT
HETATM    1  C           1     -21.105  -6.683  -6.064  0.00  0.00     0.249 C 
HETATM    2  O           1     -20.170  -6.993  -6.763  0.00  0.00    -0.271 OA
HETATM    3  N           1     -21.934  -5.663  -6.444  0.00  0.00    -0.344 N 
HETATM    4  H           1     -22.718  -5.403  -5.858  0.00  0.00     0.163 HD
ENDROOT
BRANCH   1   5
HETATM    5  C           1     -21.359  -7.421  -4.772  0.00  0.00     0.274 C 
BRANCH   5   6
HETATM    6  C           1     -21.744  -6.425  -3.686  0.00  0.00     0.042 C 
BRANCH   6   7
HETATM    7  C           1     -21.226  -6.913  -2.341  0.00  0.00     0.004 C 
BRANCH   7   8
HETATM    8  C           1     -22.328  -6.794  -1.296  0.00  0.00     0.027 C 
BRANCH   8   9
HETATM    9  C           1     -22.330  -8.034  -0.414  0.00  0.00     0.229 C 
BRANCH   9  10
HETATM   10  N           1     -23.457  -7.946   0.573  0.00  0.00    -0.079 N 
HETATM   11  H           1     -24.165  -7.256   0.232  0.00  0.00     0.274 HD
HETATM   12  H           1     -23.905  -8.883   0.673  0.00  0.00     0.274 HD
HETATM   13  H           1     -23.085  -7.634   1.499  0.00  0.00     0.274 HD
ENDBRANCH   9  10
ENDBRANCH   8   9
ENDBRANCH   7   8
ENDBRANCH   6   7
ENDBRANCH   5   6
BRANCH   5  14
HETATM   14  N           1     -20.114  -8.150  -4.361  0.00  0.00    -0.067 N 
HETATM   15  H           1     -19.720  -8.659  -5.185  0.00  0.00     0.275 HD
HETATM   16  H           1     -19.410  -7.463  -4.008  0.00  0.00     0.275 HD
HETATM   17  H           1     -20.344  -8.835  -3.607  0.00  0.00     0.275 HD
ENDBRANCH   5  14
ENDBRANCH   1   5
BRANCH   3  18
HETATM   18  C           1     -21.691  -4.954  -7.685  0.00  0.00     0.189 C 
BRANCH  18  19
HETATM   19  C           1     -23.015  -4.459  -8.254  0.00  0.00     0.074 C 
BRANCH  19  20
HETATM   20  C           1     -22.835  -4.107  -9.698  0.00  0.00    -0.056 A 
HETATM   21  C           1     -21.683  -4.505 -10.376  0.00  0.00     0.010 A 
HETATM   22  C           1     -21.517  -4.176 -11.721  0.00  0.00     0.037 A 
HETATM   23  C           1     -22.503  -3.450 -12.389  0.00  0.00     0.065 A 
HETATM   24  C           1     -23.655  -3.054 -11.711  0.00  0.00     0.037 A 
HETATM   25  C           1     -23.822  -3.382 -10.365  0.00  0.00     0.010 A 
BRANCH  23  26
HETATM   26  O           1     -22.342  -3.132 -13.696  0.00  0.00    -0.361 OA
HETATM   27  H           1     -21.989  -2.228 -13.743  0.00  0.00     0.217 HD
ENDBRANCH  23  26
ENDBRANCH  19  20
ENDBRANCH  18  19
BRANCH  18  28
HETATM   28  C           1     -20.785  -3.776  -7.421  0.00  0.00     0.197 C 
HETATM   29  O           1     -21.236  -2.756  -6.856  0.00  0.00    -0.646 OA
HETATM   30  O           1     -19.584  -3.821  -7.766  0.00  0.00    -0.646 OA
ENDBRANCH  18  28
ENDBRANCH   3  18
TORSDOF 12
ENDMDL
MODEL 3
REMARK VINA RESULT:      -6.9      3.062      8.467
REMARK  12 active torsions:
REMARK  status: ('A' for Active; 'I' for Inactive)
REMARK    1  A    between atoms: C_1  and  C_22 
REMARK    2  A    between atoms: C_1  and  C_10 
REMARK    3  A    between atoms: C_2  and  O_25 
REMARK    4  A    between atoms: N_3  and  C_10 
REMARK    5  A    between atoms: C_6  and  C_20 
REMARK    6  A    between atoms: C_6  and  C_24 
REMARK    7  A    between atoms: C_8  and  C_24 
REMARK    8  A    between atoms: C_9  and  C_13 
REMARK    9  A    between atoms: C_9  and  C_23 
REMARK   10  A    between atoms: C_9  and  N_18 
REMARK       I    between atoms: C_13  and  N_15 
REMARK   11  A    between atoms: N_15  and  C_24 
REMARK   12  A    between atoms: C_22  and  C_23 
ROOT
HETATM    1  C           1     -23.002  -4.599  -7.687  0.00  0.00     0.249 C 
HETATM    2  O           1     -23.736  -4.431  -6.742  0.00  0.00    -0.271 OA
HETATM    3  N           1     -21.729  -5.060  -7.492  0.00  0.00    -0.344 N 
HETATM    4  H           1     -21.115  -5.201  -8.284  0.00  0.00     0.163 HD
ENDROOT
BRANCH   1   5
HETATM    5  C           1     -23.490  -4.299  -9.084  0.00  0.00     0.274 C 
BRANCH   5   6
HETATM    6  C           1     -22.332  -3.778  -9.926  0.00  0.00     0.042 C 
BRANCH   6   7
HETATM    7  C           1     -22.602  -4.067 -11.396  0.00  0.00     0.004 C 
BRANCH   7   8
HETATM    8  C           1     -22.336  -2.813 -12.218  0.00  0.00     0.027 C 
BRANCH   8   9
HETATM    9  C           1     -23.293  -2.768 -13.401  0.00  0.00     0.229 C 
BRANCH   9  10
HETATM   10  N           1     -22.530  -3.005 -14.671  0.00  0.00    -0.079 N 
HETATM   11  H           1     -23.090  -3.620 -15.305  0.00  0.00     0.274 HD
HETATM   12  H           1     -22.350  -2.091 -15.143  0.00  0.00     0.274 HD
HETATM   13  H           1     -21.621  -3.469 -14.449  0.00  0.00     0.274 HD
ENDBRANCH   9  10
ENDBRANCH   8   9
ENDBRANCH   7   8
ENDBRANCH   6   7
ENDBRANCH   5   6
BRANCH   5  14
HETATM   14  N           1     -24.569  -3.258  -9.022  0.00  0.00    -0.067 N 
HETATM   15  H           1     -24.517  -2.652  -9.873  0.00  0.00     0.275 HD
HETATM   16  H           1     -25.502  -3.728  -8.986  0.00  0.00     0.275 HD
HETATM   17  H           1     -24.439  -2.671  -8.168  0.00  0.00     0.275 HD
ENDBRANCH   5  14
ENDBRANCH   1   5
BRANCH   3  18
HETATM   18  C           1     -21.260  -5.349  -6.151  0.00  0.00     0.189 C 
BRANCH  18  19
HETATM   19  C           1     -21.171  -6.858  -5.959  0.00  0.00     0.074 C 
BRANCH  19  20
HETATM   20  C           1     -21.130  -7.172  -4.495  0.00  0.00    -0.056 A 
HETATM   21  C           1     -21.908  -6.436  -3.601  0.00  0.00     0.010 A 
HETATM   22  C           1     -21.869  -6.730  -2.238  0.00  0.00     0.037 A 
HETATM   23  C           1     -21.051  -7.759  -1.769  0.00  0.00     0.065 A 
HETATM   24  C           1     -20.275  -8.494  -2.663  0.00  0.00     0.037 A 
HETATM   25  C           1     -20.313  -8.202  -4.027  0.00  0.00     0.010 A 
BRANCH  23  26
HETATM   26  O           1     -21.014  -8.044  -0.445  0.00  0.00    -0.361 OA
HETATM   27  H           1     -21.387  -7.287   0.036  0.00  0.00     0.217 HD
ENDBRANCH  23  26
ENDBRANCH  19  20
ENDBRANCH  18  19
BRANCH  18  28
HETATM   28  C           1     -19.895  -4.736  -5.954  0.00  0.00     0.197 C 
HETATM   29  O           1     -19.573  -4.271  -4.839  0.00  0.00    -0.646 OA
HETATM   30  O           1     -19.085  -4.693  -6.906  0.00  0.00    -0.646 OA
ENDBRANCH  18  28
ENDBRANCH   3  18
TORSDOF 12
ENDMDL
MODEL 4
REMARK VINA RESULT:      -6.9      1.290      1.778
REMARK  12 active torsions:
REMARK  status: ('A' for Active; 'I' for Inactive)
REMARK    1  A    between atoms: C_1  and  C_22 
REMARK    2  A    between atoms: C_1  and  C_10 
REMARK    3  A    between atoms: C_2  and  O_25 
REMARK    4  A    between atoms: N_3  and  C_10 
REMARK    5  A    between atoms: C_6  and  C_20 
REMARK    6  A    between atoms: C_6  and  C_24 
REMARK    7  A    between atoms: C_8  and  C_24 
REMARK    8  A    between atoms: C_9  and  C_13 
REMARK    9  A    between atoms: C_9  and  C_23 
REMARK   10  A    between atoms: C_9  and  N_18 
REMARK       I    between atoms: C_13  and  N_15 
REMARK   11  A    between atoms: N_15  and  C_24 
REMARK   12  A    between atoms: C_22  and  C_23 
ROOT
HETATM    1  C           1     -21.517  -6.875  -5.627  0.00  0.00     0.249 C 
HETATM    2  O           1     -20.961  -7.609  -6.408  0.00  0.00    -0.271 OA
HETATM    3  N           1     -21.619  -5.537  -5.898  0.00  0.00    -0.344 N 
HETATM    4  H           1     -22.085  -4.922  -5.244  0.00  0.00     0.163 HD
ENDROOT
BRANCH   1   5
HETATM    5  C           1     -22.100  -7.432  -4.351  0.00  0.00     0.274 C 
BRANCH   5   6
HETATM    6  C           1     -21.688  -6.552  -3.178  0.00  0.00     0.042 C 
BRANCH   6   7
HETATM    7  C           1     -21.482  -7.416  -1.941  0.00  0.00     0.004 C 
BRANCH   7   8
HETATM    8  C           1     -22.379  -6.916  -0.816  0.00  0.00     0.027 C 
BRANCH   8   9
HETATM    9  C           1     -22.764  -8.082   0.084  0.00  0.00     0.229 C 
BRANCH   9  10
HETATM   10  N           1     -22.600  -9.370  -0.668  0.00  0.00    -0.079 N 
HETATM   11  H           1     -22.781  -9.206  -1.684  0.00  0.00     0.274 HD
HETATM   12  H           1     -21.626  -9.725  -0.541  0.00  0.00     0.274 HD
HETATM   13  H           1     -23.280 -10.075  -0.302  0.00  0.00     0.274 HD
ENDBRANCH   9  10
ENDBRANCH   8   9
ENDBRANCH   7   8
ENDBRANCH   6   7
ENDBRANCH   5   6
BRANCH   5  14
HETATM   14  N           1     -21.586  -8.825  -4.134  0.00  0.00    -0.067 N 
HETATM   15  H           1     -20.664  -8.783  -3.641  0.00  0.00     0.275 HD
HETATM   16  H           1     -22.268  -9.360  -3.551  0.00  0.00     0.275 HD
HETATM   17  H           1     -21.466  -9.299  -5.057  0.00  0.00     0.275 HD
ENDBRANCH   5  14
ENDBRANCH   1   5
BRANCH   3  18
HETATM   18  C           1     -21.060  -5.001  -7.124  0.00  0.00     0.189 C 
BRANCH  18  19
HETATM   19  C           1     -21.880  -3.798  -7.572  0.00  0.00     0.074 C 
BRANCH  19  20
HETATM   20  C           1     -22.374  -4.023  -8.967  0.00  0.00    -0.056 A 
HETATM   21  C           1     -23.745  -4.086  -9.220  0.00  0.00     0.010 A 
HETATM   22  C           1     -24.204  -4.296 -10.521  0.00  0.00     0.037 A 
HETATM   23  C           1     -23.293  -4.442 -11.567  0.00  0.00     0.065 A 
HETATM   24  C           1     -21.924  -4.378 -11.313  0.00  0.00     0.037 A 
HETATM   25  C           1     -21.463  -4.168 -10.013  0.00  0.00     0.010 A 
BRANCH  23  26
HETATM   26  O           1     -23.740  -4.644 -12.831  0.00  0.00    -0.361 OA
HETATM   27  H           1     -23.408  -3.920 -13.386  0.00  0.00     0.217 HD
ENDBRANCH  23  26
ENDBRANCH  19  20
ENDBRANCH  18  19
BRANCH  18  28
HETATM   28  C           1     -19.633  -4.575  -6.880  0.00  0.00     0.197 C 
HETATM   29  O           1     -18.886  -4.310  -7.847  0.00  0.00    -0.646 OA
HETATM   30  O           1     -19.197  -4.487  -5.712  0.00  0.00    -0.646 OA
ENDBRANCH  18  28
ENDBRANCH   3  18
TORSDOF 12
ENDMDL
MODEL 5
REMARK VINA RESULT:      -6.9      2.913      8.305
REMARK  12 active torsions:
REMARK  status: ('A' for Active; 'I' for Inactive)
REMARK    1  A    between atoms: C_1  and  C_22 
REMARK    2  A    between atoms: C_1  and  C_10 
REMARK    3  A    between atoms: C_2  and  O_25 
REMARK    4  A    between atoms: N_3  and  C_10 
REMARK    5  A    between atoms: C_6  and  C_20 
REMARK    6  A    between atoms: C_6  and  C_24 
REMARK    7  A    between atoms: C_8  and  C_24 
REMARK    8  A    between atoms: C_9  and  C_13 
REMARK    9  A    between atoms: C_9  and  C_23 
REMARK   10  A    between atoms: C_9  and  N_18 
REMARK       I    between atoms: C_13  and  N_15 
REMARK   11  A    between atoms: N_15  and  C_24 
REMARK   12  A    between atoms: C_22  and  C_23 
ROOT
HETATM    1  C           1     -20.948  -5.700  -6.338  0.00  0.00     0.249 C 
HETATM    2  O           1     -20.714  -4.989  -5.391  0.00  0.00    -0.271 OA
HETATM    3  N           1     -20.842  -7.059  -6.217  0.00  0.00    -0.344 N 
HETATM    4  H           1     -21.039  -7.655  -7.011  0.00  0.00     0.163 HD
ENDROOT
BRANCH   1   5
HETATM    5  C           1     -21.359  -5.090  -7.656  0.00  0.00     0.274 C 
BRANCH   5   6
HETATM    6  C           1     -20.155  -4.412  -8.298  0.00  0.00     0.042 C 
BRANCH   6   7
HETATM    7  C           1     -20.074  -4.804  -9.767  0.00  0.00     0.004 C 
BRANCH   7   8
HETATM    8  C           1     -20.689  -3.704 -10.623  0.00  0.00     0.027 C 
BRANCH   8   9
HETATM    9  C           1     -21.828  -4.281 -11.451  0.00  0.00     0.229 C 
BRANCH   9  10
HETATM   10  N           1     -21.804  -3.677 -12.825  0.00  0.00    -0.079 N 
HETATM   11  H           1     -20.896  -3.179 -12.971  0.00  0.00     0.274 HD
HETATM   12  H           1     -21.906  -4.432 -13.538  0.00  0.00     0.274 HD
HETATM   13  H           1     -22.593  -2.997 -12.919  0.00  0.00     0.274 HD
ENDBRANCH   9  10
ENDBRANCH   8   9
ENDBRANCH   7   8
ENDBRANCH   6   7
ENDBRANCH   5   6
BRANCH   5  14
HETATM   14  N           1     -22.437  -4.074  -7.421  0.00  0.00    -0.067 N 
HETATM   15  H           1     -22.359  -3.703  -6.447  0.00  0.00     0.275 HD
HETATM   16  H           1     -22.328  -3.289  -8.102  0.00  0.00     0.275 HD
HETATM   17  H           1     -23.372  -4.522  -7.549  0.00  0.00     0.275 HD
ENDBRANCH   5  14
ENDBRANCH   1   5
BRANCH   3  18
HETATM   18  C           1     -20.448  -7.646  -4.952  0.00  0.00     0.189 C 
BRANCH  18  19
HETATM   19  C           1     -21.575  -8.529  -4.429  0.00  0.00     0.074 C 
BRANCH  19  20
HETATM   20  C           1     -21.736  -8.312  -2.957  0.00  0.00    -0.056 A 
HETATM   21  C           1     -21.724  -9.401  -2.085  0.00  0.00     0.010 A 
HETATM   22  C           1     -21.875  -9.197  -0.713  0.00  0.00     0.037 A 
HETATM   23  C           1     -22.037  -7.905  -0.213  0.00  0.00     0.065 A 
HETATM   24  C           1     -22.048  -6.817  -1.085  0.00  0.00     0.037 A 
HETATM   25  C           1     -21.898  -7.019  -2.457  0.00  0.00     0.010 A 
BRANCH  23  26
HETATM   26  O           1     -22.182  -7.708   1.120  0.00  0.00    -0.361 OA
HETATM   27  H           1     -22.457  -6.787   1.259  0.00  0.00     0.217 HD
ENDBRANCH  23  26
ENDBRANCH  19  20
ENDBRANCH  18  19
BRANCH  18  28
HETATM   28  C           1     -19.206  -8.481  -5.150  0.00  0.00     0.197 C 
HETATM   29  O           1     -18.684  -8.564  -6.283  0.00  0.00    -0.646 OA
HETATM   30  O           1     -18.700  -9.089  -4.182  0.00  0.00    -0.646 OA
ENDBRANCH  18  28
ENDBRANCH   3  18
TORSDOF 12
ENDMDL
MODEL 6
REMARK VINA RESULT:      -6.8      2.515      7.885
REMARK  12 active torsions:
REMARK  status: ('A' for Active; 'I' for Inactive)
REMARK    1  A    between atoms: C_1  and  C_22 
REMARK    2  A    between atoms: C_1  and  C_10 
REMARK    3  A    between atoms: C_2  and  O_25 
REMARK    4  A    between atoms: N_3  and  C_10 
REMARK    5  A    between atoms: C_6  and  C_20 
REMARK    6  A    between atoms: C_6  and  C_24 
REMARK    7  A    between atoms: C_8  and  C_24 
REMARK    8  A    between atoms: C_9  and  C_13 
REMARK    9  A    between atoms: C_9  and  C_23 
REMARK   10  A    between atoms: C_9  and  N_18 
REMARK       I    between atoms: C_13  and  N_15 
REMARK   11  A    between atoms: N_15  and  C_24 
REMARK   12  A    between atoms: C_22  and  C_23 
ROOT
HETATM    1  C           1     -20.062  -5.503  -6.582  0.00  0.00     0.249 C 
HETATM    2  O           1     -19.847  -6.651  -6.890  0.00  0.00    -0.271 OA
HETATM    3  N           1     -20.628  -5.214  -5.370  0.00  0.00    -0.344 N 
HETATM    4  H           1     -20.808  -4.253  -5.112  0.00  0.00     0.163 HD
ENDROOT
BRANCH   1   5
HETATM    5  C           1     -19.708  -4.388  -7.535  0.00  0.00     0.274 C 
BRANCH   5   6
HETATM    6  C           1     -20.117  -4.778  -8.949  0.00  0.00     0.042 C 
BRANCH   6   7
HETATM    7  C           1     -21.239  -3.866  -9.424  0.00  0.00     0.004 C 
BRANCH   7   8
HETATM    8  C           1     -22.508  -4.684  -9.631  0.00  0.00     0.027 C 
BRANCH   8   9
HETATM    9  C           1     -23.659  -4.036  -8.875  0.00  0.00     0.229 C 
BRANCH   9  10
HETATM   10  N           1     -23.494  -4.281  -7.404  0.00  0.00    -0.079 N 
HETATM   11  H           1     -24.282  -3.830  -6.885  0.00  0.00     0.274 HD
HETATM   12  H           1     -23.500  -5.309  -7.221  0.00  0.00     0.274 HD
HETATM   13  H           1     -22.587  -3.873  -7.083  0.00  0.00     0.274 HD
ENDBRANCH   9  10
ENDBRANCH   8   9
ENDBRANCH   7   8
ENDBRANCH   6   7
ENDBRANCH   5   6
BRANCH   5  14
HETATM   14  N           1     -18.228  -4.147  -7.493  0.00  0.00    -0.067 N 
HETATM   15  H           1     -17.903  -4.145  -6.499  0.00  0.00     0.275 HD
HETATM   16  H           1     -17.738  -4.907  -8.017  0.00  0.00     0.275 HD
HETATM   17  H           1     -18.012  -3.224  -7.931  0.00  0.00     0.275 HD
ENDBRANCH   5  14
ENDBRANCH   1   5
BRANCH   3  18
HETATM   18  C           1     -20.968  -6.285  -4.454  0.00  0.00     0.189 C 
BRANCH  18  19
HETATM   19  C           1     -21.139  -5.718  -3.051  0.00  0.00     0.074 C 
BRANCH  19  20
HETATM   20  C           1     -21.313  -6.842  -2.077  0.00  0.00    -0.056 A 
HETATM   21  C           1     -20.450  -7.938  -2.115  0.00  0.00     0.010 A 
HETATM   22  C           1     -20.613  -8.984  -1.207  0.00  0.00     0.037 A 
HETATM   23  C           1     -21.637  -8.935  -0.261  0.00  0.00     0.065 A 
HETATM   24  C           1     -22.498  -7.838  -0.223  0.00  0.00     0.037 A 
HETATM   25  C           1     -22.336  -6.791  -1.131  0.00  0.00     0.010 A 
BRANCH  23  26
HETATM   26  O           1     -21.794  -9.951   0.621  0.00  0.00    -0.361 OA
HETATM   27  H           1     -22.725  -9.967   0.898  0.00  0.00     0.217 HD
ENDBRANCH  23  26
ENDBRANCH  19  20
ENDBRANCH  18  19
BRANCH  18  28
HETATM   28  C           1     -22.258  -6.933  -4.896  0.00  0.00     0.197 C 
HETATM   29  O           1     -23.286  -6.238  -5.045  0.00  0.00    -0.646 OA
HETATM   30  O           1     -22.298  -8.163  -5.114  0.00  0.00    -0.646 OA
ENDBRANCH  18  28
ENDBRANCH   3  18
TORSDOF 12
ENDMDL
MODEL 7
REMARK VINA RESULT:      -6.5      2.673      7.879
REMARK  12 active torsions:
REMARK  status: ('A' for Active; 'I' for Inactive)
REMARK    1  A    between atoms: C_1  and  C_22 
REMARK    2  A    between atoms: C_1  and  C_10 
REMARK    3  A    between atoms: C_2  and  O_25 
REMARK    4  A    between atoms: N_3  and  C_10 
REMARK    5  A    between atoms: C_6  and  C_20 
REMARK    6  A    between atoms: C_6  and  C_24 
REMARK    7  A    between atoms: C_8  and  C_24 
REMARK    8  A    between atoms: C_9  and  C_13 
REMARK    9  A    between atoms: C_9  and  C_23 
REMARK   10  A    between atoms: C_9  and  N_18 
REMARK       I    between atoms: C_13  and  N_15 
REMARK   11  A    between atoms: N_15  and  C_24 
REMARK   12  A    between atoms: C_22  and  C_23 
ROOT
HETATM    1  C           1     -20.499  -7.267  -5.532  0.00  0.00     0.249 C 
HETATM    2  O           1     -19.510  -7.503  -6.184  0.00  0.00    -0.271 OA
HETATM    3  N           1     -20.788  -8.023  -4.429  0.00  0.00    -0.344 N 
HETATM    4  H           1     -21.616  -7.825  -3.882  0.00  0.00     0.163 HD
ENDROOT
BRANCH   1   5
HETATM    5  C           1     -21.416  -6.138  -5.934  0.00  0.00     0.274 C 
BRANCH   5   6
HETATM    6  C           1     -20.672  -4.813  -5.819  0.00  0.00     0.042 C 
BRANCH   6   7
HETATM    7  C           1     -20.860  -4.011  -7.099  0.00  0.00     0.004 C 
BRANCH   7   8
HETATM    8  C           1     -21.469  -4.902  -8.174  0.00  0.00     0.027 C 
BRANCH   8   9
HETATM    9  C           1     -22.594  -4.156  -8.876  0.00  0.00     0.229 C 
BRANCH   9  10
HETATM   10  N           1     -23.777  -4.055  -7.958  0.00  0.00    -0.079 N 
HETATM   11  H           1     -24.227  -4.995  -7.865  0.00  0.00     0.274 HD
HETATM   12  H           1     -23.461  -3.726  -7.020  0.00  0.00     0.274 HD
HETATM   13  H           1     -24.467  -3.377  -8.354  0.00  0.00     0.274 HD
ENDBRANCH   9  10
ENDBRANCH   8   9
ENDBRANCH   7   8
ENDBRANCH   6   7
ENDBRANCH   5   6
BRANCH   5  14
HETATM   14  N           1     -22.611  -6.119  -5.028  0.00  0.00    -0.067 N 
HETATM   15  H           1     -23.041  -7.071  -4.998  0.00  0.00     0.275 HD
HETATM   16  H           1     -22.313  -5.842  -4.065  0.00  0.00     0.275 HD
HETATM   17  H           1     -23.311  -5.432  -5.388  0.00  0.00     0.275 HD
ENDBRANCH   5  14
ENDBRANCH   1   5
BRANCH   3  18
HETATM   18  C           1     -19.907  -9.107  -4.042  0.00  0.00     0.189 C 
BRANCH  18  19
HETATM   19  C           1     -19.421  -8.881  -2.616  0.00  0.00     0.074 C 
BRANCH  19  20
HETATM   20  C           1     -20.588  -8.556  -1.736  0.00  0.00    -0.056 A 
HETATM   21  C           1     -21.154  -7.281  -1.772  0.00  0.00     0.010 A 
HETATM   22  C           1     -22.242  -6.979  -0.952  0.00  0.00     0.037 A 
HETATM   23  C           1     -22.762  -7.950  -0.097  0.00  0.00     0.065 A 
HETATM   24  C           1     -22.196  -9.224  -0.063  0.00  0.00     0.037 A 
HETATM   25  C           1     -21.109  -9.528  -0.882  0.00  0.00     0.010 A 
BRANCH  23  26
HETATM   26  O           1     -23.819  -7.656   0.698  0.00  0.00    -0.361 OA
HETATM   27  H           1     -24.631  -7.859   0.205  0.00  0.00     0.217 HD
ENDBRANCH  23  26
ENDBRANCH  19  20
ENDBRANCH  18  19
BRANCH  18  28
HETATM   28  C           1     -20.658 -10.414  -4.116  0.00  0.00     0.197 C 
HETATM   29  O           1     -20.072 -11.487  -3.854  0.00  0.00    -0.646 OA
HETATM   30  O           1     -21.866 -10.425  -4.438  0.00  0.00    -0.646 OA
ENDBRANCH  18  28
ENDBRANCH   3  18
TORSDOF 12
ENDMDL
MODEL 8
REMARK VINA RESULT:      -6.3      3.475      9.026
REMARK  12 active torsions:
REMARK  status: ('A' for Active; 'I' for Inactive)
REMARK    1  A    between atoms: C_1  and  C_22 
REMARK    2  A    between atoms: C_1  and  C_10 
REMARK    3  A    between atoms: C_2  and  O_25 
REMARK    4  A    between atoms: N_3  and  C_10 
REMARK    5  A    between atoms: C_6  and  C_20 
REMARK    6  A    between atoms: C_6  and  C_24 
REMARK    7  A    between atoms: C_8  and  C_24 
REMARK    8  A    between atoms: C_9  and  C_13 
REMARK    9  A    between atoms: C_9  and  C_23 
REMARK   10  A    between atoms: C_9  and  N_18 
REMARK       I    between atoms: C_13  and  N_15 
REMARK   11  A    between atoms: N_15  and  C_24 
REMARK   12  A    between atoms: C_22  and  C_23 
ROOT
HETATM    1  C           1     -20.900  -8.247  -3.912  0.00  0.00     0.249 C 
HETATM    2  O           1     -21.882  -8.877  -4.226  0.00  0.00    -0.271 OA
HETATM    3  N           1     -20.721  -7.861  -2.612  0.00  0.00    -0.344 N 
HETATM    4  H           1     -19.898  -7.333  -2.349  0.00  0.00     0.163 HD
ENDROOT
BRANCH   1   5
HETATM    5  C           1     -19.871  -7.886  -4.956  0.00  0.00     0.274 C 
BRANCH   5   6
HETATM    6  C           1     -20.487  -6.928  -5.967  0.00  0.00     0.042 C 
BRANCH   6   7
HETATM    7  C           1     -20.608  -5.543  -5.348  0.00  0.00     0.004 C 
BRANCH   7   8
HETATM    8  C           1     -20.762  -4.504  -6.452  0.00  0.00     0.027 C 
BRANCH   8   9
HETATM    9  C           1     -22.145  -4.625  -7.075  0.00  0.00     0.229 C 
BRANCH   9  10
HETATM   10  N           1     -22.350  -3.512  -8.061  0.00  0.00    -0.079 N 
HETATM   11  H           1     -22.196  -2.593  -7.585  0.00  0.00     0.274 HD
HETATM   12  H           1     -21.670  -3.615  -8.847  0.00  0.00     0.274 HD
HETATM   13  H           1     -23.325  -3.552  -8.433  0.00  0.00     0.274 HD
ENDBRANCH   9  10
ENDBRANCH   8   9
ENDBRANCH   7   8
ENDBRANCH   6   7
ENDBRANCH   5   6
BRANCH   5  14
HETATM   14  N           1     -19.416  -9.130  -5.660  0.00  0.00    -0.067 N 
HETATM   15  H           1     -20.216  -9.541  -6.192  0.00  0.00     0.275 HD
HETATM   16  H           1     -18.643  -8.891  -6.322  0.00  0.00     0.275 HD
HETATM   17  H           1     -19.073  -9.822  -4.957  0.00  0.00     0.275 HD
ENDBRANCH   5  14
ENDBRANCH   1   5
BRANCH   3  18
HETATM   18  C           1     -21.708  -8.208  -1.609  0.00  0.00     0.189 C 
BRANCH  18  19
HETATM   19  C           1     -21.016  -8.861  -0.420  0.00  0.00     0.074 C 
BRANCH  19  20
HETATM   20  C           1     -21.700 -10.152  -0.092  0.00  0.00    -0.056 A 
HETATM   21  C           1     -23.030 -10.351  -0.464  0.00  0.00     0.010 A 
HETATM   22  C           1     -23.667 -11.554  -0.157  0.00  0.00     0.037 A 
HETATM   23  C           1     -22.974 -12.557   0.520  0.00  0.00     0.065 A 
HETATM   24  C           1     -21.645 -12.358   0.890  0.00  0.00     0.037 A 
HETATM   25  C           1     -21.007 -11.155   0.585  0.00  0.00     0.010 A 
BRANCH  23  26
HETATM   26  O           1     -23.593 -13.726   0.816  0.00  0.00    -0.361 OA
HETATM   27  H           1     -24.335 -13.837   0.199  0.00  0.00     0.217 HD
ENDBRANCH  23  26
ENDBRANCH  19  20
ENDBRANCH  18  19
BRANCH  18  28
HETATM   28  C           1     -22.420  -6.958  -1.153  0.00  0.00     0.197 C 
HETATM   29  O           1     -22.946  -6.917  -0.019  0.00  0.00    -0.646 OA
HETATM   30  O           1     -22.484  -5.963  -1.908  0.00  0.00    -0.646 OA
ENDBRANCH  18  28
ENDBRANCH   3  18
TORSDOF 12
ENDMDL
MODEL 9
REMARK VINA RESULT:      -6.3      1.820      2.601
REMARK  12 active torsions:
REMARK  status: ('A' for Active; 'I' for Inactive)
REMARK    1  A    between atoms: C_1  and  C_22 
REMARK    2  A    between atoms: C_1  and  C_10 
REMARK    3  A    between atoms: C_2  and  O_25 
REMARK    4  A    between atoms: N_3  and  C_10 
REMARK    5  A    between atoms: C_6  and  C_20 
REMARK    6  A    between atoms: C_6  and  C_24 
REMARK    7  A    between atoms: C_8  and  C_24 
REMARK    8  A    between atoms: C_9  and  C_13 
REMARK    9  A    between atoms: C_9  and  C_23 
REMARK   10  A    between atoms: C_9  and  N_18 
REMARK       I    between atoms: C_13  and  N_15 
REMARK   11  A    between atoms: N_15  and  C_24 
REMARK   12  A    between atoms: C_22  and  C_23 
ROOT
HETATM    1  C           1     -20.189  -7.897  -5.892  0.00  0.00     0.249 C 
HETATM    2  O           1     -19.067  -7.831  -6.337  0.00  0.00    -0.271 OA
HETATM    3  N           1     -21.098  -6.916  -6.182  0.00  0.00    -0.344 N 
HETATM    4  H           1     -22.037  -6.971  -5.809  0.00  0.00     0.163 HD
ENDROOT
BRANCH   1   5
HETATM    5  C           1     -20.586  -9.060  -5.017  0.00  0.00     0.274 C 
BRANCH   5   6
HETATM    6  C           1     -21.533  -8.575  -3.927  0.00  0.00     0.042 C 
BRANCH   6   7
HETATM    7  C           1     -20.725  -8.073  -2.738  0.00  0.00     0.004 C 
BRANCH   7   8
HETATM    8  C           1     -21.651  -7.854  -1.548  0.00  0.00     0.027 C 
BRANCH   8   9
HETATM    9  C           1     -22.232  -6.449  -1.607  0.00  0.00     0.229 C 
BRANCH   9  10
HETATM   10  N           1     -21.550  -5.670  -2.693  0.00  0.00    -0.079 N 
HETATM   11  H           1     -22.265  -5.151  -3.252  0.00  0.00     0.274 HD
HETATM   12  H           1     -20.882  -4.990  -2.266  0.00  0.00     0.274 HD
HETATM   13  H           1     -21.028  -6.326  -3.317  0.00  0.00     0.274 HD
ENDBRANCH   9  10
ENDBRANCH   8   9
ENDBRANCH   7   8
ENDBRANCH   6   7
ENDBRANCH   5   6
BRANCH   5  14
HETATM   14  N           1     -19.361  -9.652  -4.386  0.00  0.00    -0.067 N 
HETATM   15  H           1     -19.481  -9.677  -3.348  0.00  0.00     0.275 HD
HETATM   16  H           1     -19.221 -10.624  -4.744  0.00  0.00     0.275 HD
HETATM   17  H           1     -18.528  -9.068  -4.627  0.00  0.00     0.275 HD
ENDBRANCH   5  14
ENDBRANCH   1   5
BRANCH   3  18
HETATM   18  C           1     -20.717  -5.799  -7.023  0.00  0.00     0.189 C 
BRANCH  18  19
HETATM   19  C           1     -21.964  -5.032  -7.444  0.00  0.00     0.074 C 
BRANCH  19  20
HETATM   20  C           1     -21.871  -4.687  -8.898  0.00  0.00    -0.056 A 
HETATM   21  C           1     -23.032  -4.484  -9.643  0.00  0.00     0.010 A 
HETATM   22  C           1     -22.944  -4.163 -10.998  0.00  0.00     0.037 A 
HETATM   23  C           1     -21.695  -4.046 -11.607  0.00  0.00     0.065 A 
HETATM   24  C           1     -20.534  -4.248 -10.862  0.00  0.00     0.037 A 
HETATM   25  C           1     -20.621  -4.570  -9.507  0.00  0.00     0.010 A 
BRANCH  23  26
HETATM   26  O           1     -21.610  -3.734 -12.923  0.00  0.00    -0.361 OA
HETATM   27  H           1     -21.929  -4.496 -13.434  0.00  0.00     0.217 HD
ENDBRANCH  23  26
ENDBRANCH  19  20
ENDBRANCH  18  19
BRANCH  18  28
HETATM   28  C           1     -19.798  -4.882  -6.253  0.00  0.00     0.197 C 
HETATM   29  O           1     -18.722  -4.502  -6.764  0.00  0.00    -0.646 OA
HETATM   30  O           1     -20.112  -4.502  -5.104  0.00  0.00    -0.646 OA
ENDBRANCH  18  28
ENDBRANCH   3  18
TORSDOF 12
ENDMDL
