MODEL 1
REMARK VINA RESULT:      -6.7      0.000      0.000
REMARK  9 active torsions:
REMARK  status: ('A' for Active; 'I' for Inactive)
REMARK    1  A    between atoms: N_6  and  C_20 
REMARK       I    between atoms: N_6  and  C_7 
REMARK    2  A    between atoms: C_7  and  C_24 
REMARK    3  A    between atoms: N_8  and  C_24 
REMARK    4  A    between atoms: C_11  and  C_24 
REMARK    5  A    between atoms: C_11  and  C_12 
REMARK    6  A    between atoms: C_12  and  C_13 
REMARK       I    between atoms: C_13  and  N_22 
REMARK    7  A    between atoms: C_19  and  C_20 
REMARK    8  A    between atoms: C_20  and  C_21 
REMARK    9  A    between atoms: C_21  and  C_23 
ROOT
HETATM    1  N           1     -35.318  -2.099 -12.451  0.00  0.00    -0.345 N 
HETATM    2  C           1     -34.172  -2.717 -12.028  0.00  0.00     0.249 C 
HETATM    3  O           1     -33.437  -2.158 -11.247  0.00  0.00    -0.271 OA
HETATM    4  H           1     -35.934  -2.567 -13.104  0.00  0.00     0.163 HD
ENDROOT
BRANCH   2   5
HETATM    5  C           1     -33.826  -4.095 -12.535  0.00  0.00     0.275 C 
BRANCH   5   6
HETATM    6  N           1     -32.423  -4.438 -12.128  0.00  0.00    -0.066 N 
HETATM    7  H           1     -32.334  -5.474 -12.024  0.00  0.00     0.275 HD
HETATM    8  H           1     -31.757  -4.103 -12.859  0.00  0.00     0.275 HD
HETATM    9  H           1     -32.203  -3.976 -11.216  0.00  0.00     0.275 HD
ENDBRANCH   5   6
BRANCH   5  10
HETATM   10  C           1     -34.790  -5.113 -11.940  0.00  0.00     0.052 C 
BRANCH  10  11
HETATM   11  C           1     -34.357  -5.454 -10.520  0.00  0.00     0.105 C 
BRANCH  11  12
HETATM   12  C           1     -34.661  -6.904 -10.235  0.00  0.00     0.215 C 
HETATM   13  N           1     -35.023  -7.741 -11.256  0.00  0.00    -0.370 N 
HETATM   14  H           1     -35.227  -8.714 -11.065  0.00  0.00     0.159 HD
HETATM   15  H           1     -35.087  -7.387 -12.202  0.00  0.00     0.159 HD
HETATM   16  O           1     -34.585  -7.326  -9.106  0.00  0.00    -0.274 OA
ENDBRANCH  11  12
ENDBRANCH  10  11
ENDBRANCH   5  10
ENDBRANCH   2   5
BRANCH   1  17
HETATM   17  C           1     -35.651  -0.775 -11.962  0.00  0.00     0.185 C 
BRANCH  17  18
HETATM   18  C           1     -36.487  -0.895 -10.712  0.00  0.00     0.196 C 
HETATM   19  O           1     -36.036  -0.493  -9.617  0.00  0.00    -0.646 OA
HETATM   20  O           1     -37.630  -1.397 -10.771  0.00  0.00    -0.646 OA
ENDBRANCH  17  18
BRANCH  17  21
HETATM   21  C           1     -36.437  -0.024 -13.029  0.00  0.00     0.040 C 
BRANCH  21  22
HETATM   22  C           1     -35.561   0.174 -14.259  0.00  0.00    -0.020 C 
HETATM   23  C           1     -36.420   0.656 -15.420  0.00  0.00     0.009 C 
HETATM   24  C           1     -34.488   1.212 -13.956  0.00  0.00     0.009 C 
ENDBRANCH  21  22
ENDBRANCH  17  21
ENDBRANCH   1  17
TORSDOF 9
ENDMDL
MODEL 2
REMARK VINA RESULT:      -6.4     12.165     14.681
REMARK  9 active torsions:
REMARK  status: ('A' for Active; 'I' for Inactive)
REMARK    1  A    between atoms: N_6  and  C_20 
REMARK       I    between atoms: N_6  and  C_7 
REMARK    2  A    between atoms: C_7  and  C_24 
REMARK    3  A    between atoms: N_8  and  C_24 
REMARK    4  A    between atoms: C_11  and  C_24 
REMARK    5  A    between atoms: C_11  and  C_12 
REMARK    6  A    between atoms: C_12  and  C_13 
REMARK       I    between atoms: C_13  and  N_22 
REMARK    7  A    between atoms: C_19  and  C_20 
REMARK    8  A    between atoms: C_20  and  C_21 
REMARK    9  A    between atoms: C_21  and  C_23 
ROOT
HETATM    1  N           1     -22.005  -5.121  -8.825  0.00  0.00    -0.345 N 
HETATM    2  C           1     -23.243  -4.537  -8.813  0.00  0.00     0.249 C 
HETATM    3  O           1     -23.590  -3.873  -7.864  0.00  0.00    -0.271 OA
HETATM    4  H           1     -21.715  -5.676  -9.619  0.00  0.00     0.163 HD
ENDROOT
BRANCH   2   5
HETATM    5  C           1     -24.176  -4.721  -9.985  0.00  0.00     0.275 C 
BRANCH   5   6
HETATM    6  N           1     -25.181  -3.607 -10.002  0.00  0.00    -0.066 N 
HETATM    7  H           1     -24.708  -2.715 -10.271  0.00  0.00     0.275 HD
HETATM    8  H           1     -25.931  -3.826 -10.695  0.00  0.00     0.275 HD
HETATM    9  H           1     -25.603  -3.505  -9.051  0.00  0.00     0.275 HD
ENDBRANCH   5   6
BRANCH   5  10
HETATM   10  C           1     -23.375  -4.701 -11.280  0.00  0.00     0.052 C 
BRANCH  10  11
HETATM   11  C           1     -23.005  -3.265 -11.627  0.00  0.00     0.105 C 
BRANCH  11  12
HETATM   12  C           1     -23.478  -2.946 -13.024  0.00  0.00     0.215 C 
HETATM   13  N           1     -22.611  -3.041 -14.078  0.00  0.00    -0.370 N 
HETATM   14  H           1     -22.929  -2.826 -15.016  0.00  0.00     0.159 HD
HETATM   15  H           1     -21.652  -3.324 -13.922  0.00  0.00     0.159 HD
HETATM   16  O           1     -24.622  -2.608 -13.211  0.00  0.00    -0.274 OA
ENDBRANCH  11  12
ENDBRANCH  10  11
ENDBRANCH   5  10
ENDBRANCH   2   5
BRANCH   1  17
HETATM   17  C           1     -21.109  -4.942  -7.698  0.00  0.00     0.185 C 
BRANCH  17  18
HETATM   18  C           1     -19.827  -4.304  -8.172  0.00  0.00     0.196 C 
HETATM   19  O           1     -19.804  -3.674  -9.251  0.00  0.00    -0.646 OA
HETATM   20  O           1     -18.788  -4.406  -7.485  0.00  0.00    -0.646 OA
ENDBRANCH  17  18
BRANCH  17  21
HETATM   21  C           1     -20.803  -6.298  -7.075  0.00  0.00     0.040 C 
BRANCH  21  22
HETATM   22  C           1     -21.512  -6.411  -5.732  0.00  0.00    -0.020 C 
HETATM   23  C           1     -21.454  -7.853  -5.248  0.00  0.00     0.009 C 
HETATM   24  C           1     -20.824  -5.506  -4.718  0.00  0.00     0.009 C 
ENDBRANCH  21  22
ENDBRANCH  17  21
ENDBRANCH   1  17
TORSDOF 9
ENDMDL
MODEL 3
REMARK VINA RESULT:      -6.4     12.130     13.682
REMARK  9 active torsions:
REMARK  status: ('A' for Active; 'I' for Inactive)
REMARK    1  A    between atoms: N_6  and  C_20 
REMARK       I    between atoms: N_6  and  C_7 
REMARK    2  A    between atoms: C_7  and  C_24 
REMARK    3  A    between atoms: N_8  and  C_24 
REMARK    4  A    between atoms: C_11  and  C_24 
REMARK    5  A    between atoms: C_11  and  C_12 
REMARK    6  A    between atoms: C_12  and  C_13 
REMARK       I    between atoms: C_13  and  N_22 
REMARK    7  A    between atoms: C_19  and  C_20 
REMARK    8  A    between atoms: C_20  and  C_21 
REMARK    9  A    between atoms: C_21  and  C_23 
ROOT
HETATM    1  N           1     -23.274  -4.376  -8.737  0.00  0.00    -0.345 N 
HETATM    2  C           1     -22.379  -4.078  -7.745  0.00  0.00     0.249 C 
HETATM    3  O           1     -21.515  -3.254  -7.937  0.00  0.00    -0.271 OA
HETATM    4  H           1     -23.997  -5.064  -8.576  0.00  0.00     0.163 HD
ENDROOT
BRANCH   2   5
HETATM    5  C           1     -22.471  -4.776  -6.411  0.00  0.00     0.275 C 
BRANCH   5   6
HETATM    6  N           1     -23.880  -5.243  -6.189  0.00  0.00    -0.066 N 
HETATM    7  H           1     -24.028  -6.151  -6.685  0.00  0.00     0.275 HD
HETATM    8  H           1     -24.046  -5.374  -5.166  0.00  0.00     0.275 HD
HETATM    9  H           1     -24.546  -4.529  -6.562  0.00  0.00     0.275 HD
ENDBRANCH   5   6
BRANCH   5  10
HETATM   10  C           1     -21.532  -5.974  -6.397  0.00  0.00     0.052 C 
BRANCH  10  11
HETATM   11  C           1     -20.765  -6.004  -5.082  0.00  0.00     0.105 C 
BRANCH  11  12
HETATM   12  C           1     -21.562  -6.765  -4.051  0.00  0.00     0.215 C 
HETATM   13  N           1     -22.107  -6.105  -2.983  0.00  0.00    -0.370 N 
HETATM   14  H           1     -22.642  -6.616  -2.291  0.00  0.00     0.159 HD
HETATM   15  H           1     -21.974  -5.106  -2.884  0.00  0.00     0.159 HD
HETATM   16  O           1     -21.720  -7.957  -4.169  0.00  0.00    -0.274 OA
ENDBRANCH  11  12
ENDBRANCH  10  11
ENDBRANCH   5  10
ENDBRANCH   2   5
BRANCH   1  17
HETATM   17  C           1     -23.185  -3.703 -10.019  0.00  0.00     0.185 C 
BRANCH  17  18
HETATM   18  C           1     -24.557  -3.237 -10.438  0.00  0.00     0.196 C 
HETATM   19  O           1     -25.397  -2.907  -9.572  0.00  0.00    -0.646 OA
HETATM   20  O           1     -24.854  -3.180 -11.651  0.00  0.00    -0.646 OA
ENDBRANCH  17  18
BRANCH  17  21
HETATM   21  C           1     -22.636  -4.669 -11.061  0.00  0.00     0.040 C 
BRANCH  21  22
HETATM   22  C           1     -21.279  -4.174 -11.546  0.00  0.00    -0.020 C 
HETATM   23  C           1     -21.237  -2.654 -11.470  0.00  0.00     0.009 C 
HETATM   24  C           1     -20.183  -4.758 -10.664  0.00  0.00     0.009 C 
ENDBRANCH  21  22
ENDBRANCH  17  21
ENDBRANCH   1  17
TORSDOF 9
ENDMDL
MODEL 4
REMARK VINA RESULT:      -6.3     11.831     14.011
REMARK  9 active torsions:
REMARK  status: ('A' for Active; 'I' for Inactive)
REMARK    1  A    between atoms: N_6  and  C_20 
REMARK       I    between atoms: N_6  and  C_7 
REMARK    2  A    between atoms: C_7  and  C_24 
REMARK    3  A    between atoms: N_8  and  C_24 
REMARK    4  A    between atoms: C_11  and  C_24 
REMARK    5  A    between atoms: C_11  and  C_12 
REMARK    6  A    between atoms: C_12  and  C_13 
REMARK       I    between atoms: C_13  and  N_22 
REMARK    7  A    between atoms: C_19  and  C_20 
REMARK    8  A    between atoms: C_20  and  C_21 
REMARK    9  A    between atoms: C_21  and  C_23 
ROOT
HETATM    1  N           1     -23.213  -4.200  -8.409  0.00  0.00    -0.345 N 
HETATM    2  C           1     -23.320  -4.384  -9.761  0.00  0.00     0.249 C 
HETATM    3  O           1     -22.447  -4.964 -10.363  0.00  0.00    -0.271 OA
HETATM    4  H           1     -23.943  -3.715  -7.904  0.00  0.00     0.163 HD
ENDROOT
BRANCH   2   5
HETATM    5  C           1     -24.528  -3.863 -10.500  0.00  0.00     0.275 C 
BRANCH   5   6
HETATM    6  N           1     -25.518  -3.318  -9.515  0.00  0.00    -0.066 N 
HETATM    7  H           1     -25.042  -3.147  -8.599  0.00  0.00     0.275 HD
HETATM    8  H           1     -25.910  -2.419  -9.875  0.00  0.00     0.275 HD
HETATM    9  H           1     -26.293  -4.007  -9.381  0.00  0.00     0.275 HD
ENDBRANCH   5   6
BRANCH   5  10
HETATM   10  C           1     -24.102  -2.757 -11.456  0.00  0.00     0.052 C 
BRANCH  10  11
HETATM   11  C           1     -24.495  -3.134 -12.878  0.00  0.00     0.105 C 
BRANCH  11  12
HETATM   12  C           1     -23.273  -3.108 -13.763  0.00  0.00     0.215 C 
HETATM   13  N           1     -22.050  -3.448 -13.251  0.00  0.00    -0.370 N 
HETATM   14  H           1     -21.230  -3.431 -13.844  0.00  0.00     0.159 HD
HETATM   15  H           1     -21.965  -3.717 -12.278  0.00  0.00     0.159 HD
HETATM   16  O           1     -23.374  -2.787 -14.923  0.00  0.00    -0.274 OA
ENDBRANCH  11  12
ENDBRANCH  10  11
ENDBRANCH   5  10
ENDBRANCH   2   5
BRANCH   1  17
HETATM   17  C           1     -22.052  -4.702  -7.699  0.00  0.00     0.185 C 
BRANCH  17  18
HETATM   18  C           1     -22.490  -5.335  -6.402  0.00  0.00     0.196 C 
HETATM   19  O           1     -21.674  -5.991  -5.719  0.00  0.00    -0.646 OA
HETATM   20  O           1     -23.669  -5.203  -6.010  0.00  0.00    -0.646 OA
ENDBRANCH  17  18
BRANCH  17  21
HETATM   21  C           1     -21.100  -3.549  -7.406  0.00  0.00     0.040 C 
BRANCH  21  22
HETATM   22  C           1     -19.711  -3.894  -7.924  0.00  0.00    -0.020 C 
HETATM   23  C           1     -18.874  -4.470  -6.790  0.00  0.00     0.009 C 
HETATM   24  C           1     -19.827  -4.921  -9.043  0.00  0.00     0.009 C 
ENDBRANCH  21  22
ENDBRANCH  17  21
ENDBRANCH   1  17
TORSDOF 9
ENDMDL
MODEL 5
REMARK VINA RESULT:      -6.2      2.956      5.773
REMARK  9 active torsions:
REMARK  status: ('A' for Active; 'I' for Inactive)
REMARK    1  A    between atoms: N_6  and  C_20 
REMARK       I    between atoms: N_6  and  C_7 
REMARK    2  A    between atoms: C_7  and  C_24 
REMARK    3  A    between atoms: N_8  and  C_24 
REMARK    4  A    between atoms: C_11  and  C_24 
REMARK    5  A    between atoms: C_11  and  C_12 
REMARK    6  A    between atoms: C_12  and  C_13 
REMARK       I    between atoms: C_13  and  N_22 
REMARK    7  A    between atoms: C_19  and  C_20 
REMARK    8  A    between atoms: C_20  and  C_21 
REMARK    9  A    between atoms: C_21  and  C_23 
ROOT
HETATM    1  N           1     -35.077  -0.688 -12.443  0.00  0.00    -0.345 N 
HETATM    2  C           1     -34.920  -1.092 -13.741  0.00  0.00     0.249 C 
HETATM    3  O           1     -35.072  -2.254 -14.035  0.00  0.00    -0.271 OA
HETATM    4  H           1     -34.950   0.285 -12.196  0.00  0.00     0.163 HD
ENDROOT
BRANCH   2   5
HETATM    5  C           1     -34.558  -0.086 -14.806  0.00  0.00     0.275 C 
BRANCH   5   6
HETATM    6  N           1     -34.801  -0.684 -16.160  0.00  0.00    -0.066 N 
HETATM    7  H           1     -34.206  -0.197 -16.869  0.00  0.00     0.275 HD
HETATM    8  H           1     -34.557  -1.700 -16.141  0.00  0.00     0.275 HD
HETATM    9  H           1     -35.809  -0.572 -16.415  0.00  0.00     0.275 HD
ENDBRANCH   5   6
BRANCH   5  10
HETATM   10  C           1     -35.417   1.161 -14.642  0.00  0.00     0.052 C 
BRANCH  10  11
HETATM   11  C           1     -36.472   1.200 -15.738  0.00  0.00     0.105 C 
BRANCH  11  12
HETATM   12  C           1     -37.596   0.255 -15.390  0.00  0.00     0.215 C 
HETATM   13  N           1     -38.075   0.204 -14.109  0.00  0.00    -0.370 N 
HETATM   14  H           1     -38.829  -0.430 -13.875  0.00  0.00     0.159 HD
HETATM   15  H           1     -37.675   0.800 -13.395  0.00  0.00     0.159 HD
HETATM   16  O           1     -38.073  -0.456 -16.242  0.00  0.00    -0.274 OA
ENDBRANCH  11  12
ENDBRANCH  10  11
ENDBRANCH   5  10
ENDBRANCH   2   5
BRANCH   1  17
HETATM   17  C           1     -35.427  -1.655 -11.420  0.00  0.00     0.185 C 
BRANCH  17  18
HETATM   18  C           1     -36.532  -1.098 -10.558  0.00  0.00     0.196 C 
HETATM   19  O           1     -36.277  -0.681  -9.407  0.00  0.00    -0.646 OA
HETATM   20  O           1     -37.702  -1.054 -10.994  0.00  0.00    -0.646 OA
ENDBRANCH  17  18
BRANCH  17  21
HETATM   21  C           1     -34.205  -1.944 -10.557  0.00  0.00     0.040 C 
BRANCH  21  22
HETATM   22  C           1     -33.902  -3.436 -10.589  0.00  0.00    -0.020 C 
HETATM   23  C           1     -35.175  -4.205 -10.917  0.00  0.00     0.009 C 
HETATM   24  C           1     -32.850  -3.717 -11.654  0.00  0.00     0.009 C 
ENDBRANCH  21  22
ENDBRANCH  17  21
ENDBRANCH   1  17
TORSDOF 9
ENDMDL
MODEL 6
REMARK VINA RESULT:      -6.1     13.614     16.169
REMARK  9 active torsions:
REMARK  status: ('A' for Active; 'I' for Inactive)
REMARK    1  A    between atoms: N_6  and  C_20 
REMARK       I    between atoms: N_6  and  C_7 
REMARK    2  A    between atoms: C_7  and  C_24 
REMARK    3  A    between atoms: N_8  and  C_24 
REMARK    4  A    between atoms: C_11  and  C_24 
REMARK    5  A    between atoms: C_11  and  C_12 
REMARK    6  A    between atoms: C_12  and  C_13 
REMARK       I    between atoms: C_13  and  N_22 
REMARK    7  A    between atoms: C_19  and  C_20 
REMARK    8  A    between atoms: C_20  and  C_21 
REMARK    9  A    between atoms: C_21  and  C_23 
ROOT
HETATM    1  N           1     -20.982  -6.261  -6.209  0.00  0.00    -0.345 N 
HETATM    2  C           1     -20.575  -4.961  -6.338  0.00  0.00     0.249 C 
HETATM    3  O           1     -19.863  -4.464  -5.497  0.00  0.00    -0.271 OA
HETATM    4  H           1     -21.578  -6.677  -6.913  0.00  0.00     0.163 HD
ENDROOT
BRANCH   2   5
HETATM    5  C           1     -21.015  -4.147  -7.530  0.00  0.00     0.275 C 
BRANCH   5   6
HETATM    6  N           1     -20.049  -4.355  -8.659  0.00  0.00    -0.066 N 
HETATM    7  H           1     -20.576  -4.426  -9.560  0.00  0.00     0.275 HD
HETATM    8  H           1     -19.388  -3.548  -8.706  0.00  0.00     0.275 HD
HETATM    9  H           1     -19.512  -5.238  -8.499  0.00  0.00     0.275 HD
ENDBRANCH   5   6
BRANCH   5  10
HETATM   10  C           1     -22.406  -4.589  -7.964  0.00  0.00     0.052 C 
BRANCH  10  11
HETATM   11  C           1     -22.943  -3.623  -9.012  0.00  0.00     0.105 C 
BRANCH  11  12
HETATM   12  C           1     -24.116  -4.252  -9.722  0.00  0.00     0.215 C 
HETATM   13  N           1     -25.356  -3.680  -9.634  0.00  0.00    -0.370 N 
HETATM   14  H           1     -26.143  -4.101 -10.111  0.00  0.00     0.159 HD
HETATM   15  H           1     -25.486  -2.835  -9.091  0.00  0.00     0.159 HD
HETATM   16  O           1     -23.960  -5.260 -10.369  0.00  0.00    -0.274 OA
ENDBRANCH  11  12
ENDBRANCH  10  11
ENDBRANCH   5  10
ENDBRANCH   2   5
BRANCH   1  17
HETATM   17  C           1     -20.558  -7.044  -5.064  0.00  0.00     0.185 C 
BRANCH  17  18
HETATM   18  C           1     -20.213  -8.443  -5.511  0.00  0.00     0.196 C 
HETATM   19  O           1     -19.016  -8.774  -5.658  0.00  0.00    -0.646 OA
HETATM   20  O           1     -21.122  -9.270  -5.732  0.00  0.00    -0.646 OA
ENDBRANCH  17  18
BRANCH  17  21
HETATM   21  C           1     -21.686  -7.100  -4.043  0.00  0.00     0.040 C 
BRANCH  21  22
HETATM   22  C           1     -21.144  -6.741  -2.666  0.00  0.00    -0.020 C 
HETATM   23  C           1     -22.273  -6.197  -1.802  0.00  0.00     0.009 C 
HETATM   24  C           1     -20.559  -7.986  -2.012  0.00  0.00     0.009 C 
ENDBRANCH  21  22
ENDBRANCH  17  21
ENDBRANCH   1  17
TORSDOF 9
ENDMDL
MODEL 7
REMARK VINA RESULT:      -5.8     12.761     15.190
REMARK  9 active torsions:
REMARK  status: ('A' for Active; 'I' for Inactive)
REMARK    1  A    between atoms: N_6  and  C_20 
REMARK       I    between atoms: N_6  and  C_7 
REMARK    2  A    between atoms: C_7  and  C_24 
REMARK    3  A    between atoms: N_8  and  C_24 
REMARK    4  A    between atoms: C_11  and  C_24 
REMARK    5  A    between atoms: C_11  and  C_12 
REMARK    6  A    between atoms: C_12  and  C_13 
REMARK       I    between atoms: C_13  and  N_22 
REMARK    7  A    between atoms: C_19  and  C_20 
REMARK    8  A    between atoms: C_20  and  C_21 
REMARK    9  A    between atoms: C_21  and  C_23 
ROOT
HETATM    1  N           1     -21.788  -5.163  -8.430  0.00  0.00    -0.345 N 
HETATM    2  C           1     -23.027  -4.586  -8.510  0.00  0.00     0.249 C 
HETATM    3  O           1     -23.532  -4.099  -7.526  0.00  0.00    -0.271 OA
HETATM    4  H           1     -21.365  -5.570  -9.254  0.00  0.00     0.163 HD
ENDROOT
BRANCH   2   5
HETATM    5  C           1     -23.762  -4.557  -9.827  0.00  0.00     0.275 C 
BRANCH   5   6
HETATM    6  N           1     -25.232  -4.392  -9.574  0.00  0.00    -0.066 N 
HETATM    7  H           1     -25.437  -3.393  -9.346  0.00  0.00     0.275 HD
HETATM    8  H           1     -25.765  -4.670 -10.428  0.00  0.00     0.275 HD
HETATM    9  H           1     -25.517  -4.998  -8.771  0.00  0.00     0.275 HD
ENDBRANCH   5   6
BRANCH   5  10
HETATM   10  C           1     -23.258  -3.389 -10.666  0.00  0.00     0.052 C 
BRANCH  10  11
HETATM   11  C           1     -22.394  -3.916 -11.804  0.00  0.00     0.105 C 
BRANCH  11  12
HETATM   12  C           1     -20.941  -3.857 -11.402  0.00  0.00     0.215 C 
HETATM   13  N           1     -20.280  -2.658 -11.401  0.00  0.00    -0.370 N 
HETATM   14  H           1     -19.305  -2.618 -11.131  0.00  0.00     0.159 HD
HETATM   15  H           1     -20.765  -1.812 -11.671  0.00  0.00     0.159 HD
HETATM   16  O           1     -20.362  -4.867 -11.080  0.00  0.00    -0.274 OA
ENDBRANCH  11  12
ENDBRANCH  10  11
ENDBRANCH   5  10
ENDBRANCH   2   5
BRANCH   1  17
HETATM   17  C           1     -21.081  -5.189  -7.164  0.00  0.00     0.185 C 
BRANCH  17  18
HETATM   18  C           1     -19.798  -4.406  -7.288  0.00  0.00     0.196 C 
HETATM   19  O           1     -18.879  -4.578  -6.457  0.00  0.00    -0.646 OA
HETATM   20  O           1     -19.653  -3.587  -8.220  0.00  0.00    -0.646 OA
ENDBRANCH  17  18
BRANCH  17  21
HETATM   21  C           1     -20.764  -6.631  -6.791  0.00  0.00     0.040 C 
BRANCH  21  22
HETATM   22  C           1     -21.103  -6.863  -5.325  0.00  0.00    -0.020 C 
HETATM   23  C           1     -22.517  -6.371  -5.048  0.00  0.00     0.009 C 
HETATM   24  C           1     -21.013  -8.352  -5.014  0.00  0.00     0.009 C 
ENDBRANCH  21  22
ENDBRANCH  17  21
ENDBRANCH   1  17
TORSDOF 9
ENDMDL
MODEL 8
REMARK VINA RESULT:      -5.7     13.656     16.394
REMARK  9 active torsions:
REMARK  status: ('A' for Active; 'I' for Inactive)
REMARK    1  A    between atoms: N_6  and  C_20 
REMARK       I    between atoms: N_6  and  C_7 
REMARK    2  A    between atoms: C_7  and  C_24 
REMARK    3  A    between atoms: N_8  and  C_24 
REMARK    4  A    between atoms: C_11  and  C_24 
REMARK    5  A    between atoms: C_11  and  C_12 
REMARK    6  A    between atoms: C_12  and  C_13 
REMARK       I    between atoms: C_13  and  N_22 
REMARK    7  A    between atoms: C_19  and  C_20 
REMARK    8  A    between atoms: C_20  and  C_21 
REMARK    9  A    between atoms: C_21  and  C_23 
ROOT
HETATM    1  N           1     -20.853  -6.782  -4.673  0.00  0.00    -0.345 N 
HETATM    2  C           1     -21.507  -5.936  -5.528  0.00  0.00     0.249 C 
HETATM    3  O           1     -22.715  -5.874  -5.510  0.00  0.00    -0.271 OA
HETATM    4  H           1     -19.843  -6.834  -4.687  0.00  0.00     0.163 HD
ENDROOT
BRANCH   2   5
HETATM    5  C           1     -20.723  -5.081  -6.491  0.00  0.00     0.275 C 
BRANCH   5   6
HETATM    6  N           1     -20.043  -5.960  -7.499  0.00  0.00    -0.066 N 
HETATM    7  H           1     -19.517  -5.368  -8.181  0.00  0.00     0.275 HD
HETATM    8  H           1     -19.378  -6.600  -7.010  0.00  0.00     0.275 HD
HETATM    9  H           1     -20.760  -6.525  -8.008  0.00  0.00     0.275 HD
ENDBRANCH   5   6
BRANCH   5  10
HETATM   10  C           1     -21.667  -4.124  -7.208  0.00  0.00     0.052 C 
BRANCH  10  11
HETATM   11  C           1     -21.677  -4.442  -8.698  0.00  0.00     0.105 C 
BRANCH  11  12
HETATM   12  C           1     -23.096  -4.406  -9.211  0.00  0.00     0.215 C 
HETATM   13  N           1     -24.071  -3.781  -8.482  0.00  0.00    -0.370 N 
HETATM   14  H           1     -25.023  -3.757  -8.826  0.00  0.00     0.159 HD
HETATM   15  H           1     -23.841  -3.344  -7.598  0.00  0.00     0.159 HD
HETATM   16  O           1     -23.370  -4.928 -10.265  0.00  0.00    -0.274 OA
ENDBRANCH  11  12
ENDBRANCH  10  11
ENDBRANCH   5  10
ENDBRANCH   2   5
BRANCH   1  17
HETATM   17  C           1     -21.609  -7.603  -3.746  0.00  0.00     0.185 C 
BRANCH  17  18
HETATM   18  C           1     -21.614  -6.951  -2.386  0.00  0.00     0.196 C 
HETATM   19  O           1     -20.968  -7.462  -1.445  0.00  0.00    -0.646 OA
HETATM   20  O           1     -22.264  -5.899  -2.200  0.00  0.00    -0.646 OA
ENDBRANCH  17  18
BRANCH  17  21
HETATM   21  C           1     -20.964  -8.979  -3.648  0.00  0.00     0.040 C 
BRANCH  21  22
HETATM   22  C           1     -22.021 -10.052  -3.875  0.00  0.00    -0.020 C 
HETATM   23  C           1     -21.461 -11.127  -4.798  0.00  0.00     0.009 C 
HETATM   24  C           1     -22.403 -10.677  -2.540  0.00  0.00     0.009 C 
ENDBRANCH  21  22
ENDBRANCH  17  21
ENDBRANCH   1  17
TORSDOF 9
ENDMDL
MODEL 9
REMARK VINA RESULT:      -5.7     15.496     18.187
REMARK  9 active torsions:
REMARK  status: ('A' for Active; 'I' for Inactive)
REMARK    1  A    between atoms: N_6  and  C_20 
REMARK       I    between atoms: N_6  and  C_7 
REMARK    2  A    between atoms: C_7  and  C_24 
REMARK    3  A    between atoms: N_8  and  C_24 
REMARK    4  A    between atoms: C_11  and  C_24 
REMARK    5  A    between atoms: C_11  and  C_12 
REMARK    6  A    between atoms: C_12  and  C_13 
REMARK       I    between atoms: C_13  and  N_22 
REMARK    7  A    between atoms: C_19  and  C_20 
REMARK    8  A    between atoms: C_20  and  C_21 
REMARK    9  A    between atoms: C_21  and  C_23 
ROOT
HETATM    1  N           1     -21.159  -9.038  -2.077  0.00  0.00    -0.345 N 
HETATM    2  C           1     -21.361  -9.609  -3.305  0.00  0.00     0.249 C 
HETATM    3  O           1     -22.374 -10.233  -3.522  0.00  0.00    -0.271 OA
HETATM    4  H           1     -20.312  -8.515  -1.896  0.00  0.00     0.163 HD
ENDROOT
BRANCH   2   5
HETATM    5  C           1     -20.321  -9.460  -4.387  0.00  0.00     0.275 C 
BRANCH   5   6
HETATM    6  N           1     -20.763 -10.210  -5.609  0.00  0.00    -0.066 N 
HETATM    7  H           1     -20.985 -11.199  -5.351  0.00  0.00     0.275 HD
HETATM    8  H           1     -21.614  -9.756  -6.008  0.00  0.00     0.275 HD
HETATM    9  H           1     -19.996 -10.201  -6.320  0.00  0.00     0.275 HD
ENDBRANCH   5   6
BRANCH   5  10
HETATM   10  C           1     -20.152  -7.986  -4.731  0.00  0.00     0.052 C 
BRANCH  10  11
HETATM   11  C           1     -21.307  -7.534  -5.615  0.00  0.00     0.105 C 
BRANCH  11  12
HETATM   12  C           1     -22.004  -6.360  -4.973  0.00  0.00     0.215 C 
HETATM   13  N           1     -21.773  -6.064  -3.657  0.00  0.00    -0.370 N 
HETATM   14  H           1     -22.241  -5.276  -3.225  0.00  0.00     0.159 HD
HETATM   15  H           1     -21.136  -6.633  -3.114  0.00  0.00     0.159 HD
HETATM   16  O           1     -22.764  -5.681  -5.621  0.00  0.00    -0.274 OA
ENDBRANCH  11  12
ENDBRANCH  10  11
ENDBRANCH   5  10
ENDBRANCH   2   5
BRANCH   1  17
HETATM   17  C           1     -22.160  -9.180  -1.037  0.00  0.00     0.185 C 
BRANCH  17  18
HETATM   18  C           1     -22.298  -7.878  -0.289  0.00  0.00     0.196 C 
HETATM   19  O           1     -22.681  -6.850  -0.890  0.00  0.00    -0.646 OA
HETATM   20  O           1     -22.029  -7.826   0.930  0.00  0.00    -0.646 OA
ENDBRANCH  17  18
BRANCH  17  21
HETATM   21  C           1     -21.735 -10.279  -0.072  0.00  0.00     0.040 C 
BRANCH  21  22
HETATM   22  C           1     -22.627 -11.498  -0.265  0.00  0.00    -0.020 C 
HETATM   23  C           1     -22.328 -12.522   0.822  0.00  0.00     0.009 C 
HETATM   24  C           1     -24.088 -11.075  -0.177  0.00  0.00     0.009 C 
ENDBRANCH  21  22
ENDBRANCH  17  21
ENDBRANCH   1  17
TORSDOF 9
ENDMDL
