MODEL 1
REMARK VINA RESULT:      -6.2      0.000      0.000
REMARK  10 active torsions:
REMARK  status: ('A' for Active; 'I' for Inactive)
REMARK    1  A    between atoms: C_1  and  C_22 
REMARK    2  A    between atoms: C_1  and  C_2 
REMARK    3  A    between atoms: C_1  and  N_6 
REMARK    4  A    between atoms: C_2  and  C_3 
REMARK    5  A    between atoms: C_3  and  Se_4 
REMARK    6  A    between atoms: C_10  and  C_12 
REMARK    7  A    between atoms: C_12  and  C_13 
REMARK    8  A    between atoms: C_13  and  C_14 
REMARK    9  A    between atoms: C_14  and  C_18 
REMARK   10  A    between atoms: C_14  and  N_21 
REMARK       I    between atoms: N_21  and  C_22 
ROOT
HETATM    1  O           1     -27.383  -6.207 -16.352  0.00  0.00    -0.271 OA
HETATM    2  H           1     -27.868  -7.034 -19.339  0.00  0.00     0.163 HD
HETATM    3  N           1     -28.095  -6.834 -18.374  0.00  0.00    -0.345 N 
HETATM    4  C           1     -27.111  -6.446 -17.506  0.00  0.00     0.249 C 
ENDROOT
BRANCH   3   5
HETATM    5  C           1     -29.464  -6.959 -17.910  0.00  0.00     0.186 C 
BRANCH   5   6
HETATM    6  C           1     -30.162  -5.610 -18.020  0.00  0.00     0.046 C 
BRANCH   6   7
HETATM    7  C           1     -30.936  -5.332 -16.738  0.00  0.00     0.116 C 
BRANCH   7   8
HETATM    8  C           1     -31.832  -4.135 -16.940  0.00  0.00     0.172 C 
HETATM    9  O           1     -32.999  -4.146 -16.492  0.00  0.00    -0.648 OA
HETATM   10  O           1     -31.408  -3.133 -17.555  0.00  0.00    -0.648 OA
ENDBRANCH   7   8
ENDBRANCH   6   7
ENDBRANCH   5   6
BRANCH   5  11
HETATM   11  C           1     -30.192  -7.973 -18.758  0.00  0.00     0.196 C 
HETATM   12  O           1     -31.435  -7.915 -18.873  0.00  0.00    -0.646 OA
HETATM   13  O           1     -29.551  -8.871 -19.345  0.00  0.00    -0.646 OA
ENDBRANCH   5  11
ENDBRANCH   3   5
BRANCH   4  14
HETATM   14  C           1     -25.687  -6.316 -17.987  0.00  0.00     0.274 C 
BRANCH  14  15
HETATM   15  C           1     -25.609  -6.704 -19.457  0.00  0.00     0.042 C 
BRANCH  15  16
HETATM   16  C           1     -24.291  -7.418 -19.725  0.00  0.00     0.003 C 
BRANCH  16  17
HETATM   17 Se           1     -24.226  -7.986 -21.589  0.00  0.00     0.000 Se
HETATM   18  C           1     -22.398  -8.657 -21.490  0.00  0.00     0.000 C 
ENDBRANCH  16  17
ENDBRANCH  15  16
ENDBRANCH  14  15
BRANCH  14  19
HETATM   19  N           1     -24.804  -7.225 -17.184  0.00  0.00    -0.067 N 
HETATM   20  H           1     -25.336  -7.592 -16.363  0.00  0.00     0.275 HD
HETATM   21  H           1     -24.491  -8.023 -17.780  0.00  0.00     0.275 HD
HETATM   22  H           1     -23.970  -6.691 -16.849  0.00  0.00     0.275 HD
ENDBRANCH  14  19
ENDBRANCH   4  14
TORSDOF 10
ENDMDL
MODEL 2
REMARK VINA RESULT:      -5.7     12.789     14.709
REMARK  10 active torsions:
REMARK  status: ('A' for Active; 'I' for Inactive)
REMARK    1  A    between atoms: C_1  and  C_22 
REMARK    2  A    between atoms: C_1  and  C_2 
REMARK    3  A    between atoms: C_1  and  N_6 
REMARK    4  A    between atoms: C_2  and  C_3 
REMARK    5  A    between atoms: C_3  and  Se_4 
REMARK    6  A    between atoms: C_10  and  C_12 
REMARK    7  A    between atoms: C_12  and  C_13 
REMARK    8  A    between atoms: C_13  and  C_14 
REMARK    9  A    between atoms: C_14  and  C_18 
REMARK   10  A    between atoms: C_14  and  N_21 
REMARK       I    between atoms: N_21  and  C_22 
ROOT
HETATM    1  O           1     -20.980  -4.009  -6.665  0.00  0.00    -0.271 OA
HETATM    2  H           1     -22.413  -6.797  -6.789  0.00  0.00     0.163 HD
HETATM    3  N           1     -21.807  -6.070  -6.430  0.00  0.00    -0.345 N 
HETATM    4  C           1     -21.704  -4.878  -7.093  0.00  0.00     0.249 C 
ENDROOT
BRANCH   3   5
HETATM    5  C           1     -21.048  -6.294  -5.216  0.00  0.00     0.186 C 
BRANCH   5   6
HETATM    6  C           1     -21.993  -6.703  -4.094  0.00  0.00     0.046 C 
BRANCH   6   7
HETATM    7  C           1     -21.546  -6.055  -2.790  0.00  0.00     0.116 C 
BRANCH   7   8
HETATM    8  C           1     -21.822  -6.993  -1.641  0.00  0.00     0.172 C 
HETATM    9  O           1     -22.749  -6.743  -0.840  0.00  0.00    -0.648 OA
HETATM   10  O           1     -21.125  -8.018  -1.490  0.00  0.00    -0.648 OA
ENDBRANCH   7   8
ENDBRANCH   6   7
ENDBRANCH   5   6
BRANCH   5  11
HETATM   11  C           1     -20.037  -7.391  -5.448  0.00  0.00     0.196 C 
HETATM   12  O           1     -19.929  -8.325  -4.625  0.00  0.00    -0.646 OA
HETATM   13  O           1     -19.309  -7.364  -6.463  0.00  0.00    -0.646 OA
ENDBRANCH   5  11
ENDBRANCH   3   5
BRANCH   4  14
HETATM   14  C           1     -22.493  -4.645  -8.357  0.00  0.00     0.274 C 
BRANCH  14  15
HETATM   15  C           1     -21.686  -3.773  -9.309  0.00  0.00     0.042 C 
BRANCH  15  16
HETATM   16  C           1     -21.763  -4.349 -10.716  0.00  0.00     0.003 C 
BRANCH  16  17
HETATM   17 Se           1     -22.359  -2.966 -11.954  0.00  0.00     0.000 Se
HETATM   18  C           1     -24.255  -3.221 -11.584  0.00  0.00     0.000 C 
ENDBRANCH  16  17
ENDBRANCH  15  16
ENDBRANCH  14  15
BRANCH  14  19
HETATM   19  N           1     -23.782  -3.955  -8.021  0.00  0.00    -0.067 N 
HETATM   20  H           1     -24.511  -4.668  -7.793  0.00  0.00     0.275 HD
HETATM   21  H           1     -23.638  -3.330  -7.197  0.00  0.00     0.275 HD
HETATM   22  H           1     -24.096  -3.386  -8.840  0.00  0.00     0.275 HD
ENDBRANCH  14  19
ENDBRANCH   4  14
TORSDOF 10
ENDMDL
MODEL 3
REMARK VINA RESULT:      -5.5      2.042      3.563
REMARK  10 active torsions:
REMARK  status: ('A' for Active; 'I' for Inactive)
REMARK    1  A    between atoms: C_1  and  C_22 
REMARK    2  A    between atoms: C_1  and  C_2 
REMARK    3  A    between atoms: C_1  and  N_6 
REMARK    4  A    between atoms: C_2  and  C_3 
REMARK    5  A    between atoms: C_3  and  Se_4 
REMARK    6  A    between atoms: C_10  and  C_12 
REMARK    7  A    between atoms: C_12  and  C_13 
REMARK    8  A    between atoms: C_13  and  C_14 
REMARK    9  A    between atoms: C_14  and  C_18 
REMARK   10  A    between atoms: C_14  and  N_21 
REMARK       I    between atoms: N_21  and  C_22 
ROOT
HETATM    1  O           1     -27.945  -5.513 -19.121  0.00  0.00    -0.271 OA
HETATM    2  H           1     -25.451  -7.224 -18.286  0.00  0.00     0.163 HD
HETATM    3  N           1     -26.275  -6.650 -18.167  0.00  0.00    -0.345 N 
HETATM    4  C           1     -26.960  -6.199 -19.263  0.00  0.00     0.249 C 
ENDROOT
BRANCH   3   5
HETATM    5  C           1     -26.731  -6.303 -16.835  0.00  0.00     0.186 C 
BRANCH   5   6
HETATM    6  C           1     -27.883  -7.216 -16.439  0.00  0.00     0.046 C 
BRANCH   6   7
HETATM    7  C           1     -28.948  -6.406 -15.713  0.00  0.00     0.116 C 
BRANCH   7   8
HETATM    8  C           1     -30.135  -6.203 -16.622  0.00  0.00     0.172 C 
HETATM    9  O           1     -30.721  -5.100 -16.648  0.00  0.00    -0.648 OA
HETATM   10  O           1     -30.532  -7.139 -17.349  0.00  0.00    -0.648 OA
ENDBRANCH   7   8
ENDBRANCH   6   7
ENDBRANCH   5   6
BRANCH   5  11
HETATM   11  C           1     -25.595  -6.472 -15.855  0.00  0.00     0.196 C 
HETATM   12  O           1     -25.032  -5.466 -15.372  0.00  0.00    -0.646 OA
HETATM   13  O           1     -25.218  -7.617 -15.527  0.00  0.00    -0.646 OA
ENDBRANCH   5  11
ENDBRANCH   3   5
BRANCH   4  14
HETATM   14  C           1     -26.486  -6.558 -20.649  0.00  0.00     0.274 C 
BRANCH  14  15
HETATM   15  C           1     -25.833  -7.933 -20.625  0.00  0.00     0.042 C 
BRANCH  15  16
HETATM   16  C           1     -24.319  -7.777 -20.618  0.00  0.00     0.003 C 
BRANCH  16  17
HETATM   17 Se           1     -23.613  -8.198 -22.385  0.00  0.00     0.000 Se
HETATM   18  C           1     -21.931  -8.926 -21.720  0.00  0.00     0.000 C 
ENDBRANCH  16  17
ENDBRANCH  15  16
ENDBRANCH  14  15
BRANCH  14  19
HETATM   19  N           1     -25.487  -5.540 -21.115  0.00  0.00    -0.067 N 
HETATM   20  H           1     -25.576  -5.411 -22.148  0.00  0.00     0.275 HD
HETATM   21  H           1     -25.667  -4.630 -20.634  0.00  0.00     0.275 HD
HETATM   22  H           1     -24.522  -5.871 -20.887  0.00  0.00     0.275 HD
ENDBRANCH  14  19
ENDBRANCH   4  14
TORSDOF 10
ENDMDL
MODEL 4
REMARK VINA RESULT:      -5.5     13.863     15.542
REMARK  10 active torsions:
REMARK  status: ('A' for Active; 'I' for Inactive)
REMARK    1  A    between atoms: C_1  and  C_22 
REMARK    2  A    between atoms: C_1  and  C_2 
REMARK    3  A    between atoms: C_1  and  N_6 
REMARK    4  A    between atoms: C_2  and  C_3 
REMARK    5  A    between atoms: C_3  and  Se_4 
REMARK    6  A    between atoms: C_10  and  C_12 
REMARK    7  A    between atoms: C_12  and  C_13 
REMARK    8  A    between atoms: C_13  and  C_14 
REMARK    9  A    between atoms: C_14  and  C_18 
REMARK   10  A    between atoms: C_14  and  N_21 
REMARK       I    between atoms: N_21  and  C_22 
ROOT
HETATM    1  O           1     -19.720  -7.340  -5.951  0.00  0.00    -0.271 OA
HETATM    2  H           1     -22.575  -7.651  -4.686  0.00  0.00     0.163 HD
HETATM    3  N           1     -21.599  -7.855  -4.858  0.00  0.00    -0.345 N 
HETATM    4  C           1     -20.886  -7.096  -5.745  0.00  0.00     0.249 C 
ENDROOT
BRANCH   3   5
HETATM    5  C           1     -20.955  -8.954  -4.164  0.00  0.00     0.186 C 
BRANCH   5   6
HETATM    6  C           1     -21.392  -8.958  -2.705  0.00  0.00     0.046 C 
BRANCH   6   7
HETATM    7  C           1     -20.907  -7.684  -2.025  0.00  0.00     0.116 C 
BRANCH   7   8
HETATM    8  C           1     -22.085  -6.783  -1.744  0.00  0.00     0.172 C 
HETATM    9  O           1     -22.450  -5.948  -2.599  0.00  0.00    -0.648 OA
HETATM   10  O           1     -22.694  -6.873  -0.657  0.00  0.00    -0.648 OA
ENDBRANCH   7   8
ENDBRANCH   6   7
ENDBRANCH   5   6
BRANCH   5  11
HETATM   11  C           1     -21.351 -10.259  -4.811  0.00  0.00     0.196 C 
HETATM   12  O           1     -20.959 -10.526  -5.968  0.00  0.00    -0.646 OA
HETATM   13  O           1     -22.069 -11.071  -4.192  0.00  0.00    -0.646 OA
ENDBRANCH   5  11
ENDBRANCH   3   5
BRANCH   4  14
HETATM   14  C           1     -21.555  -5.953  -6.468  0.00  0.00     0.274 C 
BRANCH  14  15
HETATM   15  C           1     -20.584  -4.786  -6.586  0.00  0.00     0.042 C 
BRANCH  15  16
HETATM   16  C           1     -21.277  -3.615  -7.269  0.00  0.00     0.003 C 
BRANCH  16  17
HETATM   17 Se           1     -22.052  -4.211  -8.956  0.00  0.00     0.000 Se
HETATM   18  C           1     -20.345  -4.329  -9.888  0.00  0.00     0.000 C 
ENDBRANCH  16  17
ENDBRANCH  15  16
ENDBRANCH  14  15
BRANCH  14  19
HETATM   19  N           1     -22.767  -5.517  -5.699  0.00  0.00    -0.067 N 
HETATM   20  H           1     -22.702  -5.867  -4.717  0.00  0.00     0.275 HD
HETATM   21  H           1     -22.819  -4.473  -5.693  0.00  0.00     0.275 HD
HETATM   22  H           1     -23.625  -5.906  -6.153  0.00  0.00     0.275 HD
ENDBRANCH  14  19
ENDBRANCH   4  14
TORSDOF 10
ENDMDL
MODEL 5
REMARK VINA RESULT:      -5.3      3.393      6.291
REMARK  10 active torsions:
REMARK  status: ('A' for Active; 'I' for Inactive)
REMARK    1  A    between atoms: C_1  and  C_22 
REMARK    2  A    between atoms: C_1  and  C_2 
REMARK    3  A    between atoms: C_1  and  N_6 
REMARK    4  A    between atoms: C_2  and  C_3 
REMARK    5  A    between atoms: C_3  and  Se_4 
REMARK    6  A    between atoms: C_10  and  C_12 
REMARK    7  A    between atoms: C_12  and  C_13 
REMARK    8  A    between atoms: C_13  and  C_14 
REMARK    9  A    between atoms: C_14  and  C_18 
REMARK   10  A    between atoms: C_14  and  N_21 
REMARK       I    between atoms: N_21  and  C_22 
ROOT
HETATM    1  O           1     -28.234  -5.268 -19.135  0.00  0.00    -0.271 OA
HETATM    2  H           1     -27.372  -8.276 -18.901  0.00  0.00     0.163 HD
HETATM    3  N           1     -27.286  -7.290 -19.114  0.00  0.00    -0.345 N 
HETATM    4  C           1     -28.336  -6.445 -18.879  0.00  0.00     0.249 C 
ENDROOT
BRANCH   3   5
HETATM    5  C           1     -26.050  -6.774 -19.671  0.00  0.00     0.186 C 
BRANCH   5   6
HETATM    6  C           1     -24.947  -6.863 -18.625  0.00  0.00     0.046 C 
BRANCH   6   7
HETATM    7  C           1     -25.481  -6.386 -17.281  0.00  0.00     0.116 C 
BRANCH   7   8
HETATM    8  C           1     -24.968  -7.290 -16.186  0.00  0.00     0.172 C 
HETATM    9  O           1     -25.317  -7.096 -15.002  0.00  0.00    -0.648 OA
HETATM   10  O           1     -24.195  -8.231 -16.464  0.00  0.00    -0.648 OA
ENDBRANCH   7   8
ENDBRANCH   6   7
ENDBRANCH   5   6
BRANCH   5  11
HETATM   11  C           1     -25.664  -7.590 -20.881  0.00  0.00     0.196 C 
HETATM   12  O           1     -26.436  -8.475 -21.310  0.00  0.00    -0.646 OA
HETATM   13  O           1     -24.573  -7.381 -21.452  0.00  0.00    -0.646 OA
ENDBRANCH   5  11
ENDBRANCH   3   5
BRANCH   4  14
HETATM   14  C           1     -29.622  -6.981 -18.301  0.00  0.00     0.274 C 
BRANCH  14  15
HETATM   15  C           1     -29.536  -6.983 -16.781  0.00  0.00     0.042 C 
BRANCH  15  16
HETATM   16  C           1     -30.164  -5.708 -16.235  0.00  0.00     0.003 C 
BRANCH  16  17
HETATM   17 Se           1     -31.928  -5.461 -17.026  0.00  0.00     0.000 Se
HETATM   18  C           1     -31.583  -3.641 -17.630  0.00  0.00     0.000 C 
ENDBRANCH  16  17
ENDBRANCH  15  16
ENDBRANCH  14  15
BRANCH  14  19
HETATM   19  N           1     -29.844  -8.382 -18.790  0.00  0.00    -0.067 N 
HETATM   20  H           1     -28.926  -8.815 -19.038  0.00  0.00     0.275 HD
HETATM   21  H           1     -30.300  -8.946 -18.037  0.00  0.00     0.275 HD
HETATM   22  H           1     -30.460  -8.363 -19.634  0.00  0.00     0.275 HD
ENDBRANCH  14  19
ENDBRANCH   4  14
TORSDOF 10
ENDMDL
MODEL 6
REMARK VINA RESULT:      -5.2     14.178     15.936
REMARK  10 active torsions:
REMARK  status: ('A' for Active; 'I' for Inactive)
REMARK    1  A    between atoms: C_1  and  C_22 
REMARK    2  A    between atoms: C_1  and  C_2 
REMARK    3  A    between atoms: C_1  and  N_6 
REMARK    4  A    between atoms: C_2  and  C_3 
REMARK    5  A    between atoms: C_3  and  Se_4 
REMARK    6  A    between atoms: C_10  and  C_12 
REMARK    7  A    between atoms: C_12  and  C_13 
REMARK    8  A    between atoms: C_13  and  C_14 
REMARK    9  A    between atoms: C_14  and  C_18 
REMARK   10  A    between atoms: C_14  and  N_21 
REMARK       I    between atoms: N_21  and  C_22 
ROOT
HETATM    1  O           1     -20.223  -5.590  -5.438  0.00  0.00    -0.271 OA
HETATM    2  H           1     -23.130  -6.333  -4.522  0.00  0.00     0.163 HD
HETATM    3  N           1     -22.124  -6.243  -4.464  0.00  0.00    -0.345 N 
HETATM    4  C           1     -21.425  -5.698  -5.507  0.00  0.00     0.249 C 
ENDROOT
BRANCH   3   5
HETATM    5  C           1     -21.423  -6.693  -3.278  0.00  0.00     0.186 C 
BRANCH   5   6
HETATM    6  C           1     -22.356  -6.615  -2.077  0.00  0.00     0.046 C 
BRANCH   6   7
HETATM    7  C           1     -21.696  -7.281  -0.876  0.00  0.00     0.116 C 
BRANCH   7   8
HETATM    8  C           1     -22.660  -8.259  -0.250  0.00  0.00     0.172 C 
HETATM    9  O           1     -22.739  -9.426  -0.691  0.00  0.00    -0.648 OA
HETATM   10  O           1     -23.378  -7.903   0.708  0.00  0.00    -0.648 OA
ENDBRANCH   7   8
ENDBRANCH   6   7
ENDBRANCH   5   6
BRANCH   5  11
HETATM   11  C           1     -20.969  -8.119  -3.471  0.00  0.00     0.196 C 
HETATM   12  O           1     -19.776  -8.429  -3.265  0.00  0.00    -0.646 OA
HETATM   13  O           1     -21.787  -8.990  -3.838  0.00  0.00    -0.646 OA
ENDBRANCH   5  11
ENDBRANCH   3   5
BRANCH   4  14
HETATM   14  C           1     -22.154  -5.230  -6.742  0.00  0.00     0.274 C 
BRANCH  14  15
HETATM   15  C           1     -21.510  -3.952  -7.261  0.00  0.00     0.042 C 
BRANCH  15  16
HETATM   16  C           1     -22.333  -3.400  -8.417  0.00  0.00     0.003 C 
BRANCH  16  17
HETATM   17 Se           1     -21.990  -4.452 -10.021  0.00  0.00     0.000 Se
HETATM   18  C           1     -23.868  -4.841 -10.367  0.00  0.00     0.000 C 
ENDBRANCH  16  17
ENDBRANCH  15  16
ENDBRANCH  14  15
BRANCH  14  19
HETATM   19  N           1     -23.590  -4.962  -6.403  0.00  0.00    -0.067 N 
HETATM   20  H           1     -23.667  -4.693  -5.396  0.00  0.00     0.275 HD
HETATM   21  H           1     -23.950  -4.183  -6.999  0.00  0.00     0.275 HD
HETATM   22  H           1     -24.156  -5.824  -6.577  0.00  0.00     0.275 HD
ENDBRANCH  14  19
ENDBRANCH   4  14
TORSDOF 10
ENDMDL
MODEL 7
REMARK VINA RESULT:      -5.1     14.738     16.351
REMARK  10 active torsions:
REMARK  status: ('A' for Active; 'I' for Inactive)
REMARK    1  A    between atoms: C_1  and  C_22 
REMARK    2  A    between atoms: C_1  and  C_2 
REMARK    3  A    between atoms: C_1  and  N_6 
REMARK    4  A    between atoms: C_2  and  C_3 
REMARK    5  A    between atoms: C_3  and  Se_4 
REMARK    6  A    between atoms: C_10  and  C_12 
REMARK    7  A    between atoms: C_12  and  C_13 
REMARK    8  A    between atoms: C_13  and  C_14 
REMARK    9  A    between atoms: C_14  and  C_18 
REMARK   10  A    between atoms: C_14  and  N_21 
REMARK       I    between atoms: N_21  and  C_22 
ROOT
HETATM    1  O           1     -20.411  -8.889  -5.508  0.00  0.00    -0.271 OA
HETATM    2  H           1     -22.243  -7.734  -3.239  0.00  0.00     0.163 HD
HETATM    3  N           1     -21.624  -8.387  -3.702  0.00  0.00    -0.345 N 
HETATM    4  C           1     -21.150  -8.109  -4.955  0.00  0.00     0.249 C 
ENDROOT
BRANCH   3   5
HETATM    5  C           1     -21.241  -9.617  -3.038  0.00  0.00     0.186 C 
BRANCH   5   6
HETATM    6  C           1     -20.975  -9.338  -1.565  0.00  0.00     0.046 C 
BRANCH   6   7
HETATM    7  C           1     -20.800  -7.840  -1.355  0.00  0.00     0.116 C 
BRANCH   7   8
HETATM    8  C           1     -22.127  -7.224  -0.985  0.00  0.00     0.172 C 
HETATM    9  O           1     -22.789  -7.691  -0.033  0.00  0.00    -0.648 OA
HETATM   10  O           1     -22.564  -6.248  -1.631  0.00  0.00    -0.648 OA
ENDBRANCH   7   8
ENDBRANCH   6   7
ENDBRANCH   5   6
BRANCH   5  11
HETATM   11  C           1     -22.356 -10.627  -3.166  0.00  0.00     0.196 C 
HETATM   12  O           1     -22.473 -11.300  -4.213  0.00  0.00    -0.646 OA
HETATM   13  O           1     -23.163 -10.789  -2.226  0.00  0.00    -0.646 OA
ENDBRANCH   5  11
ENDBRANCH   3   5
BRANCH   4  14
HETATM   14  C           1     -21.549  -6.829  -5.647  0.00  0.00     0.274 C 
BRANCH  14  15
HETATM   15  C           1     -20.382  -5.851  -5.622  0.00  0.00     0.042 C 
BRANCH  15  16
HETATM   16  C           1     -20.132  -5.323  -7.028  0.00  0.00     0.003 C 
BRANCH  16  17
HETATM   17 Se           1     -21.321  -3.819  -7.380  0.00  0.00     0.000 Se
HETATM   18  C           1     -22.218  -4.669  -8.887  0.00  0.00     0.000 C 
ENDBRANCH  16  17
ENDBRANCH  15  16
ENDBRANCH  14  15
BRANCH  14  19
HETATM   19  N           1     -22.723  -6.222  -4.937  0.00  0.00    -0.067 N 
HETATM   20  H           1     -22.415  -5.846  -4.012  0.00  0.00     0.275 HD
HETATM   21  H           1     -23.116  -5.445  -5.514  0.00  0.00     0.275 HD
HETATM   22  H           1     -23.456  -6.953  -4.789  0.00  0.00     0.275 HD
ENDBRANCH  14  19
ENDBRANCH   4  14
TORSDOF 10
ENDMDL
MODEL 8
REMARK VINA RESULT:      -5.1     13.450     15.676
REMARK  10 active torsions:
REMARK  status: ('A' for Active; 'I' for Inactive)
REMARK    1  A    between atoms: C_1  and  C_22 
REMARK    2  A    between atoms: C_1  and  C_2 
REMARK    3  A    between atoms: C_1  and  N_6 
REMARK    4  A    between atoms: C_2  and  C_3 
REMARK    5  A    between atoms: C_3  and  Se_4 
REMARK    6  A    between atoms: C_10  and  C_12 
REMARK    7  A    between atoms: C_12  and  C_13 
REMARK    8  A    between atoms: C_13  and  C_14 
REMARK    9  A    between atoms: C_14  and  C_18 
REMARK   10  A    between atoms: C_14  and  N_21 
REMARK       I    between atoms: N_21  and  C_22 
ROOT
HETATM    1  O           1     -22.616  -5.529  -5.805  0.00  0.00    -0.271 OA
HETATM    2  H           1     -19.786  -6.379  -4.751  0.00  0.00     0.163 HD
HETATM    3  N           1     -20.793  -6.390  -4.843  0.00  0.00    -0.345 N 
HETATM    4  C           1     -21.412  -5.516  -5.695  0.00  0.00     0.249 C 
ENDROOT
BRANCH   3   5
HETATM    5  C           1     -21.582  -7.330  -4.071  0.00  0.00     0.186 C 
BRANCH   5   6
HETATM    6  C           1     -20.919  -8.701  -4.111  0.00  0.00     0.046 C 
BRANCH   6   7
HETATM    7  C           1     -19.542  -8.582  -4.749  0.00  0.00     0.116 C 
BRANCH   7   8
HETATM    8  C           1     -19.123  -9.923  -5.299  0.00  0.00     0.172 C 
HETATM    9  O           1     -19.885 -10.548  -6.069  0.00  0.00    -0.648 OA
HETATM   10  O           1     -18.016 -10.410  -4.984  0.00  0.00    -0.648 OA
ENDBRANCH   7   8
ENDBRANCH   6   7
ENDBRANCH   5   6
BRANCH   5  11
HETATM   11  C           1     -21.672  -6.856  -2.641  0.00  0.00     0.196 C 
HETATM   12  O           1     -20.981  -7.406  -1.755  0.00  0.00    -0.646 OA
HETATM   13  O           1     -22.438  -5.915  -2.342  0.00  0.00    -0.646 OA
ENDBRANCH   5  11
ENDBRANCH   3   5
BRANCH   4  14
HETATM   14  C           1     -20.593  -4.537  -6.499  0.00  0.00     0.274 C 
BRANCH  14  15
HETATM   15  C           1     -21.468  -3.894  -7.565  0.00  0.00     0.042 C 
BRANCH  15  16
HETATM   16  C           1     -20.924  -4.237  -8.945  0.00  0.00     0.003 C 
BRANCH  16  17
HETATM   17 Se           1     -22.275  -3.844 -10.294  0.00  0.00     0.000 Se
HETATM   18  C           1     -23.773  -3.909  -9.048  0.00  0.00     0.000 C 
ENDBRANCH  16  17
ENDBRANCH  15  16
ENDBRANCH  14  15
BRANCH  14  19
HETATM   19  N           1     -19.455  -5.259  -7.157  0.00  0.00    -0.067 N 
HETATM   20  H           1     -18.598  -4.662  -7.129  0.00  0.00     0.275 HD
HETATM   21  H           1     -19.271  -6.154  -6.650  0.00  0.00     0.275 HD
HETATM   22  H           1     -19.703  -5.466  -8.152  0.00  0.00     0.275 HD
ENDBRANCH  14  19
ENDBRANCH   4  14
TORSDOF 10
ENDMDL
MODEL 9
REMARK VINA RESULT:      -5.0     13.856     15.796
REMARK  10 active torsions:
REMARK  status: ('A' for Active; 'I' for Inactive)
REMARK    1  A    between atoms: C_1  and  C_22 
REMARK    2  A    between atoms: C_1  and  C_2 
REMARK    3  A    between atoms: C_1  and  N_6 
REMARK    4  A    between atoms: C_2  and  C_3 
REMARK    5  A    between atoms: C_3  and  Se_4 
REMARK    6  A    between atoms: C_10  and  C_12 
REMARK    7  A    between atoms: C_12  and  C_13 
REMARK    8  A    between atoms: C_13  and  C_14 
REMARK    9  A    between atoms: C_14  and  C_18 
REMARK   10  A    between atoms: C_14  and  N_21 
REMARK       I    between atoms: N_21  and  C_22 
ROOT
HETATM    1  O           1     -22.725  -5.907  -5.511  0.00  0.00    -0.271 OA
HETATM    2  H           1     -19.837  -6.813  -4.687  0.00  0.00     0.163 HD
HETATM    3  N           1     -20.848  -6.778  -4.671  0.00  0.00    -0.345 N 
HETATM    4  C           1     -21.517  -5.949  -5.530  0.00  0.00     0.249 C 
ENDROOT
BRANCH   3   5
HETATM    5  C           1     -21.587  -7.606  -3.738  0.00  0.00     0.186 C 
BRANCH   5   6
HETATM    6  C           1     -20.932  -8.978  -3.648  0.00  0.00     0.046 C 
BRANCH   6   7
HETATM    7  C           1     -21.995 -10.059  -3.787  0.00  0.00     0.116 C 
BRANCH   7   8
HETATM    8  C           1     -22.255 -10.688  -2.440  0.00  0.00     0.172 C 
HETATM    9  O           1     -23.377 -11.175  -2.184  0.00  0.00    -0.648 OA
HETATM   10  O           1     -21.348 -10.721  -1.581  0.00  0.00    -0.648 OA
ENDBRANCH   7   8
ENDBRANCH   6   7
ENDBRANCH   5   6
BRANCH   5  11
HETATM   11  C           1     -21.584  -6.956  -2.376  0.00  0.00     0.196 C 
HETATM   12  O           1     -22.291  -5.947  -2.164  0.00  0.00    -0.646 OA
HETATM   13  O           1     -20.874  -7.425  -1.462  0.00  0.00    -0.646 OA
ENDBRANCH   5  11
ENDBRANCH   3   5
BRANCH   4  14
HETATM   14  C           1     -20.748  -5.087  -6.500  0.00  0.00     0.274 C 
BRANCH  14  15
HETATM   15  C           1     -21.701  -4.116  -7.185  0.00  0.00     0.042 C 
BRANCH  15  16
HETATM   16  C           1     -21.787  -4.449  -8.668  0.00  0.00     0.003 C 
BRANCH  16  17
HETATM   17 Se           1     -23.462  -3.763  -9.392  0.00  0.00     0.000 Se
HETATM   18  C           1     -22.718  -3.330 -11.141  0.00  0.00     0.000 C 
ENDBRANCH  16  17
ENDBRANCH  15  16
ENDBRANCH  14  15
BRANCH  14  19
HETATM   19  N           1     -20.096  -5.958  -7.533  0.00  0.00    -0.067 N 
HETATM   20  H           1     -19.065  -5.792  -7.529  0.00  0.00     0.275 HD
HETATM   21  H           1     -20.288  -6.961  -7.314  0.00  0.00     0.275 HD
HETATM   22  H           1     -20.483  -5.727  -8.477  0.00  0.00     0.275 HD
ENDBRANCH  14  19
ENDBRANCH   4  14
TORSDOF 10
ENDMDL
