MODEL 1
REMARK VINA RESULT:      -6.2      0.000      0.000
REMARK  9 active torsions:
REMARK  status: ('A' for Active; 'I' for Inactive)
REMARK    1  A    between atoms: C_1  and  C_7 
REMARK    2  A    between atoms: C_5  and  C_13 
REMARK    3  A    between atoms: C_5  and  C_6 
REMARK    4  A    between atoms: C_7  and  C_17 
REMARK    5  A    between atoms: C_7  and  N_10 
REMARK    6  A    between atoms: C_8  and  C_9 
REMARK    7  A    between atoms: C_8  and  C_13 
REMARK    8  A    between atoms: C_8  and  N_15 
REMARK       I    between atoms: C_9  and  N_10 
REMARK    9  A    between atoms: C_16  and  C_17 
ROOT
HETATM    1  O           1     -21.499  -3.225  -8.004  0.00  0.00    -0.271 OA
HETATM    2  C           1     -22.354  -4.052  -7.798  0.00  0.00     0.249 C 
HETATM    3  N           1     -23.261  -4.356  -8.778  0.00  0.00    -0.345 N 
HETATM    4  H           1     -23.979  -5.050  -8.605  0.00  0.00     0.163 HD
ENDROOT
BRANCH   2   5
HETATM    5  C           1     -22.425  -4.749  -6.461  0.00  0.00     0.275 C 
BRANCH   5   6
HETATM    6  C           1     -21.489  -5.949  -6.465  0.00  0.00     0.053 C 
BRANCH   6   7
HETATM    7  C           1     -20.621  -5.922  -5.213  0.00  0.00     0.115 C 
BRANCH   7   8
HETATM    8  C           1     -21.320  -6.664  -4.100  0.00  0.00     0.172 C 
HETATM    9  O           1     -20.945  -7.813  -3.783  0.00  0.00    -0.648 OA
HETATM   10  O           1     -22.274  -6.128  -3.495  0.00  0.00    -0.648 OA
ENDBRANCH   7   8
ENDBRANCH   6   7
ENDBRANCH   5   6
BRANCH   5  11
HETATM   11  N           1     -23.830  -5.212  -6.214  0.00  0.00    -0.066 N 
HETATM   12  H           1     -23.817  -6.204  -5.886  0.00  0.00     0.275 HD
HETATM   13  H           1     -24.270  -4.610  -5.482  0.00  0.00     0.275 HD
HETATM   14  H           1     -24.380  -5.145  -7.099  0.00  0.00     0.275 HD
ENDBRANCH   5  11
ENDBRANCH   2   5
BRANCH   3  15
HETATM   15  C           1     -23.193  -3.687 -10.062  0.00  0.00     0.185 C 
BRANCH  15  16
HETATM   16  C           1     -24.577  -3.244 -10.471  0.00  0.00     0.196 C 
HETATM   17  O           1     -25.421  -2.947  -9.598  0.00  0.00    -0.646 OA
HETATM   18  O           1     -24.878  -3.171 -11.681  0.00  0.00    -0.646 OA
ENDBRANCH  15  16
BRANCH  15  19
HETATM   19  C           1     -22.640  -4.648 -11.106  0.00  0.00     0.040 C 
BRANCH  19  20
HETATM   20  C           1     -21.283  -4.150 -11.587  0.00  0.00    -0.020 C 
HETATM   21  C           1     -21.237  -2.631 -11.490  0.00  0.00     0.009 C 
HETATM   22  C           1     -20.185  -4.748 -10.719  0.00  0.00     0.009 C 
ENDBRANCH  19  20
ENDBRANCH  15  19
ENDBRANCH   3  15
TORSDOF 9
ENDMDL
MODEL 2
REMARK VINA RESULT:      -6.1     12.733     15.229
REMARK  9 active torsions:
REMARK  status: ('A' for Active; 'I' for Inactive)
REMARK    1  A    between atoms: C_1  and  C_7 
REMARK    2  A    between atoms: C_5  and  C_13 
REMARK    3  A    between atoms: C_5  and  C_6 
REMARK    4  A    between atoms: C_7  and  C_17 
REMARK    5  A    between atoms: C_7  and  N_10 
REMARK    6  A    between atoms: C_8  and  C_9 
REMARK    7  A    between atoms: C_8  and  C_13 
REMARK    8  A    between atoms: C_8  and  N_15 
REMARK       I    between atoms: C_9  and  N_10 
REMARK    9  A    between atoms: C_16  and  C_17 
ROOT
HETATM    1  O           1     -36.611  -1.030 -13.238  0.00  0.00    -0.271 OA
HETATM    2  C           1     -35.620  -0.370 -13.034  0.00  0.00     0.249 C 
HETATM    3  N           1     -34.696  -0.790 -12.114  0.00  0.00    -0.345 N 
HETATM    4  H           1     -33.865  -0.238 -11.944  0.00  0.00     0.163 HD
ENDROOT
BRANCH   2   5
HETATM    5  C           1     -35.399   0.916 -13.792  0.00  0.00     0.275 C 
BRANCH   5   6
HETATM    6  C           1     -36.109   0.841 -15.136  0.00  0.00     0.053 C 
BRANCH   6   7
HETATM    7  C           1     -35.191   0.187 -16.161  0.00  0.00     0.115 C 
BRANCH   7   8
HETATM    8  C           1     -35.791  -1.122 -16.612  0.00  0.00     0.172 C 
HETATM    9  O           1     -36.923  -1.141 -17.142  0.00  0.00    -0.648 OA
HETATM   10  O           1     -35.155  -2.187 -16.457  0.00  0.00    -0.648 OA
ENDBRANCH   7   8
ENDBRANCH   6   7
ENDBRANCH   5   6
BRANCH   5  11
HETATM   11  N           1     -33.930   1.118 -14.014  0.00  0.00    -0.066 N 
HETATM   12  H           1     -33.392   0.570 -13.304  0.00  0.00     0.275 HD
HETATM   13  H           1     -33.674   0.789 -14.973  0.00  0.00     0.275 HD
HETATM   14  H           1     -33.699   2.132 -13.918  0.00  0.00     0.275 HD
ENDBRANCH   5  11
ENDBRANCH   2   5
BRANCH   3  15
HETATM   15  C           1     -34.907  -2.026 -11.386  0.00  0.00     0.185 C 
BRANCH  15  16
HETATM   16  C           1     -35.964  -1.812 -10.330  0.00  0.00     0.196 C 
HETATM   17  O           1     -36.936  -2.593 -10.252  0.00  0.00    -0.646 OA
HETATM   18  O           1     -35.867  -0.854  -9.534  0.00  0.00    -0.646 OA
ENDBRANCH  15  16
BRANCH  15  19
HETATM   19  C           1     -33.605  -2.452 -10.722  0.00  0.00     0.040 C 
BRANCH  19  20
HETATM   20  C           1     -33.212  -3.839 -11.215  0.00  0.00    -0.020 C 
HETATM   21  C           1     -34.035  -4.890 -10.481  0.00  0.00     0.009 C 
HETATM   22  C           1     -33.477  -3.940 -12.711  0.00  0.00     0.009 C 
ENDBRANCH  19  20
ENDBRANCH  15  19
ENDBRANCH   3  15
TORSDOF 9
ENDMDL
MODEL 3
REMARK VINA RESULT:      -6.1      1.462      1.683
REMARK  9 active torsions:
REMARK  status: ('A' for Active; 'I' for Inactive)
REMARK    1  A    between atoms: C_1  and  C_7 
REMARK    2  A    between atoms: C_5  and  C_13 
REMARK    3  A    between atoms: C_5  and  C_6 
REMARK    4  A    between atoms: C_7  and  C_17 
REMARK    5  A    between atoms: C_7  and  N_10 
REMARK    6  A    between atoms: C_8  and  C_9 
REMARK    7  A    between atoms: C_8  and  C_13 
REMARK    8  A    between atoms: C_8  and  N_15 
REMARK       I    between atoms: C_9  and  N_10 
REMARK    9  A    between atoms: C_16  and  C_17 
ROOT
HETATM    1  O           1     -21.246  -3.721  -7.790  0.00  0.00    -0.271 OA
HETATM    2  C           1     -21.571  -4.870  -7.966  0.00  0.00     0.249 C 
HETATM    3  N           1     -22.377  -5.200  -9.023  0.00  0.00    -0.345 N 
HETATM    4  H           1     -22.649  -6.164  -9.170  0.00  0.00     0.163 HD
ENDROOT
BRANCH   2   5
HETATM    5  C           1     -21.091  -5.944  -7.020  0.00  0.00     0.275 C 
BRANCH   5   6
HETATM    6  C           1     -21.311  -5.491  -5.584  0.00  0.00     0.053 C 
BRANCH   6   7
HETATM    7  C           1     -22.217  -6.485  -4.869  0.00  0.00     0.115 C 
BRANCH   7   8
HETATM    8  C           1     -21.812  -6.583  -3.419  0.00  0.00     0.172 C 
HETATM    9  O           1     -20.853  -7.311  -3.085  0.00  0.00    -0.648 OA
HETATM   10  O           1     -22.435  -5.934  -2.551  0.00  0.00    -0.648 OA
ENDBRANCH   7   8
ENDBRANCH   6   7
ENDBRANCH   5   6
BRANCH   5  11
HETATM   11  N           1     -19.630  -6.193  -7.248  0.00  0.00    -0.066 N 
HETATM   12  H           1     -19.512  -6.985  -7.920  0.00  0.00     0.275 HD
HETATM   13  H           1     -19.189  -5.332  -7.645  0.00  0.00     0.275 HD
HETATM   14  H           1     -19.172  -6.435  -6.341  0.00  0.00     0.275 HD
ENDBRANCH   5  11
ENDBRANCH   2   5
BRANCH   3  15
HETATM   15  C           1     -22.837  -4.169  -9.932  0.00  0.00     0.185 C 
BRANCH  15  16
HETATM   16  C           1     -24.307  -3.914  -9.699  0.00  0.00     0.196 C 
HETATM   17  O           1     -24.714  -2.751  -9.490  0.00  0.00    -0.646 OA
HETATM   18  O           1     -25.116  -4.866  -9.716  0.00  0.00    -0.646 OA
ENDBRANCH  15  16
BRANCH  15  19
HETATM   19  C           1     -22.624  -4.626 -11.369  0.00  0.00     0.040 C 
BRANCH  19  20
HETATM   20  C           1     -21.891  -3.540 -12.146  0.00  0.00    -0.020 C 
HETATM   21  C           1     -22.890  -2.489 -12.611  0.00  0.00     0.009 C 
HETATM   22  C           1     -20.849  -2.889 -11.248  0.00  0.00     0.009 C 
ENDBRANCH  19  20
ENDBRANCH  15  19
ENDBRANCH   3  15
TORSDOF 9
ENDMDL
MODEL 4
REMARK VINA RESULT:      -5.8      2.850      4.264
REMARK  9 active torsions:
REMARK  status: ('A' for Active; 'I' for Inactive)
REMARK    1  A    between atoms: C_1  and  C_7 
REMARK    2  A    between atoms: C_5  and  C_13 
REMARK    3  A    between atoms: C_5  and  C_6 
REMARK    4  A    between atoms: C_7  and  C_17 
REMARK    5  A    between atoms: C_7  and  N_10 
REMARK    6  A    between atoms: C_8  and  C_9 
REMARK    7  A    between atoms: C_8  and  C_13 
REMARK    8  A    between atoms: C_8  and  N_15 
REMARK       I    between atoms: C_9  and  N_10 
REMARK    9  A    between atoms: C_16  and  C_17 
ROOT
HETATM    1  O           1     -20.943  -7.587  -6.356  0.00  0.00    -0.271 OA
HETATM    2  C           1     -21.497  -6.813  -5.613  0.00  0.00     0.249 C 
HETATM    3  N           1     -21.700  -5.516  -6.003  0.00  0.00    -0.345 N 
HETATM    4  H           1     -22.164  -4.867  -5.380  0.00  0.00     0.163 HD
ENDROOT
BRANCH   2   5
HETATM    5  C           1     -21.966  -7.274  -4.255  0.00  0.00     0.275 C 
BRANCH   5   6
HETATM    6  C           1     -21.239  -6.488  -3.173  0.00  0.00     0.053 C 
BRANCH   6   7
HETATM    7  C           1     -22.216  -6.127  -2.061  0.00  0.00     0.115 C 
BRANCH   7   8
HETATM    8  C           1     -22.167  -7.184  -0.985  0.00  0.00     0.172 C 
HETATM    9  O           1     -21.187  -7.957  -0.912  0.00  0.00    -0.648 OA
HETATM   10  O           1     -23.106  -7.286  -0.166  0.00  0.00    -0.648 OA
ENDBRANCH   7   8
ENDBRANCH   6   7
ENDBRANCH   5   6
BRANCH   5  11
HETATM   11  N           1     -21.671  -8.735  -4.094  0.00  0.00    -0.066 N 
HETATM   12  H           1     -21.564  -8.960  -3.079  0.00  0.00     0.275 HD
HETATM   13  H           1     -22.458  -9.295  -4.493  0.00  0.00     0.275 HD
HETATM   14  H           1     -20.786  -8.969  -4.597  0.00  0.00     0.275 HD
ENDBRANCH   5  11
ENDBRANCH   2   5
BRANCH   3  15
HETATM   15  C           1     -21.250  -5.073  -7.308  0.00  0.00     0.185 C 
BRANCH  15  16
HETATM   16  C           1     -19.845  -4.531  -7.198  0.00  0.00     0.196 C 
HETATM   17  O           1     -19.264  -4.091  -8.213  0.00  0.00    -0.646 OA
HETATM   18  O           1     -19.264  -4.522  -6.092  0.00  0.00    -0.646 OA
ENDBRANCH  15  16
BRANCH  15  19
HETATM   19  C           1     -22.177  -3.979  -7.820  0.00  0.00     0.040 C 
BRANCH  19  20
HETATM   20  C           1     -22.859  -4.446  -9.099  0.00  0.00    -0.020 C 
HETATM   21  C           1     -24.140  -3.650  -9.310  0.00  0.00     0.009 C 
HETATM   22  C           1     -21.924  -4.227 -10.281  0.00  0.00     0.009 C 
ENDBRANCH  19  20
ENDBRANCH  15  19
ENDBRANCH   3  15
TORSDOF 9
ENDMDL
MODEL 5
REMARK VINA RESULT:      -5.8     12.305     14.439
REMARK  9 active torsions:
REMARK  status: ('A' for Active; 'I' for Inactive)
REMARK    1  A    between atoms: C_1  and  C_7 
REMARK    2  A    between atoms: C_5  and  C_13 
REMARK    3  A    between atoms: C_5  and  C_6 
REMARK    4  A    between atoms: C_7  and  C_17 
REMARK    5  A    between atoms: C_7  and  N_10 
REMARK    6  A    between atoms: C_8  and  C_9 
REMARK    7  A    between atoms: C_8  and  C_13 
REMARK    8  A    between atoms: C_8  and  N_15 
REMARK       I    between atoms: C_9  and  N_10 
REMARK    9  A    between atoms: C_16  and  C_17 
ROOT
HETATM    1  O           1     -34.633  -0.161 -11.852  0.00  0.00    -0.271 OA
HETATM    2  C           1     -35.727  -0.665 -11.767  0.00  0.00     0.249 C 
HETATM    3  N           1     -35.893  -1.992 -12.063  0.00  0.00    -0.345 N 
HETATM    4  H           1     -36.811  -2.414 -11.991  0.00  0.00     0.163 HD
ENDROOT
BRANCH   2   5
HETATM    5  C           1     -36.910   0.166 -11.335  0.00  0.00     0.275 C 
BRANCH   5   6
HETATM    6  C           1     -37.302  -0.210  -9.913  0.00  0.00     0.053 C 
BRANCH   6   7
HETATM    7  C           1     -37.572   1.056  -9.108  0.00  0.00     0.115 C 
BRANCH   7   8
HETATM    8  C           1     -36.726   1.048  -7.859  0.00  0.00     0.172 C 
HETATM    9  O           1     -35.666   0.385  -7.825  0.00  0.00    -0.648 OA
HETATM   10  O           1     -37.083   1.706  -6.858  0.00  0.00    -0.648 OA
ENDBRANCH   7   8
ENDBRANCH   6   7
ENDBRANCH   5   6
BRANCH   5  11
HETATM   11  N           1     -38.065  -0.094 -12.256  0.00  0.00    -0.066 N 
HETATM   12  H           1     -38.239  -1.123 -12.315  0.00  0.00     0.275 HD
HETATM   13  H           1     -38.918   0.383 -11.887  0.00  0.00     0.275 HD
HETATM   14  H           1     -37.841   0.276 -13.207  0.00  0.00     0.275 HD
ENDBRANCH   5  11
ENDBRANCH   2   5
BRANCH   3  15
HETATM   15  C           1     -34.757  -2.791 -12.477  0.00  0.00     0.185 C 
BRANCH  15  16
HETATM   16  C           1     -34.678  -2.807 -13.985  0.00  0.00     0.196 C 
HETATM   17  O           1     -34.247  -3.820 -14.577  0.00  0.00    -0.646 OA
HETATM   18  O           1     -35.045  -1.809 -14.640  0.00  0.00    -0.646 OA
ENDBRANCH  15  16
BRANCH  15  19
HETATM   19  C           1     -34.922  -4.214 -11.962  0.00  0.00     0.040 C 
BRANCH  19  20
HETATM   20  C           1     -33.743  -4.572 -11.067  0.00  0.00    -0.020 C 
HETATM   21  C           1     -33.810  -6.050 -10.707  0.00  0.00     0.009 C 
HETATM   22  C           1     -32.442  -4.288 -11.805  0.00  0.00     0.009 C 
ENDBRANCH  19  20
ENDBRANCH  15  19
ENDBRANCH   3  15
TORSDOF 9
ENDMDL
MODEL 6
REMARK VINA RESULT:      -5.7     11.582     13.434
REMARK  9 active torsions:
REMARK  status: ('A' for Active; 'I' for Inactive)
REMARK    1  A    between atoms: C_1  and  C_7 
REMARK    2  A    between atoms: C_5  and  C_13 
REMARK    3  A    between atoms: C_5  and  C_6 
REMARK    4  A    between atoms: C_7  and  C_17 
REMARK    5  A    between atoms: C_7  and  N_10 
REMARK    6  A    between atoms: C_8  and  C_9 
REMARK    7  A    between atoms: C_8  and  C_13 
REMARK    8  A    between atoms: C_8  and  N_15 
REMARK       I    between atoms: C_9  and  N_10 
REMARK    9  A    between atoms: C_16  and  C_17 
ROOT
HETATM    1  O           1     -34.990  -5.046 -15.166  0.00  0.00    -0.271 OA
HETATM    2  C           1     -33.938  -4.463 -15.276  0.00  0.00     0.249 C 
HETATM    3  N           1     -33.427  -3.768 -14.213  0.00  0.00    -0.345 N 
HETATM    4  H           1     -32.545  -3.279 -14.305  0.00  0.00     0.163 HD
ENDROOT
BRANCH   2   5
HETATM    5  C           1     -33.187  -4.500 -16.584  0.00  0.00     0.275 C 
BRANCH   5   6
HETATM    6  C           1     -31.711  -4.756 -16.315  0.00  0.00     0.053 C 
BRANCH   6   7
HETATM    7  C           1     -31.215  -5.874 -17.224  0.00  0.00     0.115 C 
BRANCH   7   8
HETATM    8  C           1     -29.905  -6.407 -16.697  0.00  0.00     0.172 C 
HETATM    9  O           1     -29.416  -7.451 -17.179  0.00  0.00    -0.648 OA
HETATM   10  O           1     -29.308  -5.802 -15.781  0.00  0.00    -0.648 OA
ENDBRANCH   7   8
ENDBRANCH   6   7
ENDBRANCH   5   6
BRANCH   5  11
HETATM   11  N           1     -33.346  -3.185 -17.288  0.00  0.00    -0.066 N 
HETATM   12  H           1     -33.617  -3.353 -18.283  0.00  0.00     0.275 HD
HETATM   13  H           1     -34.092  -2.625 -16.815  0.00  0.00     0.275 HD
HETATM   14  H           1     -32.443  -2.662 -17.256  0.00  0.00     0.275 HD
ENDBRANCH   5  11
ENDBRANCH   2   5
BRANCH   3  15
HETATM   15  C           1     -34.148  -3.733 -12.955  0.00  0.00     0.185 C 
BRANCH  15  16
HETATM   16  C           1     -34.668  -2.336 -12.714  0.00  0.00     0.196 C 
HETATM   17  O           1     -34.126  -1.608 -11.854  0.00  0.00    -0.646 OA
HETATM   18  O           1     -35.638  -1.908 -13.374  0.00  0.00    -0.646 OA
ENDBRANCH  15  16
BRANCH  15  19
HETATM   19  C           1     -33.211  -4.129 -11.822  0.00  0.00     0.040 C 
BRANCH  19  20
HETATM   20  C           1     -33.998  -4.857 -10.741  0.00  0.00    -0.020 C 
HETATM   21  C           1     -35.479  -4.532 -10.886  0.00  0.00     0.009 C 
HETATM   22  C           1     -33.792  -6.358 -10.888  0.00  0.00     0.009 C 
ENDBRANCH  19  20
ENDBRANCH  15  19
ENDBRANCH   3  15
TORSDOF 9
ENDMDL
MODEL 7
REMARK VINA RESULT:      -5.5     12.124     14.481
REMARK  9 active torsions:
REMARK  status: ('A' for Active; 'I' for Inactive)
REMARK    1  A    between atoms: C_1  and  C_7 
REMARK    2  A    between atoms: C_5  and  C_13 
REMARK    3  A    between atoms: C_5  and  C_6 
REMARK    4  A    between atoms: C_7  and  C_17 
REMARK    5  A    between atoms: C_7  and  N_10 
REMARK    6  A    between atoms: C_8  and  C_9 
REMARK    7  A    between atoms: C_8  and  C_13 
REMARK    8  A    between atoms: C_8  and  N_15 
REMARK       I    between atoms: C_9  and  N_10 
REMARK    9  A    between atoms: C_16  and  C_17 
ROOT
HETATM    1  O           1     -34.284  -1.449 -10.284  0.00  0.00    -0.271 OA
HETATM    2  C           1     -35.418  -1.733 -10.584  0.00  0.00     0.249 C 
HETATM    3  N           1     -35.680  -2.911 -11.232  0.00  0.00    -0.345 N 
HETATM    4  H           1     -36.631  -3.149 -11.484  0.00  0.00     0.163 HD
ENDROOT
BRANCH   2   5
HETATM    5  C           1     -36.548  -0.791 -10.247  0.00  0.00     0.275 C 
BRANCH   5   6
HETATM    6  C           1     -36.584   0.342 -11.263  0.00  0.00     0.053 C 
BRANCH   6   7
HETATM    7  C           1     -36.952  -0.214 -12.633  0.00  0.00     0.115 C 
BRANCH   7   8
HETATM    8  C           1     -35.979   0.304 -13.664  0.00  0.00     0.172 C 
HETATM    9  O           1     -34.802   0.568 -13.337  0.00  0.00    -0.648 OA
HETATM   10  O           1     -36.351   0.468 -14.846  0.00  0.00    -0.648 OA
ENDBRANCH   7   8
ENDBRANCH   6   7
ENDBRANCH   5   6
BRANCH   5  11
HETATM   11  N           1     -36.333  -0.225  -8.875  0.00  0.00    -0.066 N 
HETATM   12  H           1     -36.906   0.642  -8.763  0.00  0.00     0.275 HD
HETATM   13  H           1     -36.623  -0.928  -8.159  0.00  0.00     0.275 HD
HETATM   14  H           1     -35.322   0.007  -8.749  0.00  0.00     0.275 HD
ENDBRANCH   5  11
ENDBRANCH   2   5
BRANCH   3  15
HETATM   15  C           1     -34.595  -3.817 -11.555  0.00  0.00     0.185 C 
BRANCH  15  16
HETATM   16  C           1     -34.138  -3.567 -12.972  0.00  0.00     0.196 C 
HETATM   17  O           1     -34.832  -2.863 -13.737  0.00  0.00    -0.646 OA
HETATM   18  O           1     -33.066  -4.063 -13.379  0.00  0.00    -0.646 OA
ENDBRANCH  15  16
BRANCH  15  19
HETATM   19  C           1     -35.079  -5.255 -11.424  0.00  0.00     0.040 C 
BRANCH  19  20
HETATM   20  C           1     -34.255  -5.974 -10.364  0.00  0.00    -0.020 C 
HETATM   21  C           1     -35.049  -7.154  -9.820  0.00  0.00     0.009 C 
HETATM   22  C           1     -32.958  -6.477 -10.983  0.00  0.00     0.009 C 
ENDBRANCH  19  20
ENDBRANCH  15  19
ENDBRANCH   3  15
TORSDOF 9
ENDMDL
MODEL 8
REMARK VINA RESULT:      -5.4      5.130      9.275
REMARK  9 active torsions:
REMARK  status: ('A' for Active; 'I' for Inactive)
REMARK    1  A    between atoms: C_1  and  C_7 
REMARK    2  A    between atoms: C_5  and  C_13 
REMARK    3  A    between atoms: C_5  and  C_6 
REMARK    4  A    between atoms: C_7  and  C_17 
REMARK    5  A    between atoms: C_7  and  N_10 
REMARK    6  A    between atoms: C_8  and  C_9 
REMARK    7  A    between atoms: C_8  and  C_13 
REMARK    8  A    between atoms: C_8  and  N_15 
REMARK       I    between atoms: C_9  and  N_10 
REMARK    9  A    between atoms: C_16  and  C_17 
ROOT
HETATM    1  O           1     -22.380 -10.214  -3.549  0.00  0.00    -0.271 OA
HETATM    2  C           1     -21.397  -9.538  -3.368  0.00  0.00     0.249 C 
HETATM    3  N           1     -21.193  -8.938  -2.154  0.00  0.00    -0.345 N 
HETATM    4  H           1     -20.368  -8.371  -2.002  0.00  0.00     0.163 HD
ENDROOT
BRANCH   2   5
HETATM    5  C           1     -20.393  -9.353  -4.479  0.00  0.00     0.275 C 
BRANCH   5   6
HETATM    6  C           1     -20.170  -7.866  -4.720  0.00  0.00     0.053 C 
BRANCH   6   7
HETATM    7  C           1     -21.287  -7.321  -5.602  0.00  0.00     0.115 C 
BRANCH   7   8
HETATM    8  C           1     -22.174  -6.412  -4.787  0.00  0.00     0.172 C 
HETATM    9  O           1     -23.281  -6.048  -5.240  0.00  0.00    -0.648 OA
HETATM   10  O           1     -21.802  -6.025  -3.658  0.00  0.00    -0.648 OA
ENDBRANCH   7   8
ENDBRANCH   6   7
ENDBRANCH   5   6
BRANCH   5  11
HETATM   11  N           1     -20.913  -9.990  -5.733  0.00  0.00    -0.066 N 
HETATM   12  H           1     -21.896 -10.310  -5.579  0.00  0.00     0.275 HD
HETATM   13  H           1     -20.893  -9.293  -6.512  0.00  0.00     0.275 HD
HETATM   14  H           1     -20.315 -10.809  -5.982  0.00  0.00     0.275 HD
ENDBRANCH   5  11
ENDBRANCH   2   5
BRANCH   3  15
HETATM   15  C           1     -22.157  -9.116  -1.086  0.00  0.00     0.185 C 
BRANCH  15  16
HETATM   16  C           1     -22.284  -7.830  -0.305  0.00  0.00     0.196 C 
HETATM   17  O           1     -22.743  -6.807  -0.857  0.00  0.00    -0.646 OA
HETATM   18  O           1     -21.932  -7.790   0.893  0.00  0.00    -0.646 OA
ENDBRANCH  15  16
BRANCH  15  19
HETATM   19  C           1     -21.687 -10.229  -0.159  0.00  0.00     0.040 C 
BRANCH  19  20
HETATM   20  C           1     -22.607 -11.434  -0.304  0.00  0.00    -0.020 C 
HETATM   21  C           1     -22.260 -12.467   0.761  0.00  0.00     0.009 C 
HETATM   22  C           1     -24.054 -10.993  -0.131  0.00  0.00     0.009 C 
ENDBRANCH  19  20
ENDBRANCH  15  19
ENDBRANCH   3  15
TORSDOF 9
ENDMDL
MODEL 9
REMARK VINA RESULT:      -5.4     10.702     13.092
REMARK  9 active torsions:
REMARK  status: ('A' for Active; 'I' for Inactive)
REMARK    1  A    between atoms: C_1  and  C_7 
REMARK    2  A    between atoms: C_5  and  C_13 
REMARK    3  A    between atoms: C_5  and  C_6 
REMARK    4  A    between atoms: C_7  and  C_17 
REMARK    5  A    between atoms: C_7  and  N_10 
REMARK    6  A    between atoms: C_8  and  C_9 
REMARK    7  A    between atoms: C_8  and  C_13 
REMARK    8  A    between atoms: C_8  and  N_15 
REMARK       I    between atoms: C_9  and  N_10 
REMARK    9  A    between atoms: C_16  and  C_17 
ROOT
HETATM    1  O           1     -29.495  -8.133 -17.761  0.00  0.00    -0.271 OA
HETATM    2  C           1     -29.641  -6.950 -17.956  0.00  0.00     0.249 C 
HETATM    3  N           1     -28.573  -6.183 -18.339  0.00  0.00    -0.345 N 
HETATM    4  H           1     -28.695  -5.192 -18.502  0.00  0.00     0.163 HD
ENDROOT
BRANCH   2   5
HETATM    5  C           1     -30.999  -6.316 -17.776  0.00  0.00     0.275 C 
BRANCH   5   6
HETATM    6  C           1     -30.949  -5.329 -16.618  0.00  0.00     0.053 C 
BRANCH   6   7
HETATM    7  C           1     -32.304  -4.648 -16.471  0.00  0.00     0.115 C 
BRANCH   7   8
HETATM    8  C           1     -32.323  -3.382 -17.292  0.00  0.00     0.172 C 
HETATM    9  O           1     -33.409  -2.818 -17.546  0.00  0.00    -0.648 OA
HETATM   10  O           1     -31.252  -2.897 -17.717  0.00  0.00    -0.648 OA
ENDBRANCH   7   8
ENDBRANCH   6   7
ENDBRANCH   5   6
BRANCH   5  11
HETATM   11  N           1     -32.012  -7.382 -17.481  0.00  0.00    -0.066 N 
HETATM   12  H           1     -31.625  -8.314 -17.751  0.00  0.00     0.275 HD
HETATM   13  H           1     -32.231  -7.380 -16.459  0.00  0.00     0.275 HD
HETATM   14  H           1     -32.883  -7.196 -18.026  0.00  0.00     0.275 HD
ENDBRANCH   5  11
ENDBRANCH   2   5
BRANCH   3  15
HETATM   15  C           1     -27.269  -6.792 -18.512  0.00  0.00     0.185 C 
BRANCH  15  16
HETATM   16  C           1     -26.347  -6.326 -17.411  0.00  0.00     0.196 C 
HETATM   17  O           1     -25.108  -6.402 -17.560  0.00  0.00    -0.646 OA
HETATM   18  O           1     -26.823  -5.863 -16.353  0.00  0.00    -0.646 OA
ENDBRANCH  15  16
BRANCH  15  19
HETATM   19  C           1     -26.694  -6.384 -19.862  0.00  0.00     0.040 C 
BRANCH  19  20
HETATM   20  C           1     -26.028  -7.587 -20.517  0.00  0.00    -0.020 C 
HETATM   21  C           1     -27.084  -8.432 -21.217  0.00  0.00     0.009 C 
HETATM   22  C           1     -25.004  -7.108 -21.536  0.00  0.00     0.009 C 
ENDBRANCH  19  20
ENDBRANCH  15  19
ENDBRANCH   3  15
TORSDOF 9
ENDMDL
