MODEL 1
REMARK VINA RESULT:      -7.2      0.000      0.000
REMARK  11 active torsions:
REMARK  status: ('A' for Active; 'I' for Inactive)
REMARK    1  A    between atoms: N_3  and  C_6 
REMARK    2  A    between atoms: Se_4  and  C_5 
REMARK    3  A    between atoms: C_5  and  C_6 
REMARK    4  A    between atoms: C_6  and  C_7 
REMARK       I    between atoms: C_7  and  N_8 
REMARK    5  A    between atoms: N_8  and  C_21 
REMARK    6  A    between atoms: O_12  and  P_14 
REMARK    7  A    between atoms: P_14  and  O_15 
REMARK    8  A    between atoms: O_15  and  C_16 
REMARK    9  A    between atoms: C_19  and  C_20 
REMARK   10  A    between atoms: C_20  and  C_21 
REMARK   11  A    between atoms: C_21  and  C_23 
ROOT
HETATM    1  C           1     -21.668  -6.731  -5.409  0.00  0.00     0.189 C 
ENDROOT
BRANCH   1   2
HETATM    2  N           1     -22.392  -6.408  -4.195  0.00  0.00    -0.344 N 
HETATM    3  C           1     -21.730  -6.348  -2.999  0.00  0.00     0.249 C 
HETATM    4  O           1     -21.246  -5.304  -2.627  0.00  0.00    -0.271 OA
HETATM    5  H           1     -23.387  -6.226  -4.233  0.00  0.00     0.163 HD
BRANCH   3   6
HETATM    6  C           1     -21.605  -7.584  -2.143  0.00  0.00     0.274 C 
BRANCH   6   7
HETATM    7  N           1     -20.153  -7.879  -1.902  0.00  0.00    -0.067 N 
HETATM    8  H           1     -19.918  -8.817  -2.298  0.00  0.00     0.275 HD
HETATM    9  H           1     -19.569  -7.149  -2.369  0.00  0.00     0.275 HD
HETATM   10  H           1     -19.962  -7.876  -0.875  0.00  0.00     0.275 HD
ENDBRANCH   6   7
BRANCH   6  11
HETATM   11  C           1     -22.301  -7.351  -0.808  0.00  0.00     0.045 C 
BRANCH  11  12
HETATM   12 Se           1     -21.463  -8.450   0.565  0.00  0.00     0.000 Se
HETATM   13  H           1     -20.901  -9.419  -0.391  0.00  0.00     0.000 HD
ENDBRANCH  11  12
ENDBRANCH   6  11
ENDBRANCH   3   6
ENDBRANCH   1   2
BRANCH   1  14
HETATM   14  C           1     -20.731  -5.582  -5.760  0.00  0.00     0.074 C 
BRANCH  14  15
HETATM   15  C           1     -21.145  -4.981  -7.069  0.00  0.00    -0.056 A 
HETATM   16  C           1     -20.291  -5.050  -8.169  0.00  0.00     0.010 A 
HETATM   17  C           1     -20.678  -4.491  -9.387  0.00  0.00     0.038 A 
HETATM   18  C           1     -21.918  -3.864  -9.504  0.00  0.00     0.081 A 
HETATM   19  C           1     -22.773  -3.796  -8.404  0.00  0.00     0.038 A 
HETATM   20  C           1     -22.386  -4.355  -7.186  0.00  0.00     0.010 A 
BRANCH  18  21
HETATM   21  O           1     -22.293  -3.322 -10.688  0.00  0.00    -0.247 OA
BRANCH  21  22
HETATM   22  P           1     -23.570  -3.960 -11.443  0.00  0.00     0.411 P 
HETATM   23  O           1     -23.758  -5.359 -10.998  0.00  0.00    -0.624 OA
HETATM   24  O           1     -24.781  -3.174 -11.118  0.00  0.00    -0.624 OA
BRANCH  22  25
HETATM   25  O           1     -23.321  -3.931 -13.038  0.00  0.00    -0.300 OA
HETATM   26  H           1     -22.715  -4.633 -13.204  0.00  0.00     0.223 HD
ENDBRANCH  22  25
ENDBRANCH  21  22
ENDBRANCH  18  21
ENDBRANCH  14  15
ENDBRANCH   1  14
BRANCH   1  27
HETATM   27  C           1     -20.862  -7.988  -5.193  0.00  0.00     0.197 C 
HETATM   28  O           1     -19.626  -7.917  -5.020  0.00  0.00    -0.646 OA
HETATM   29  O           1     -21.431  -9.101  -5.188  0.00  0.00    -0.646 OA
ENDBRANCH   1  27
TORSDOF 11
ENDMDL
MODEL 2
REMARK VINA RESULT:      -7.1      1.894      2.903
REMARK  11 active torsions:
REMARK  status: ('A' for Active; 'I' for Inactive)
REMARK    1  A    between atoms: N_3  and  C_6 
REMARK    2  A    between atoms: Se_4  and  C_5 
REMARK    3  A    between atoms: C_5  and  C_6 
REMARK    4  A    between atoms: C_6  and  C_7 
REMARK       I    between atoms: C_7  and  N_8 
REMARK    5  A    between atoms: N_8  and  C_21 
REMARK    6  A    between atoms: O_12  and  P_14 
REMARK    7  A    between atoms: P_14  and  O_15 
REMARK    8  A    between atoms: O_15  and  C_16 
REMARK    9  A    between atoms: C_19  and  C_20 
REMARK   10  A    between atoms: C_20  and  C_21 
REMARK   11  A    between atoms: C_21  and  C_23 
ROOT
HETATM    1  C           1     -20.060  -5.901  -7.291  0.00  0.00     0.189 C 
ENDROOT
BRANCH   1   2
HETATM    2  N           1     -19.795  -7.077  -6.485  0.00  0.00    -0.344 N 
HETATM    3  C           1     -20.759  -7.557  -5.639  0.00  0.00     0.249 C 
HETATM    4  O           1     -21.554  -8.378  -6.032  0.00  0.00    -0.271 OA
HETATM    5  H           1     -18.899  -7.543  -6.549  0.00  0.00     0.163 HD
BRANCH   3   6
HETATM    6  C           1     -20.826  -7.063  -4.215  0.00  0.00     0.274 C 
BRANCH   6   7
HETATM    7  N           1     -22.126  -6.346  -3.997  0.00  0.00    -0.067 N 
HETATM    8  H           1     -22.862  -6.764  -4.611  0.00  0.00     0.275 HD
HETATM    9  H           1     -22.413  -6.443  -2.997  0.00  0.00     0.275 HD
HETATM   10  H           1     -22.010  -5.335  -4.232  0.00  0.00     0.275 HD
ENDBRANCH   6   7
BRANCH   6  11
HETATM   11  C           1     -20.736  -8.248  -3.261  0.00  0.00     0.045 C 
BRANCH  11  12
HETATM   12 Se           1     -21.460  -7.743  -1.525  0.00  0.00     0.000 Se
HETATM   13  H           1     -22.813  -7.473  -2.038  0.00  0.00     0.000 HD
ENDBRANCH  11  12
ENDBRANCH   6  11
ENDBRANCH   3   6
ENDBRANCH   1   2
BRANCH   1  14
HETATM   14  C           1     -21.555  -5.610  -7.287  0.00  0.00     0.074 C 
BRANCH  14  15
HETATM   15  C           1     -21.913  -4.814  -8.504  0.00  0.00    -0.056 A 
HETATM   16  C           1     -21.006  -4.709  -9.559  0.00  0.00     0.010 A 
HETATM   17  C           1     -21.340  -3.967 -10.693  0.00  0.00     0.038 A 
HETATM   18  C           1     -22.578  -3.331 -10.771  0.00  0.00     0.081 A 
HETATM   19  C           1     -23.485  -3.437  -9.716  0.00  0.00     0.038 A 
HETATM   20  C           1     -23.151  -4.179  -8.582  0.00  0.00     0.010 A 
BRANCH  18  21
HETATM   21  O           1     -22.902  -2.612 -11.872  0.00  0.00    -0.247 OA
BRANCH  21  22
HETATM   22  P           1     -23.932  -3.267 -12.930  0.00  0.00     0.411 P 
HETATM   23  O           1     -25.314  -2.863 -12.588  0.00  0.00    -0.624 OA
HETATM   24  O           1     -23.605  -2.798 -14.295  0.00  0.00    -0.624 OA
BRANCH  22  25
HETATM   25  O           1     -23.811  -4.876 -12.871  0.00  0.00    -0.300 OA
HETATM   26  H           1     -24.688  -5.181 -12.707  0.00  0.00     0.223 HD
ENDBRANCH  22  25
ENDBRANCH  21  22
ENDBRANCH  18  21
ENDBRANCH  14  15
ENDBRANCH   1  14
BRANCH   1  27
HETATM   27  C           1     -19.316  -4.720  -6.716  0.00  0.00     0.197 C 
HETATM   28  O           1     -19.636  -4.265  -5.597  0.00  0.00    -0.646 OA
HETATM   29  O           1     -18.381  -4.198  -7.360  0.00  0.00    -0.646 OA
ENDBRANCH   1  27
TORSDOF 11
ENDMDL
MODEL 3
REMARK VINA RESULT:      -7.0      2.197      2.930
REMARK  11 active torsions:
REMARK  status: ('A' for Active; 'I' for Inactive)
REMARK    1  A    between atoms: N_3  and  C_6 
REMARK    2  A    between atoms: Se_4  and  C_5 
REMARK    3  A    between atoms: C_5  and  C_6 
REMARK    4  A    between atoms: C_6  and  C_7 
REMARK       I    between atoms: C_7  and  N_8 
REMARK    5  A    between atoms: N_8  and  C_21 
REMARK    6  A    between atoms: O_12  and  P_14 
REMARK    7  A    between atoms: P_14  and  O_15 
REMARK    8  A    between atoms: O_15  and  C_16 
REMARK    9  A    between atoms: C_19  and  C_20 
REMARK   10  A    between atoms: C_20  and  C_21 
REMARK   11  A    between atoms: C_21  and  C_23 
ROOT
HETATM    1  C           1     -21.583  -5.632  -6.628  0.00  0.00     0.189 C 
ENDROOT
BRANCH   1   2
HETATM    2  N           1     -22.284  -5.953  -5.400  0.00  0.00    -0.344 N 
HETATM    3  C           1     -21.611  -6.539  -4.362  0.00  0.00     0.249 C 
HETATM    4  O           1     -21.078  -5.852  -3.522  0.00  0.00    -0.271 OA
HETATM    5  H           1     -23.269  -5.742  -5.310  0.00  0.00     0.163 HD
BRANCH   3   6
HETATM    6  C           1     -21.537  -8.043  -4.264  0.00  0.00     0.274 C 
BRANCH   6   7
HETATM    7  N           1     -21.408  -8.625  -5.641  0.00  0.00    -0.067 N 
HETATM    8  H           1     -21.303  -7.854  -6.338  0.00  0.00     0.275 HD
HETATM    9  H           1     -20.567  -9.244  -5.679  0.00  0.00     0.275 HD
HETATM   10  H           1     -22.263  -9.183  -5.865  0.00  0.00     0.275 HD
ENDBRANCH   6   7
BRANCH   6  11
HETATM   11  C           1     -20.324  -8.439  -3.432  0.00  0.00     0.045 C 
BRANCH  11  12
HETATM   12 Se           1     -19.324  -9.830  -4.360  0.00  0.00     0.000 Se
HETATM   13  H           1     -20.503 -10.679  -4.601  0.00  0.00     0.000 HD
ENDBRANCH  11  12
ENDBRANCH   6  11
ENDBRANCH   3   6
ENDBRANCH   1   2
BRANCH   1  14
HETATM   14  C           1     -21.983  -4.237  -7.090  0.00  0.00     0.074 C 
BRANCH  14  15
HETATM   15  C           1     -22.426  -4.292  -8.520  0.00  0.00    -0.056 A 
HETATM   16  C           1     -23.784  -4.229  -8.832  0.00  0.00     0.010 A 
HETATM   17  C           1     -24.196  -4.280 -10.164  0.00  0.00     0.038 A 
HETATM   18  C           1     -23.250  -4.395 -11.183  0.00  0.00     0.081 A 
HETATM   19  C           1     -21.892  -4.457 -10.870  0.00  0.00     0.038 A 
HETATM   20  C           1     -21.480  -4.405  -9.538  0.00  0.00     0.010 A 
BRANCH  18  21
HETATM   21  O           1     -23.650  -4.443 -12.476  0.00  0.00    -0.247 OA
BRANCH  21  22
HETATM   22  P           1     -24.081  -3.060 -13.189  0.00  0.00     0.411 P 
HETATM   23  O           1     -23.870  -3.170 -14.650  0.00  0.00    -0.624 OA
HETATM   24  O           1     -25.511  -2.788 -12.917  0.00  0.00    -0.624 OA
BRANCH  22  25
HETATM   25  O           1     -23.183  -1.852 -12.604  0.00  0.00    -0.300 OA
HETATM   26  H           1     -22.300  -2.056 -12.863  0.00  0.00     0.223 HD
ENDBRANCH  22  25
ENDBRANCH  21  22
ENDBRANCH  18  21
ENDBRANCH  14  15
ENDBRANCH   1  14
BRANCH   1  27
HETATM   27  C           1     -20.094  -5.674  -6.383  0.00  0.00     0.197 C 
HETATM   28  O           1     -19.445  -6.708  -6.649  0.00  0.00    -0.646 OA
HETATM   29  O           1     -19.511  -4.673  -5.913  0.00  0.00    -0.646 OA
ENDBRANCH   1  27
TORSDOF 11
ENDMDL
MODEL 4
REMARK VINA RESULT:      -6.5      4.791      8.237
REMARK  11 active torsions:
REMARK  status: ('A' for Active; 'I' for Inactive)
REMARK    1  A    between atoms: N_3  and  C_6 
REMARK    2  A    between atoms: Se_4  and  C_5 
REMARK    3  A    between atoms: C_5  and  C_6 
REMARK    4  A    between atoms: C_6  and  C_7 
REMARK       I    between atoms: C_7  and  N_8 
REMARK    5  A    between atoms: N_8  and  C_21 
REMARK    6  A    between atoms: O_12  and  P_14 
REMARK    7  A    between atoms: P_14  and  O_15 
REMARK    8  A    between atoms: O_15  and  C_16 
REMARK    9  A    between atoms: C_19  and  C_20 
REMARK   10  A    between atoms: C_20  and  C_21 
REMARK   11  A    between atoms: C_21  and  C_23 
ROOT
HETATM    1  C           1     -20.741  -5.064  -6.197  0.00  0.00     0.189 C 
ENDROOT
BRANCH   1   2
HETATM    2  N           1     -21.588  -4.040  -6.779  0.00  0.00    -0.344 N 
HETATM    3  C           1     -22.767  -4.389  -7.380  0.00  0.00     0.249 C 
HETATM    4  O           1     -23.786  -4.437  -6.732  0.00  0.00    -0.271 OA
HETATM    5  H           1     -21.308  -3.069  -6.739  0.00  0.00     0.163 HD
BRANCH   3   6
HETATM    6  C           1     -22.795  -4.712  -8.854  0.00  0.00     0.274 C 
BRANCH   6   7
HETATM    7  N           1     -24.179  -4.483  -9.388  0.00  0.00    -0.067 N 
HETATM    8  H           1     -24.175  -3.652 -10.021  0.00  0.00     0.275 HD
HETATM    9  H           1     -24.489  -5.326  -9.923  0.00  0.00     0.275 HD
HETATM   10  H           1     -24.836  -4.313  -8.593  0.00  0.00     0.275 HD
ENDBRANCH   6   7
BRANCH   6  11
HETATM   11  C           1     -21.814  -3.810  -9.591  0.00  0.00     0.045 C 
BRANCH  11  12
HETATM   12 Se           1     -22.191  -3.860 -11.501  0.00  0.00     0.000 Se
HETATM   13  H           1     -22.906  -5.146 -11.445  0.00  0.00     0.000 HD
ENDBRANCH  11  12
ENDBRANCH   6  11
ENDBRANCH   3   6
ENDBRANCH   1   2
BRANCH   1  14
HETATM   14  C           1     -21.560  -6.327  -5.965  0.00  0.00     0.074 C 
BRANCH  14  15
HETATM   15  C           1     -21.332  -6.820  -4.569  0.00  0.00    -0.056 A 
HETATM   16  C           1     -20.507  -7.922  -4.345  0.00  0.00     0.010 A 
HETATM   17  C           1     -20.295  -8.380  -3.044  0.00  0.00     0.038 A 
HETATM   18  C           1     -20.909  -7.738  -1.970  0.00  0.00     0.081 A 
HETATM   19  C           1     -21.733  -6.635  -2.194  0.00  0.00     0.038 A 
HETATM   20  C           1     -21.945  -6.177  -3.495  0.00  0.00     0.010 A 
BRANCH  18  21
HETATM   21  O           1     -20.702  -8.183  -0.707  0.00  0.00    -0.247 OA
BRANCH  21  22
HETATM   22  P           1     -21.870  -9.054  -0.010  0.00  0.00     0.411 P 
HETATM   23  O           1     -22.626  -9.788  -1.049  0.00  0.00    -0.624 OA
HETATM   24  O           1     -21.269 -10.020   0.937  0.00  0.00    -0.624 OA
BRANCH  22  25
HETATM   25  O           1     -22.870  -8.069   0.789  0.00  0.00    -0.300 OA
HETATM   26  H           1     -22.442  -7.229   0.784  0.00  0.00     0.223 HD
ENDBRANCH  22  25
ENDBRANCH  21  22
ENDBRANCH  18  21
ENDBRANCH  14  15
ENDBRANCH   1  14
BRANCH   1  27
HETATM   27  C           1     -19.602  -5.368  -7.141  0.00  0.00     0.197 C 
HETATM   28  O           1     -19.394  -6.545  -7.509  0.00  0.00    -0.646 OA
HETATM   29  O           1     -18.868  -4.445  -7.552  0.00  0.00    -0.646 OA
ENDBRANCH   1  27
TORSDOF 11
ENDMDL
MODEL 5
REMARK VINA RESULT:      -6.4      2.175      3.327
REMARK  11 active torsions:
REMARK  status: ('A' for Active; 'I' for Inactive)
REMARK    1  A    between atoms: N_3  and  C_6 
REMARK    2  A    between atoms: Se_4  and  C_5 
REMARK    3  A    between atoms: C_5  and  C_6 
REMARK    4  A    between atoms: C_6  and  C_7 
REMARK       I    between atoms: C_7  and  N_8 
REMARK    5  A    between atoms: N_8  and  C_21 
REMARK    6  A    between atoms: O_12  and  P_14 
REMARK    7  A    between atoms: P_14  and  O_15 
REMARK    8  A    between atoms: O_15  and  C_16 
REMARK    9  A    between atoms: C_19  and  C_20 
REMARK   10  A    between atoms: C_20  and  C_21 
REMARK   11  A    between atoms: C_21  and  C_23 
ROOT
HETATM    1  C           1     -20.939  -7.153  -3.834  0.00  0.00     0.189 C 
ENDROOT
BRANCH   1   2
HETATM    2  N           1     -20.365  -8.484  -3.796  0.00  0.00    -0.344 N 
HETATM    3  C           1     -20.978  -9.512  -4.461  0.00  0.00     0.249 C 
HETATM    4  O           1     -20.685  -9.748  -5.610  0.00  0.00    -0.271 OA
HETATM    5  H           1     -19.513  -8.653  -3.278  0.00  0.00     0.163 HD
BRANCH   3   6
HETATM    6  C           1     -22.017 -10.352  -3.760  0.00  0.00     0.274 C 
BRANCH   6   7
HETATM    7  N           1     -22.287 -11.587  -4.569  0.00  0.00    -0.067 N 
HETATM    8  H           1     -23.092 -12.107  -4.151  0.00  0.00     0.275 HD
HETATM    9  H           1     -22.521 -11.315  -5.550  0.00  0.00     0.275 HD
HETATM   10  H           1     -21.439 -12.197  -4.568  0.00  0.00     0.275 HD
ENDBRANCH   6   7
BRANCH   6  11
HETATM   11  C           1     -21.502 -10.752  -2.383  0.00  0.00     0.045 C 
BRANCH  11  12
HETATM   12 Se           1     -22.936 -10.577  -1.076  0.00  0.00     0.000 Se
HETATM   13  H           1     -22.447  -9.296  -0.538  0.00  0.00     0.000 HD
ENDBRANCH  11  12
ENDBRANCH   6  11
ENDBRANCH   3   6
ENDBRANCH   1   2
BRANCH   1  14
HETATM   14  C           1     -22.029  -7.101  -4.897  0.00  0.00     0.074 C 
BRANCH  14  15
HETATM   15  C           1     -21.619  -6.160  -5.988  0.00  0.00    -0.056 A 
HETATM   16  C           1     -22.520  -5.205  -6.459  0.00  0.00     0.010 A 
HETATM   17  C           1     -22.137  -4.329  -7.475  0.00  0.00     0.038 A 
HETATM   18  C           1     -20.856  -4.407  -8.018  0.00  0.00     0.081 A 
HETATM   19  C           1     -19.954  -5.361  -7.546  0.00  0.00     0.038 A 
HETATM   20  C           1     -20.337  -6.238  -6.530  0.00  0.00     0.010 A 
BRANCH  18  21
HETATM   21  O           1     -20.484  -3.555  -9.004  0.00  0.00    -0.247 OA
BRANCH  21  22
HETATM   22  P           1     -20.665  -4.041 -10.534  0.00  0.00     0.411 P 
HETATM   23  O           1     -19.637  -5.056 -10.854  0.00  0.00    -0.624 OA
HETATM   24  O           1     -22.012  -4.630 -10.710  0.00  0.00    -0.624 OA
BRANCH  22  25
HETATM   25  O           1     -20.499  -2.774 -11.523  0.00  0.00    -0.300 OA
HETATM   26  H           1     -20.578  -3.131 -12.392  0.00  0.00     0.223 HD
ENDBRANCH  22  25
ENDBRANCH  21  22
ENDBRANCH  18  21
ENDBRANCH  14  15
ENDBRANCH   1  14
BRANCH   1  27
HETATM   27  C           1     -21.534  -6.823  -2.487  0.00  0.00     0.197 C 
HETATM   28  O           1     -21.125  -7.411  -1.462  0.00  0.00    -0.646 OA
HETATM   29  O           1     -22.436  -5.963  -2.396  0.00  0.00    -0.646 OA
ENDBRANCH   1  27
TORSDOF 11
ENDMDL
MODEL 6
REMARK VINA RESULT:      -6.3      2.567      3.795
REMARK  11 active torsions:
REMARK  status: ('A' for Active; 'I' for Inactive)
REMARK    1  A    between atoms: N_3  and  C_6 
REMARK    2  A    between atoms: Se_4  and  C_5 
REMARK    3  A    between atoms: C_5  and  C_6 
REMARK    4  A    between atoms: C_6  and  C_7 
REMARK       I    between atoms: C_7  and  N_8 
REMARK    5  A    between atoms: N_8  and  C_21 
REMARK    6  A    between atoms: O_12  and  P_14 
REMARK    7  A    between atoms: P_14  and  O_15 
REMARK    8  A    between atoms: O_15  and  C_16 
REMARK    9  A    between atoms: C_19  and  C_20 
REMARK   10  A    between atoms: C_20  and  C_21 
REMARK   11  A    between atoms: C_21  and  C_23 
ROOT
HETATM    1  C           1     -20.963  -7.362  -3.734  0.00  0.00     0.189 C 
ENDROOT
BRANCH   1   2
HETATM    2  N           1     -20.544  -8.739  -3.554  0.00  0.00    -0.344 N 
HETATM    3  C           1     -19.226  -9.077  -3.705  0.00  0.00     0.249 C 
HETATM    4  O           1     -18.480  -9.044  -2.754  0.00  0.00    -0.271 OA
HETATM    5  H           1     -21.225  -9.448  -3.315  0.00  0.00     0.163 HD
BRANCH   3   6
HETATM    6  C           1     -18.705  -9.496  -5.058  0.00  0.00     0.274 C 
BRANCH   6   7
HETATM    7  N           1     -17.250  -9.846  -4.945  0.00  0.00    -0.067 N 
HETATM    8  H           1     -16.754  -9.564  -5.820  0.00  0.00     0.275 HD
HETATM    9  H           1     -16.833  -9.340  -4.131  0.00  0.00     0.275 HD
HETATM   10  H           1     -17.149 -10.877  -4.804  0.00  0.00     0.275 HD
ENDBRANCH   6   7
BRANCH   6  11
HETATM   11  C           1     -19.481 -10.711  -5.548  0.00  0.00     0.045 C 
BRANCH  11  12
HETATM   12 Se           1     -19.026 -12.258  -4.456  0.00  0.00     0.000 Se
HETATM   13  H           1     -18.991 -11.502  -3.193  0.00  0.00     0.000 HD
ENDBRANCH  11  12
ENDBRANCH   6  11
ENDBRANCH   3   6
ENDBRANCH   1   2
BRANCH   1  14
HETATM   14  C           1     -22.011  -7.293  -4.837  0.00  0.00     0.074 C 
BRANCH  14  15
HETATM   15  C           1     -21.559  -6.336  -5.897  0.00  0.00    -0.056 A 
HETATM   16  C           1     -22.418  -5.330  -6.340  0.00  0.00     0.010 A 
HETATM   17  C           1     -21.996  -4.439  -7.327  0.00  0.00     0.038 A 
HETATM   18  C           1     -20.717  -4.554  -7.870  0.00  0.00     0.081 A 
HETATM   19  C           1     -19.858  -5.559  -7.426  0.00  0.00     0.038 A 
HETATM   20  C           1     -20.280  -6.451  -6.439  0.00  0.00     0.010 A 
BRANCH  18  21
HETATM   21  O           1     -20.307  -3.687  -8.828  0.00  0.00    -0.247 OA
BRANCH  21  22
HETATM   22  P           1     -20.568  -4.085 -10.371  0.00  0.00     0.411 P 
HETATM   23  O           1     -19.611  -5.138 -10.778  0.00  0.00    -0.624 OA
HETATM   24  O           1     -21.951  -4.589 -10.525  0.00  0.00    -0.624 OA
BRANCH  22  25
HETATM   25  O           1     -20.364  -2.782 -11.303  0.00  0.00    -0.300 OA
HETATM   26  H           1     -20.573  -3.070 -12.176  0.00  0.00     0.223 HD
ENDBRANCH  22  25
ENDBRANCH  21  22
ENDBRANCH  18  21
ENDBRANCH  14  15
ENDBRANCH   1  14
BRANCH   1  27
HETATM   27  C           1     -21.554  -6.844  -2.446  0.00  0.00     0.197 C 
HETATM   28  O           1     -22.362  -5.891  -2.467  0.00  0.00    -0.646 OA
HETATM   29  O           1     -21.234  -7.368  -1.357  0.00  0.00    -0.646 OA
ENDBRANCH   1  27
TORSDOF 11
ENDMDL
MODEL 7
REMARK VINA RESULT:      -6.1      1.554      2.190
REMARK  11 active torsions:
REMARK  status: ('A' for Active; 'I' for Inactive)
REMARK    1  A    between atoms: N_3  and  C_6 
REMARK    2  A    between atoms: Se_4  and  C_5 
REMARK    3  A    between atoms: C_5  and  C_6 
REMARK    4  A    between atoms: C_6  and  C_7 
REMARK       I    between atoms: C_7  and  N_8 
REMARK    5  A    between atoms: N_8  and  C_21 
REMARK    6  A    between atoms: O_12  and  P_14 
REMARK    7  A    between atoms: P_14  and  O_15 
REMARK    8  A    between atoms: O_15  and  C_16 
REMARK    9  A    between atoms: C_19  and  C_20 
REMARK   10  A    between atoms: C_20  and  C_21 
REMARK   11  A    between atoms: C_21  and  C_23 
ROOT
HETATM    1  C           1     -20.830  -8.099  -4.693  0.00  0.00     0.189 C 
ENDROOT
BRANCH   1   2
HETATM    2  N           1     -20.394  -8.288  -3.323  0.00  0.00    -0.344 N 
HETATM    3  C           1     -21.314  -8.302  -2.308  0.00  0.00     0.249 C 
HETATM    4  O           1     -21.824  -9.344  -1.970  0.00  0.00    -0.271 OA
HETATM    5  H           1     -19.411  -8.410  -3.117  0.00  0.00     0.163 HD
BRANCH   3   6
HETATM    6  C           1     -21.688  -7.018  -1.611  0.00  0.00     0.274 C 
BRANCH   6   7
HETATM    7  N           1     -22.425  -6.128  -2.568  0.00  0.00    -0.067 N 
HETATM    8  H           1     -21.738  -5.602  -3.155  0.00  0.00     0.275 HD
HETATM    9  H           1     -23.034  -6.710  -3.185  0.00  0.00     0.275 HD
HETATM   10  H           1     -23.014  -5.451  -2.032  0.00  0.00     0.275 HD
ENDBRANCH   6   7
BRANCH   6  11
HETATM   11  C           1     -22.583  -7.329  -0.419  0.00  0.00     0.045 C 
BRANCH  11  12
HETATM   12 Se           1     -21.539  -8.214   0.968  0.00  0.00     0.000 Se
HETATM   13  H           1     -20.976  -6.963   1.504  0.00  0.00     0.000 HD
ENDBRANCH  11  12
ENDBRANCH   6  11
ENDBRANCH   3   6
ENDBRANCH   1   2
BRANCH   1  14
HETATM   14  C           1     -19.818  -7.232  -5.431  0.00  0.00     0.074 C 
BRANCH  14  15
HETATM   15  C           1     -20.541  -6.207  -6.250  0.00  0.00    -0.056 A 
HETATM   16  C           1     -21.861  -5.875  -5.943  0.00  0.00     0.010 A 
HETATM   17  C           1     -22.533  -4.920  -6.706  0.00  0.00     0.038 A 
HETATM   18  C           1     -21.887  -4.299  -7.775  0.00  0.00     0.081 A 
HETATM   19  C           1     -20.567  -4.631  -8.080  0.00  0.00     0.038 A 
HETATM   20  C           1     -19.894  -5.586  -7.317  0.00  0.00     0.010 A 
BRANCH  18  21
HETATM   21  O           1     -22.540  -3.371  -8.515  0.00  0.00    -0.247 OA
BRANCH  21  22
HETATM   22  P           1     -23.061  -3.801  -9.982  0.00  0.00     0.411 P 
HETATM   23  O           1     -23.355  -5.251  -9.996  0.00  0.00    -0.624 OA
HETATM   24  O           1     -24.290  -3.046 -10.312  0.00  0.00    -0.624 OA
BRANCH  22  25
HETATM   25  O           1     -21.918  -3.472 -11.075  0.00  0.00    -0.300 OA
HETATM   26  H           1     -22.252  -2.740 -11.566  0.00  0.00     0.223 HD
ENDBRANCH  22  25
ENDBRANCH  21  22
ENDBRANCH  18  21
ENDBRANCH  14  15
ENDBRANCH   1  14
BRANCH   1  27
HETATM   27  C           1     -20.937  -9.440  -5.376  0.00  0.00     0.197 C 
HETATM   28  O           1     -20.318 -10.426  -4.918  0.00  0.00    -0.646 OA
HETATM   29  O           1     -21.644  -9.566  -6.399  0.00  0.00    -0.646 OA
ENDBRANCH   1  27
TORSDOF 11
ENDMDL
MODEL 8
REMARK VINA RESULT:      -5.9      6.305      9.638
REMARK  11 active torsions:
REMARK  status: ('A' for Active; 'I' for Inactive)
REMARK    1  A    between atoms: N_3  and  C_6 
REMARK    2  A    between atoms: Se_4  and  C_5 
REMARK    3  A    between atoms: C_5  and  C_6 
REMARK    4  A    between atoms: C_6  and  C_7 
REMARK       I    between atoms: C_7  and  N_8 
REMARK    5  A    between atoms: N_8  and  C_21 
REMARK    6  A    between atoms: O_12  and  P_14 
REMARK    7  A    between atoms: P_14  and  O_15 
REMARK    8  A    between atoms: O_15  and  C_16 
REMARK    9  A    between atoms: C_19  and  C_20 
REMARK   10  A    between atoms: C_20  and  C_21 
REMARK   11  A    between atoms: C_21  and  C_23 
ROOT
HETATM    1  C           1     -21.570  -8.013  -1.704  0.00  0.00     0.189 C 
ENDROOT
BRANCH   1   2
HETATM    2  N           1     -20.185  -8.153  -2.107  0.00  0.00    -0.344 N 
HETATM    3  C           1     -19.836  -9.089  -3.043  0.00  0.00     0.249 C 
HETATM    4  O           1     -19.832  -8.799  -4.216  0.00  0.00    -0.271 OA
HETATM    5  H           1     -19.476  -7.558  -1.697  0.00  0.00     0.163 HD
BRANCH   3   6
HETATM    6  C           1     -19.454 -10.483  -2.610  0.00  0.00     0.274 C 
BRANCH   6   7
HETATM    7  N           1     -20.598 -11.418  -2.874  0.00  0.00    -0.067 N 
HETATM    8  H           1     -21.483 -10.998  -2.508  0.00  0.00     0.275 HD
HETATM    9  H           1     -20.688 -11.574  -3.903  0.00  0.00     0.275 HD
HETATM   10  H           1     -20.421 -12.330  -2.396  0.00  0.00     0.275 HD
ENDBRANCH   6   7
BRANCH   6  11
HETATM   11  C           1     -18.234 -10.943  -3.397  0.00  0.00     0.045 C 
BRANCH  11  12
HETATM   12 Se           1     -16.685  -9.883  -2.876  0.00  0.00     0.000 Se
HETATM   13  H           1     -16.702  -9.049  -4.089  0.00  0.00     0.000 HD
ENDBRANCH  11  12
ENDBRANCH   6  11
ENDBRANCH   3   6
ENDBRANCH   1   2
BRANCH   1  14
HETATM   14  C           1     -21.692  -8.280  -0.209  0.00  0.00     0.074 C 
BRANCH  14  15
HETATM   15  C           1     -22.128  -9.696   0.012  0.00  0.00    -0.056 A 
HETATM   16  C           1     -23.421 -10.088  -0.332  0.00  0.00     0.010 A 
HETATM   17  C           1     -23.827 -11.408  -0.127  0.00  0.00     0.038 A 
HETATM   18  C           1     -22.939 -12.333   0.422  0.00  0.00     0.081 A 
HETATM   19  C           1     -21.645 -11.940   0.765  0.00  0.00     0.038 A 
HETATM   20  C           1     -21.240 -10.621   0.560  0.00  0.00     0.010 A 
BRANCH  18  21
HETATM   21  O           1     -23.333 -13.614   0.621  0.00  0.00    -0.247 OA
BRANCH  21  22
HETATM   22  P           1     -23.405 -14.592  -0.662  0.00  0.00     0.411 P 
HETATM   23  O           1     -22.995 -15.958  -0.265  0.00  0.00    -0.624 OA
HETATM   24  O           1     -24.791 -14.625  -1.182  0.00  0.00    -0.624 OA
BRANCH  22  25
HETATM   25  O           1     -22.412 -14.044  -1.812  0.00  0.00    -0.300 OA
HETATM   26  H           1     -22.225 -14.795  -2.351  0.00  0.00     0.223 HD
ENDBRANCH  22  25
ENDBRANCH  21  22
ENDBRANCH  18  21
ENDBRANCH  14  15
ENDBRANCH   1  14
BRANCH   1  27
HETATM   27  C           1     -22.042  -6.611  -2.004  0.00  0.00     0.197 C 
HETATM   28  O           1     -22.381  -5.852  -1.070  0.00  0.00    -0.646 OA
HETATM   29  O           1     -22.093  -6.209  -3.186  0.00  0.00    -0.646 OA
ENDBRANCH   1  27
TORSDOF 11
ENDMDL
MODEL 9
REMARK VINA RESULT:      -5.8      4.898      8.543
REMARK  11 active torsions:
REMARK  status: ('A' for Active; 'I' for Inactive)
REMARK    1  A    between atoms: N_3  and  C_6 
REMARK    2  A    between atoms: Se_4  and  C_5 
REMARK    3  A    between atoms: C_5  and  C_6 
REMARK    4  A    between atoms: C_6  and  C_7 
REMARK       I    between atoms: C_7  and  N_8 
REMARK    5  A    between atoms: N_8  and  C_21 
REMARK    6  A    between atoms: O_12  and  P_14 
REMARK    7  A    between atoms: P_14  and  O_15 
REMARK    8  A    between atoms: O_15  and  C_16 
REMARK    9  A    between atoms: C_19  and  C_20 
REMARK   10  A    between atoms: C_20  and  C_21 
REMARK   11  A    between atoms: C_21  and  C_23 
ROOT
HETATM    1  C           1     -21.076  -7.063  -5.986  0.00  0.00     0.189 C 
ENDROOT
BRANCH   1   2
HETATM    2  N           1     -20.625  -6.247  -7.096  0.00  0.00    -0.344 N 
HETATM    3  C           1     -21.197  -5.024  -7.323  0.00  0.00     0.249 C 
HETATM    4  O           1     -20.737  -4.035  -6.803  0.00  0.00    -0.271 OA
HETATM    5  H           1     -19.886  -6.580  -7.703  0.00  0.00     0.163 HD
BRANCH   3   6
HETATM    6  C           1     -22.402  -4.911  -8.224  0.00  0.00     0.274 C 
BRANCH   6   7
HETATM    7  N           1     -23.525  -4.254  -7.475  0.00  0.00    -0.067 N 
HETATM    8  H           1     -23.132  -3.585  -6.774  0.00  0.00     0.275 HD
HETATM    9  H           1     -24.134  -3.735  -8.146  0.00  0.00     0.275 HD
HETATM   10  H           1     -24.089  -4.983  -6.982  0.00  0.00     0.275 HD
ENDBRANCH   6   7
BRANCH   6  11
HETATM   11  C           1     -22.048  -4.069  -9.443  0.00  0.00     0.045 C 
BRANCH  11  12
HETATM   12 Se           1     -23.271  -4.487 -10.901  0.00  0.00     0.000 Se
HETATM   13  H           1     -23.302  -5.931 -10.616  0.00  0.00     0.000 HD
ENDBRANCH  11  12
ENDBRANCH   6  11
ENDBRANCH   3   6
ENDBRANCH   1   2
BRANCH   1  14
HETATM   14  C           1     -19.879  -7.764  -5.354  0.00  0.00     0.074 C 
BRANCH  14  15
HETATM   15  C           1     -20.360  -8.761  -4.346  0.00  0.00    -0.056 A 
HETATM   16  C           1     -21.452  -9.579  -4.639  0.00  0.00     0.010 A 
HETATM   17  C           1     -21.899 -10.508  -3.699  0.00  0.00     0.038 A 
HETATM   18  C           1     -21.255 -10.619  -2.468  0.00  0.00     0.081 A 
HETATM   19  C           1     -20.163  -9.802  -2.174  0.00  0.00     0.038 A 
HETATM   20  C           1     -19.716  -8.873  -3.114  0.00  0.00     0.010 A 
BRANCH  18  21
HETATM   21  O           1     -21.689 -11.522  -1.555  0.00  0.00    -0.247 OA
BRANCH  21  22
HETATM   22  P           1     -22.370 -10.964  -0.201  0.00  0.00     0.411 P 
HETATM   23  O           1     -23.106  -9.715  -0.497  0.00  0.00    -0.624 OA
HETATM   24  O           1     -23.309 -11.976   0.334  0.00  0.00    -0.624 OA
BRANCH  22  25
HETATM   25  O           1     -21.220 -10.665   0.894  0.00  0.00    -0.300 OA
HETATM   26  H           1     -21.535  -9.923   1.382  0.00  0.00     0.223 HD
ENDBRANCH  22  25
ENDBRANCH  21  22
ENDBRANCH  18  21
ENDBRANCH  14  15
ENDBRANCH   1  14
BRANCH   1  27
HETATM   27  C           1     -21.746  -6.186  -4.957  0.00  0.00     0.197 C 
HETATM   28  O           1     -21.057  -5.579  -4.108  0.00  0.00    -0.646 OA
HETATM   29  O           1     -22.990  -6.067  -4.953  0.00  0.00    -0.646 OA
ENDBRANCH   1  27
TORSDOF 11
ENDMDL
