MODEL 1
REMARK VINA RESULT:      -6.5      0.000      0.000
REMARK  9 active torsions:
REMARK  status: ('A' for Active; 'I' for Inactive)
REMARK       I    between atoms: N_2  and  C_3 
REMARK    1  A    between atoms: C_3  and  C_4 
REMARK    2  A    between atoms: C_4  and  C_5 
REMARK    3  A    between atoms: C_5  and  C_6 
REMARK    4  A    between atoms: C_6  and  C_7 
REMARK    5  A    between atoms: C_6  and  N_18 
REMARK       I    between atoms: C_7  and  N_24 
REMARK    6  A    between atoms: C_9  and  C_16 
REMARK    7  A    between atoms: C_9  and  C_22 
REMARK    8  A    between atoms: C_9  and  N_24 
REMARK    9  A    between atoms: O_10  and  C_16 
ROOT
HETATM    1  C           1     -21.152  -5.899  -6.932  0.00  0.00     0.275 C 
ENDROOT
BRANCH   1   2
HETATM    2  C           1     -21.113  -5.592  -5.442  0.00  0.00     0.052 C 
BRANCH   2   3
HETATM    3  C           1     -22.132  -6.460  -4.716  0.00  0.00     0.105 C 
BRANCH   3   4
HETATM    4  C           1     -21.734  -6.598  -3.268  0.00  0.00     0.215 C 
HETATM    5  O           1     -20.820  -7.324  -2.958  0.00  0.00    -0.274 OA
HETATM    6  N           1     -22.409  -5.898  -2.303  0.00  0.00    -0.370 N 
HETATM    7  H           1     -22.141  -5.990  -1.331  0.00  0.00     0.159 HD
HETATM    8  H           1     -23.174  -5.290  -2.562  0.00  0.00     0.159 HD
ENDBRANCH   3   4
ENDBRANCH   2   3
ENDBRANCH   1   2
BRANCH   1   9
HETATM    9  C           1     -21.700  -4.707  -7.678  0.00  0.00     0.249 C 
HETATM   10  N           1     -22.157  -4.852  -8.960  0.00  0.00    -0.343 N 
HETATM   11  H           1     -22.129  -5.760  -9.408  0.00  0.00     0.163 HD
HETATM   12  O           1     -21.732  -3.624  -7.144  0.00  0.00    -0.271 OA
BRANCH  10  13
HETATM   13  C           1     -22.684  -3.706  -9.677  0.00  0.00     0.214 C 
BRANCH  13  14
HETATM   14  C           1     -22.104  -3.678 -11.084  0.00  0.00     0.147 C 
HETATM   15  C           1     -20.591  -3.842 -11.012  0.00  0.00     0.042 C 
BRANCH  14  16
HETATM   16  O           1     -22.653  -4.726 -11.837  0.00  0.00    -0.393 OA
HETATM   17  H           1     -23.514  -4.888 -11.493  0.00  0.00     0.210 HD
ENDBRANCH  14  16
ENDBRANCH  13  14
BRANCH  13  18
HETATM   18  C           1     -24.187  -3.810  -9.754  0.00  0.00     0.199 C 
HETATM   19  O           1     -24.894  -2.793  -9.588  0.00  0.00    -0.646 OA
HETATM   20  O           1     -24.726  -4.915  -9.983  0.00  0.00    -0.646 OA
ENDBRANCH  13  18
ENDBRANCH  10  13
ENDBRANCH   1   9
BRANCH   1  21
HETATM   21  N           1     -19.764  -6.197  -7.418  0.00  0.00    -0.066 N 
HETATM   22  H           1     -19.231  -6.691  -6.668  0.00  0.00     0.275 HD
HETATM   23  H           1     -19.815  -6.805  -8.267  0.00  0.00     0.275 HD
HETATM   24  H           1     -19.280  -5.303  -7.659  0.00  0.00     0.275 HD
ENDBRANCH   1  21
TORSDOF 9
ENDMDL
MODEL 2
REMARK VINA RESULT:      -6.3      2.615      6.689
REMARK  9 active torsions:
REMARK  status: ('A' for Active; 'I' for Inactive)
REMARK       I    between atoms: N_2  and  C_3 
REMARK    1  A    between atoms: C_3  and  C_4 
REMARK    2  A    between atoms: C_4  and  C_5 
REMARK    3  A    between atoms: C_5  and  C_6 
REMARK    4  A    between atoms: C_6  and  C_7 
REMARK    5  A    between atoms: C_6  and  N_18 
REMARK       I    between atoms: C_7  and  N_24 
REMARK    6  A    between atoms: C_9  and  C_16 
REMARK    7  A    between atoms: C_9  and  C_22 
REMARK    8  A    between atoms: C_9  and  N_24 
REMARK    9  A    between atoms: O_10  and  C_16 
ROOT
HETATM    1  C           1     -24.129  -3.917 -10.173  0.00  0.00     0.275 C 
ENDROOT
BRANCH   1   2
HETATM    2  C           1     -23.818  -2.861 -11.225  0.00  0.00     0.052 C 
BRANCH   2   3
HETATM    3  C           1     -24.390  -3.297 -12.568  0.00  0.00     0.105 C 
BRANCH   3   4
HETATM    4  C           1     -23.319  -3.198 -13.625  0.00  0.00     0.215 C 
HETATM    5  O           1     -23.611  -2.888 -14.755  0.00  0.00    -0.274 OA
HETATM    6  N           1     -22.013  -3.460 -13.303  0.00  0.00    -0.370 N 
HETATM    7  H           1     -21.294  -3.393 -14.013  0.00  0.00     0.159 HD
HETATM    8  H           1     -21.768  -3.720 -12.357  0.00  0.00     0.159 HD
ENDBRANCH   3   4
ENDBRANCH   2   3
ENDBRANCH   1   2
BRANCH   1   9
HETATM    9  C           1     -22.839  -4.451  -9.599  0.00  0.00     0.249 C 
HETATM   10  N           1     -22.717  -4.640  -8.249  0.00  0.00    -0.343 N 
HETATM   11  H           1     -23.492  -4.422  -7.635  0.00  0.00     0.163 HD
HETATM   12  O           1     -21.915  -4.710 -10.331  0.00  0.00    -0.271 OA
BRANCH  10  13
HETATM   13  C           1     -21.478  -5.154  -7.697  0.00  0.00     0.214 C 
BRANCH  13  14
HETATM   14  C           1     -20.632  -3.996  -7.186  0.00  0.00     0.147 C 
HETATM   15  C           1     -19.457  -3.773  -8.128  0.00  0.00     0.042 C 
BRANCH  14  16
HETATM   16  O           1     -21.415  -2.834  -7.131  0.00  0.00    -0.393 OA
HETATM   17  H           1     -21.672  -2.719  -6.232  0.00  0.00     0.210 HD
ENDBRANCH  14  16
ENDBRANCH  13  14
BRANCH  13  18
HETATM   18  C           1     -21.788  -6.093  -6.558  0.00  0.00     0.199 C 
HETATM   19  O           1     -22.566  -5.737  -5.647  0.00  0.00    -0.646 OA
HETATM   20  O           1     -21.266  -7.229  -6.525  0.00  0.00    -0.646 OA
ENDBRANCH  13  18
ENDBRANCH  10  13
ENDBRANCH   1   9
BRANCH   1  21
HETATM   21  N           1     -24.947  -3.302  -9.076  0.00  0.00    -0.066 N 
HETATM   22  H           1     -25.946  -3.589  -9.184  0.00  0.00     0.275 HD
HETATM   23  H           1     -24.590  -3.629  -8.149  0.00  0.00     0.275 HD
HETATM   24  H           1     -24.875  -2.261  -9.128  0.00  0.00     0.275 HD
ENDBRANCH   1  21
TORSDOF 9
ENDMDL
MODEL 3
REMARK VINA RESULT:      -6.1      2.730      7.055
REMARK  9 active torsions:
REMARK  status: ('A' for Active; 'I' for Inactive)
REMARK       I    between atoms: N_2  and  C_3 
REMARK    1  A    between atoms: C_3  and  C_4 
REMARK    2  A    between atoms: C_4  and  C_5 
REMARK    3  A    between atoms: C_5  and  C_6 
REMARK    4  A    between atoms: C_6  and  C_7 
REMARK    5  A    between atoms: C_6  and  N_18 
REMARK       I    between atoms: C_7  and  N_24 
REMARK    6  A    between atoms: C_9  and  C_16 
REMARK    7  A    between atoms: C_9  and  C_22 
REMARK    8  A    between atoms: C_9  and  N_24 
REMARK    9  A    between atoms: O_10  and  C_16 
ROOT
HETATM    1  C           1     -21.850  -3.295 -11.221  0.00  0.00     0.275 C 
ENDROOT
BRANCH   1   2
HETATM    2  C           1     -22.742  -3.741 -12.371  0.00  0.00     0.052 C 
BRANCH   2   3
HETATM    3  C           1     -23.650  -2.591 -12.787  0.00  0.00     0.105 C 
BRANCH   3   4
HETATM    4  C           1     -23.418  -2.268 -14.242  0.00  0.00     0.215 C 
HETATM    5  O           1     -24.091  -1.430 -14.791  0.00  0.00    -0.274 OA
HETATM    6  N           1     -22.440  -2.927 -14.941  0.00  0.00    -0.370 N 
HETATM    7  H           1     -22.284  -2.710 -15.917  0.00  0.00     0.159 HD
HETATM    8  H           1     -21.876  -3.629 -14.481  0.00  0.00     0.159 HD
ENDBRANCH   3   4
ENDBRANCH   2   3
ENDBRANCH   1   2
BRANCH   1   9
HETATM    9  C           1     -22.045  -4.219 -10.044  0.00  0.00     0.249 C 
HETATM   10  N           1     -21.056  -4.352  -9.107  0.00  0.00    -0.343 N 
HETATM   11  H           1     -20.194  -3.830  -9.203  0.00  0.00     0.163 HD
HETATM   12  O           1     -23.073  -4.842  -9.930  0.00  0.00    -0.271 OA
BRANCH  10  13
HETATM   13  C           1     -21.244  -5.240  -7.975  0.00  0.00     0.214 C 
BRANCH  13  14
HETATM   14  C           1     -19.886  -5.687  -7.451  0.00  0.00     0.147 C 
HETATM   15  C           1     -18.877  -4.561  -7.635  0.00  0.00     0.042 C 
BRANCH  14  16
HETATM   16  O           1     -19.992  -6.001  -6.088  0.00  0.00    -0.393 OA
HETATM   17  H           1     -19.533  -5.328  -5.616  0.00  0.00     0.210 HD
ENDBRANCH  14  16
ENDBRANCH  13  14
BRANCH  13  18
HETATM   18  C           1     -21.991  -4.512  -6.885  0.00  0.00     0.199 C 
HETATM   19  O           1     -22.959  -5.061  -6.317  0.00  0.00    -0.646 OA
HETATM   20  O           1     -21.640  -3.360  -6.549  0.00  0.00    -0.646 OA
ENDBRANCH  13  18
ENDBRANCH  10  13
ENDBRANCH   1   9
BRANCH   1  21
HETATM   21  N           1     -20.415  -3.337 -11.657  0.00  0.00    -0.066 N 
HETATM   22  H           1     -19.936  -4.145 -11.199  0.00  0.00     0.275 HD
HETATM   23  H           1     -20.369  -3.447 -12.695  0.00  0.00     0.275 HD
HETATM   24  H           1     -19.941  -2.448 -11.380  0.00  0.00     0.275 HD
ENDBRANCH   1  21
TORSDOF 9
ENDMDL
MODEL 4
REMARK VINA RESULT:      -6.0      2.602      6.768
REMARK  9 active torsions:
REMARK  status: ('A' for Active; 'I' for Inactive)
REMARK       I    between atoms: N_2  and  C_3 
REMARK    1  A    between atoms: C_3  and  C_4 
REMARK    2  A    between atoms: C_4  and  C_5 
REMARK    3  A    between atoms: C_5  and  C_6 
REMARK    4  A    between atoms: C_6  and  C_7 
REMARK    5  A    between atoms: C_6  and  N_18 
REMARK       I    between atoms: C_7  and  N_24 
REMARK    6  A    between atoms: C_9  and  C_16 
REMARK    7  A    between atoms: C_9  and  C_22 
REMARK    8  A    between atoms: C_9  and  N_24 
REMARK    9  A    between atoms: O_10  and  C_16 
ROOT
HETATM    1  C           1     -24.129  -4.671  -9.882  0.00  0.00     0.275 C 
ENDROOT
BRANCH   1   2
HETATM    2  C           1     -23.691  -4.549 -11.334  0.00  0.00     0.052 C 
BRANCH   2   3
HETATM    3  C           1     -24.323  -3.309 -11.954  0.00  0.00     0.105 C 
BRANCH   3   4
HETATM    4  C           1     -23.529  -2.893 -13.167  0.00  0.00     0.215 C 
HETATM    5  O           1     -24.030  -2.182 -14.004  0.00  0.00    -0.274 OA
HETATM    6  N           1     -22.236  -3.322 -13.318  0.00  0.00    -0.370 N 
HETATM    7  H           1     -21.703  -3.042 -14.132  0.00  0.00     0.159 HD
HETATM    8  H           1     -21.816  -3.917 -12.617  0.00  0.00     0.159 HD
ENDBRANCH   3   4
ENDBRANCH   2   3
ENDBRANCH   1   2
BRANCH   1   9
HETATM    9  C           1     -23.015  -4.198  -8.978  0.00  0.00     0.249 C 
HETATM   10  N           1     -22.186  -5.108  -8.380  0.00  0.00    -0.343 N 
HETATM   11  H           1     -22.319  -6.098  -8.544  0.00  0.00     0.163 HD
HETATM   12  O           1     -22.858  -3.017  -8.783  0.00  0.00    -0.271 OA
BRANCH  10  13
HETATM   13  C           1     -21.116  -4.653  -7.513  0.00  0.00     0.214 C 
BRANCH  13  14
HETATM   14  C           1     -20.951  -5.630  -6.356  0.00  0.00     0.147 C 
HETATM   15  C           1     -22.323  -6.012  -5.817  0.00  0.00     0.042 C 
BRANCH  14  16
HETATM   16  O           1     -20.289  -6.781  -6.808  0.00  0.00    -0.393 OA
HETATM   17  H           1     -19.369  -6.641  -6.665  0.00  0.00     0.210 HD
ENDBRANCH  14  16
ENDBRANCH  13  14
BRANCH  13  18
HETATM   18  C           1     -19.830  -4.581  -8.298  0.00  0.00     0.199 C 
HETATM   19  O           1     -19.820  -4.878  -9.512  0.00  0.00    -0.646 OA
HETATM   20  O           1     -18.773  -4.222  -7.735  0.00  0.00    -0.646 OA
ENDBRANCH  13  18
ENDBRANCH  10  13
ENDBRANCH   1   9
BRANCH   1  21
HETATM   21  N           1     -25.348  -3.827  -9.654  0.00  0.00    -0.066 N 
HETATM   22  H           1     -26.066  -4.385  -9.139  0.00  0.00     0.275 HD
HETATM   23  H           1     -25.090  -2.986  -9.090  0.00  0.00     0.275 HD
HETATM   24  H           1     -25.737  -3.522 -10.575  0.00  0.00     0.275 HD
ENDBRANCH   1  21
TORSDOF 9
ENDMDL
MODEL 5
REMARK VINA RESULT:      -5.9      1.976      2.539
REMARK  9 active torsions:
REMARK  status: ('A' for Active; 'I' for Inactive)
REMARK       I    between atoms: N_2  and  C_3 
REMARK    1  A    between atoms: C_3  and  C_4 
REMARK    2  A    between atoms: C_4  and  C_5 
REMARK    3  A    between atoms: C_5  and  C_6 
REMARK    4  A    between atoms: C_6  and  C_7 
REMARK    5  A    between atoms: C_6  and  N_18 
REMARK       I    between atoms: C_7  and  N_24 
REMARK    6  A    between atoms: C_9  and  C_16 
REMARK    7  A    between atoms: C_9  and  C_22 
REMARK    8  A    between atoms: C_9  and  N_24 
REMARK    9  A    between atoms: O_10  and  C_16 
ROOT
HETATM    1  C           1     -22.574  -4.379  -7.280  0.00  0.00     0.275 C 
ENDROOT
BRANCH   1   2
HETATM    2  C           1     -21.567  -5.483  -7.571  0.00  0.00     0.052 C 
BRANCH   2   3
HETATM    3  C           1     -20.631  -5.644  -6.381  0.00  0.00     0.105 C 
BRANCH   3   4
HETATM    4  C           1     -20.894  -6.969  -5.710  0.00  0.00     0.215 C 
HETATM    5  O           1     -21.953  -7.172  -5.167  0.00  0.00    -0.274 OA
HETATM    6  N           1     -19.931  -7.944  -5.718  0.00  0.00    -0.370 N 
HETATM    7  H           1     -20.108  -8.833  -5.269  0.00  0.00     0.159 HD
HETATM    8  H           1     -19.044  -7.774  -6.174  0.00  0.00     0.159 HD
ENDBRANCH   3   4
ENDBRANCH   2   3
ENDBRANCH   1   2
BRANCH   1   9
HETATM    9  C           1     -23.051  -3.776  -8.580  0.00  0.00     0.249 C 
HETATM   10  N           1     -22.223  -3.756  -9.669  0.00  0.00    -0.343 N 
HETATM   11  H           1     -21.291  -4.147  -9.604  0.00  0.00     0.163 HD
HETATM   12  O           1     -24.162  -3.310  -8.656  0.00  0.00    -0.271 OA
BRANCH  10  13
HETATM   13  C           1     -22.680  -3.177 -10.918  0.00  0.00     0.214 C 
BRANCH  13  14
HETATM   14  C           1     -21.509  -3.064 -11.884  0.00  0.00     0.147 C 
HETATM   15  C           1     -20.324  -3.849 -11.337  0.00  0.00     0.042 C 
BRANCH  14  16
HETATM   16  O           1     -21.881  -3.587 -13.131  0.00  0.00    -0.393 OA
HETATM   17  H           1     -21.337  -3.167 -13.776  0.00  0.00     0.210 HD
ENDBRANCH  14  16
ENDBRANCH  13  14
BRANCH  13  18
HETATM   18  C           1     -23.747  -4.059 -11.519  0.00  0.00     0.199 C 
HETATM   19  O           1     -23.599  -5.300 -11.531  0.00  0.00    -0.646 OA
HETATM   20  O           1     -24.780  -3.548 -12.005  0.00  0.00    -0.646 OA
ENDBRANCH  13  18
ENDBRANCH  10  13
ENDBRANCH   1   9
BRANCH   1  21
HETATM   21  N           1     -23.745  -4.954  -6.538  0.00  0.00    -0.066 N 
HETATM   22  H           1     -24.480  -5.246  -7.220  0.00  0.00     0.275 HD
HETATM   23  H           1     -23.434  -5.784  -5.985  0.00  0.00     0.275 HD
HETATM   24  H           1     -24.136  -4.232  -5.892  0.00  0.00     0.275 HD
ENDBRANCH   1  21
TORSDOF 9
ENDMDL
MODEL 6
REMARK VINA RESULT:      -5.8      2.126      3.059
REMARK  9 active torsions:
REMARK  status: ('A' for Active; 'I' for Inactive)
REMARK       I    between atoms: N_2  and  C_3 
REMARK    1  A    between atoms: C_3  and  C_4 
REMARK    2  A    between atoms: C_4  and  C_5 
REMARK    3  A    between atoms: C_5  and  C_6 
REMARK    4  A    between atoms: C_6  and  C_7 
REMARK    5  A    between atoms: C_6  and  N_18 
REMARK       I    between atoms: C_7  and  N_24 
REMARK    6  A    between atoms: C_9  and  C_16 
REMARK    7  A    between atoms: C_9  and  C_22 
REMARK    8  A    between atoms: C_9  and  N_24 
REMARK    9  A    between atoms: O_10  and  C_16 
ROOT
HETATM    1  C           1     -20.386  -3.933  -8.060  0.00  0.00     0.275 C 
ENDROOT
BRANCH   1   2
HETATM    2  C           1     -19.966  -5.236  -7.395  0.00  0.00     0.052 C 
BRANCH   2   3
HETATM    3  C           1     -20.137  -5.115  -5.886  0.00  0.00     0.105 C 
BRANCH   3   4
HETATM    4  C           1     -21.065  -6.200  -5.397  0.00  0.00     0.215 C 
HETATM    5  O           1     -21.844  -5.972  -4.504  0.00  0.00    -0.274 OA
HETATM    6  N           1     -21.024  -7.444  -5.969  0.00  0.00    -0.370 N 
HETATM    7  H           1     -21.647  -8.172  -5.641  0.00  0.00     0.159 HD
HETATM    8  H           1     -20.371  -7.635  -6.717  0.00  0.00     0.159 HD
ENDBRANCH   3   4
ENDBRANCH   2   3
ENDBRANCH   1   2
BRANCH   1   9
HETATM    9  C           1     -21.004  -4.230  -9.405  0.00  0.00     0.249 C 
HETATM   10  N           1     -22.244  -3.739  -9.712  0.00  0.00    -0.343 N 
HETATM   11  H           1     -22.747  -3.176  -9.038  0.00  0.00     0.163 HD
HETATM   12  O           1     -20.404  -4.903 -10.209  0.00  0.00    -0.271 OA
BRANCH  10  13
HETATM   13  C           1     -22.838  -4.025 -11.005  0.00  0.00     0.214 C 
BRANCH  13  14
HETATM   14  C           1     -24.354  -3.934 -10.898  0.00  0.00     0.147 C 
HETATM   15  C           1     -24.731  -3.356  -9.541  0.00  0.00     0.042 C 
BRANCH  14  16
HETATM   16  O           1     -24.845  -3.103 -11.914  0.00  0.00    -0.393 OA
HETATM   17  H           1     -24.207  -3.113 -12.608  0.00  0.00     0.210 HD
ENDBRANCH  14  16
ENDBRANCH  13  14
BRANCH  13  18
HETATM   18  C           1     -22.343  -3.020 -12.017  0.00  0.00     0.199 C 
HETATM   19  O           1     -22.253  -3.338 -13.222  0.00  0.00    -0.646 OA
HETATM   20  O           1     -22.024  -1.868 -11.649  0.00  0.00    -0.646 OA
ENDBRANCH  13  18
ENDBRANCH  10  13
ENDBRANCH   1   9
BRANCH   1  21
HETATM   21  N           1     -21.390  -3.231  -7.194  0.00  0.00    -0.066 N 
HETATM   22  H           1     -20.978  -2.340  -6.836  0.00  0.00     0.275 HD
HETATM   23  H           1     -22.246  -3.018  -7.755  0.00  0.00     0.275 HD
HETATM   24  H           1     -21.646  -3.846  -6.389  0.00  0.00     0.275 HD
ENDBRANCH   1  21
TORSDOF 9
ENDMDL
MODEL 7
REMARK VINA RESULT:      -5.6      1.906      6.547
REMARK  9 active torsions:
REMARK  status: ('A' for Active; 'I' for Inactive)
REMARK       I    between atoms: N_2  and  C_3 
REMARK    1  A    between atoms: C_3  and  C_4 
REMARK    2  A    between atoms: C_4  and  C_5 
REMARK    3  A    between atoms: C_5  and  C_6 
REMARK    4  A    between atoms: C_6  and  C_7 
REMARK    5  A    between atoms: C_6  and  N_18 
REMARK       I    between atoms: C_7  and  N_24 
REMARK    6  A    between atoms: C_9  and  C_16 
REMARK    7  A    between atoms: C_9  and  C_22 
REMARK    8  A    between atoms: C_9  and  N_24 
REMARK    9  A    between atoms: O_10  and  C_16 
ROOT
HETATM    1  C           1     -20.456  -4.976  -6.549  0.00  0.00     0.275 C 
ENDROOT
BRANCH   1   2
HETATM    2  C           1     -21.299  -3.861  -7.151  0.00  0.00     0.052 C 
BRANCH   2   3
HETATM    3  C           1     -21.476  -4.106  -8.644  0.00  0.00     0.105 C 
BRANCH   3   4
HETATM    4  C           1     -22.938  -4.325  -8.947  0.00  0.00     0.215 C 
HETATM    5  O           1     -23.278  -4.717 -10.037  0.00  0.00    -0.274 OA
HETATM    6  N           1     -23.881  -4.078  -7.984  0.00  0.00    -0.370 N 
HETATM    7  H           1     -24.861  -4.225  -8.186  0.00  0.00     0.159 HD
HETATM    8  H           1     -23.596  -3.750  -7.070  0.00  0.00     0.159 HD
ENDBRANCH   3   4
ENDBRANCH   2   3
ENDBRANCH   1   2
BRANCH   1   9
HETATM    9  C           1     -21.316  -5.824  -5.643  0.00  0.00     0.249 C 
HETATM   10  N           1     -20.734  -6.733  -4.801  0.00  0.00    -0.343 N 
HETATM   11  H           1     -19.727  -6.835  -4.784  0.00  0.00     0.163 HD
HETATM   12  O           1     -22.517  -5.702  -5.664  0.00  0.00    -0.271 OA
BRANCH  10  13
HETATM   13  C           1     -21.560  -7.548  -3.931  0.00  0.00     0.214 C 
BRANCH  13  14
HETATM   14  C           1     -20.973  -8.949  -3.840  0.00  0.00     0.147 C 
HETATM   15  C           1     -22.101  -9.963  -3.700  0.00  0.00     0.042 C 
BRANCH  14  16
HETATM   16  O           1     -20.238  -9.224  -5.003  0.00  0.00    -0.393 OA
HETATM   17  H           1     -19.328  -9.130  -4.780  0.00  0.00     0.210 HD
ENDBRANCH  14  16
ENDBRANCH  13  14
BRANCH  13  18
HETATM   18  C           1     -21.602  -6.929  -2.555  0.00  0.00     0.199 C 
HETATM   19  O           1     -22.388  -5.987  -2.316  0.00  0.00    -0.646 OA
HETATM   20  O           1     -20.850  -7.360  -1.653  0.00  0.00    -0.646 OA
ENDBRANCH  13  18
ENDBRANCH  10  13
ENDBRANCH   1   9
BRANCH   1  21
HETATM   21  N           1     -19.896  -5.829  -7.649  0.00  0.00    -0.066 N 
HETATM   22  H           1     -19.813  -5.262  -8.521  0.00  0.00     0.275 HD
HETATM   23  H           1     -18.953  -6.182  -7.371  0.00  0.00     0.275 HD
HETATM   24  H           1     -20.534  -6.640  -7.820  0.00  0.00     0.275 HD
ENDBRANCH   1  21
TORSDOF 9
ENDMDL
MODEL 8
REMARK VINA RESULT:      -5.5      1.706      2.176
REMARK  9 active torsions:
REMARK  status: ('A' for Active; 'I' for Inactive)
REMARK       I    between atoms: N_2  and  C_3 
REMARK    1  A    between atoms: C_3  and  C_4 
REMARK    2  A    between atoms: C_4  and  C_5 
REMARK    3  A    between atoms: C_5  and  C_6 
REMARK    4  A    between atoms: C_6  and  C_7 
REMARK    5  A    between atoms: C_6  and  N_18 
REMARK       I    between atoms: C_7  and  N_24 
REMARK    6  A    between atoms: C_9  and  C_16 
REMARK    7  A    between atoms: C_9  and  C_22 
REMARK    8  A    between atoms: C_9  and  N_24 
REMARK    9  A    between atoms: O_10  and  C_16 
ROOT
HETATM    1  C           1     -21.498  -5.330  -5.901  0.00  0.00     0.275 C 
ENDROOT
BRANCH   1   2
HETATM    2  C           1     -20.680  -6.518  -6.386  0.00  0.00     0.052 C 
BRANCH   2   3
HETATM    3  C           1     -21.116  -7.774  -5.643  0.00  0.00     0.105 C 
BRANCH   3   4
HETATM    4  C           1     -19.916  -8.414  -4.991  0.00  0.00     0.215 C 
HETATM    5  O           1     -19.831  -8.453  -3.787  0.00  0.00    -0.274 OA
HETATM    6  N           1     -18.923  -8.953  -5.765  0.00  0.00    -0.370 N 
HETATM    7  H           1     -18.118  -9.384  -5.328  0.00  0.00     0.159 HD
HETATM    8  H           1     -18.995  -8.921  -6.774  0.00  0.00     0.159 HD
ENDBRANCH   3   4
ENDBRANCH   2   3
ENDBRANCH   1   2
BRANCH   1   9
HETATM    9  C           1     -21.711  -4.365  -7.042  0.00  0.00     0.249 C 
HETATM   10  N           1     -22.496  -4.724  -8.105  0.00  0.00    -0.343 N 
HETATM   11  H           1     -22.935  -5.636  -8.124  0.00  0.00     0.163 HD
HETATM   12  O           1     -21.187  -3.277  -7.018  0.00  0.00    -0.271 OA
BRANCH  10  13
HETATM   13  C           1     -22.701  -3.796  -9.201  0.00  0.00     0.214 C 
BRANCH  13  14
HETATM   14  C           1     -21.807  -4.188 -10.370  0.00  0.00     0.147 C 
HETATM   15  C           1     -21.866  -3.103 -11.437  0.00  0.00     0.042 C 
BRANCH  14  16
HETATM   16  O           1     -20.487  -4.331  -9.920  0.00  0.00    -0.393 OA
HETATM   17  H           1     -20.017  -3.564 -10.201  0.00  0.00     0.210 HD
ENDBRANCH  14  16
ENDBRANCH  13  14
BRANCH  13  18
HETATM   18  C           1     -24.146  -3.843  -9.634  0.00  0.00     0.199 C 
HETATM   19  O           1     -24.863  -2.826  -9.530  0.00  0.00    -0.646 OA
HETATM   20  O           1     -24.625  -4.901 -10.098  0.00  0.00    -0.646 OA
ENDBRANCH  13  18
ENDBRANCH  10  13
ENDBRANCH   1   9
BRANCH   1  21
HETATM   21  N           1     -22.827  -5.810  -5.399  0.00  0.00    -0.066 N 
HETATM   22  H           1     -23.544  -5.701  -6.151  0.00  0.00     0.275 HD
HETATM   23  H           1     -22.755  -6.817  -5.129  0.00  0.00     0.275 HD
HETATM   24  H           1     -23.109  -5.246  -4.564  0.00  0.00     0.275 HD
ENDBRANCH   1  21
TORSDOF 9
ENDMDL
MODEL 9
REMARK VINA RESULT:      -5.5      2.109      6.251
REMARK  9 active torsions:
REMARK  status: ('A' for Active; 'I' for Inactive)
REMARK       I    between atoms: N_2  and  C_3 
REMARK    1  A    between atoms: C_3  and  C_4 
REMARK    2  A    between atoms: C_4  and  C_5 
REMARK    3  A    between atoms: C_5  and  C_6 
REMARK    4  A    between atoms: C_6  and  C_7 
REMARK    5  A    between atoms: C_6  and  N_18 
REMARK       I    between atoms: C_7  and  N_24 
REMARK    6  A    between atoms: C_9  and  C_16 
REMARK    7  A    between atoms: C_9  and  C_22 
REMARK    8  A    between atoms: C_9  and  N_24 
REMARK    9  A    between atoms: O_10  and  C_16 
ROOT
HETATM    1  C           1     -20.599  -4.054  -7.876  0.00  0.00     0.275 C 
ENDROOT
BRANCH   1   2
HETATM    2  C           1     -22.106  -3.882  -7.995  0.00  0.00     0.052 C 
BRANCH   2   3
HETATM    3  C           1     -22.579  -4.450  -9.327  0.00  0.00     0.105 C 
BRANCH   3   4
HETATM    4  C           1     -23.660  -3.563  -9.896  0.00  0.00     0.215 C 
HETATM    5  O           1     -23.564  -3.140 -11.022  0.00  0.00    -0.274 OA
HETATM    6  N           1     -24.751  -3.239  -9.133  0.00  0.00    -0.370 N 
HETATM    7  H           1     -25.476  -2.646  -9.515  0.00  0.00     0.159 HD
HETATM    8  H           1     -24.831  -3.595  -8.189  0.00  0.00     0.159 HD
ENDBRANCH   3   4
ENDBRANCH   2   3
ENDBRANCH   1   2
BRANCH   1   9
HETATM    9  C           1     -20.280  -4.866  -6.644  0.00  0.00     0.249 C 
HETATM   10  N           1     -21.029  -5.971  -6.339  0.00  0.00    -0.343 N 
HETATM   11  H           1     -21.796  -6.244  -6.941  0.00  0.00     0.163 HD
HETATM   12  O           1     -19.365  -4.540  -5.926  0.00  0.00    -0.271 OA
BRANCH  10  13
HETATM   13  C           1     -20.723  -6.752  -5.156  0.00  0.00     0.214 C 
BRANCH  13  14
HETATM   14  C           1     -21.960  -6.841  -4.273  0.00  0.00     0.147 C 
HETATM   15  C           1     -21.653  -6.238  -2.909  0.00  0.00     0.042 C 
BRANCH  14  16
HETATM   16  O           1     -23.013  -6.132  -4.871  0.00  0.00    -0.393 OA
HETATM   17  H           1     -22.756  -5.962  -5.761  0.00  0.00     0.210 HD
ENDBRANCH  14  16
ENDBRANCH  13  14
BRANCH  13  18
HETATM   18  C           1     -20.297  -8.139  -5.567  0.00  0.00     0.199 C 
HETATM   19  O           1     -19.104  -8.366  -5.862  0.00  0.00    -0.646 OA
HETATM   20  O           1     -21.138  -9.064  -5.612  0.00  0.00    -0.646 OA
ENDBRANCH  13  18
ENDBRANCH  10  13
ENDBRANCH   1   9
BRANCH   1  21
HETATM   21  N           1     -20.079  -4.765  -9.090  0.00  0.00    -0.066 N 
HETATM   22  H           1     -19.964  -5.781  -8.876  0.00  0.00     0.275 HD
HETATM   23  H           1     -20.755  -4.650  -9.878  0.00  0.00     0.275 HD
HETATM   24  H           1     -19.155  -4.359  -9.363  0.00  0.00     0.275 HD
ENDBRANCH   1  21
TORSDOF 9
ENDMDL
