MODEL 1
REMARK VINA RESULT:      -6.7      0.000      0.000
REMARK  11 active torsions:
REMARK  status: ('A' for Active; 'I' for Inactive)
REMARK    1  A    between atoms: C_1  and  C_2 
REMARK    2  A    between atoms: C_1  and  O_27 
REMARK    3  A    between atoms: C_2  and  C_3 
REMARK    4  A    between atoms: C_2  and  N_22 
REMARK       I    between atoms: C_3  and  N_4 
REMARK    5  A    between atoms: N_4  and  C_8 
REMARK    6  A    between atoms: C_7  and  C_8 
REMARK    7  A    between atoms: C_8  and  C_9 
REMARK    8  A    between atoms: C_9  and  C_10 
REMARK    9  A    between atoms: C_10  and  C_12 
REMARK       I    between atoms: N_11  and  C_12 
REMARK   10  A    between atoms: O_25  and  P_26 
REMARK   11  A    between atoms: P_26  and  O_27 
ROOT
HETATM    1  C           1     -21.688  -4.607  -7.766  0.00  0.00     0.251 C 
HETATM    2  N           1     -22.295  -4.870  -8.965  0.00  0.00    -0.345 N 
HETATM    3  H           1     -22.392  -5.826  -9.284  0.00  0.00     0.163 HD
HETATM    4  O           1     -21.572  -3.466  -7.387  0.00  0.00    -0.271 OA
ENDROOT
BRANCH   1   5
HETATM    5  C           1     -21.164  -5.741  -6.920  0.00  0.00     0.298 C 
BRANCH   5   6
HETATM    6  C           1     -20.996  -5.267  -5.482  0.00  0.00     0.224 C 
BRANCH   6   7
HETATM    7  O           1     -20.384  -6.276  -4.726  0.00  0.00    -0.287 OA
BRANCH   7   8
HETATM    8  P           1     -21.349  -7.094  -3.723  0.00  0.00     0.406 P 
HETATM    9  O           1     -20.544  -7.661  -2.617  0.00  0.00    -0.624 OA
HETATM   10  O           1     -22.015  -8.189  -4.463  0.00  0.00    -0.624 OA
BRANCH   8  11
HETATM   11  O           1     -22.466  -6.097  -3.117  0.00  0.00    -0.300 OA
HETATM   12  H           1     -23.189  -6.653  -2.881  0.00  0.00     0.223 HD
ENDBRANCH   8  11
ENDBRANCH   7   8
ENDBRANCH   6   7
ENDBRANCH   5   6
BRANCH   5  13
HETATM   13  N           1     -19.838  -6.193  -7.455  0.00  0.00    -0.064 N 
HETATM   14  H           1     -19.635  -5.692  -8.351  0.00  0.00     0.275 HD
HETATM   15  H           1     -19.866  -7.222  -7.630  0.00  0.00     0.275 HD
HETATM   16  H           1     -19.089  -5.979  -6.759  0.00  0.00     0.275 HD
ENDBRANCH   5  13
ENDBRANCH   1   5
BRANCH   2  17
HETATM   17  C           1     -22.798  -3.781  -9.779  0.00  0.00     0.186 C 
BRANCH  17  18
HETATM   18  C           1     -24.307  -3.804  -9.771  0.00  0.00     0.196 C 
HETATM   19  O           1     -24.946  -2.743  -9.604  0.00  0.00    -0.646 OA
HETATM   20  O           1     -24.916  -4.883  -9.932  0.00  0.00    -0.646 OA
ENDBRANCH  17  18
BRANCH  17  21
HETATM   21  C           1     -22.294  -3.940 -11.207  0.00  0.00     0.045 C 
BRANCH  21  22
HETATM   22  C           1     -22.429  -2.614 -11.944  0.00  0.00     0.105 C 
BRANCH  22  23
HETATM   23  C           1     -23.235  -2.817 -13.203  0.00  0.00     0.215 C 
HETATM   24  N           1     -22.600  -3.021 -14.398  0.00  0.00    -0.370 N 
HETATM   25  H           1     -21.588  -3.035 -14.437  0.00  0.00     0.159 HD
HETATM   26  H           1     -23.141  -3.157 -15.243  0.00  0.00     0.159 HD
HETATM   27  O           1     -24.442  -2.800 -13.157  0.00  0.00    -0.274 OA
ENDBRANCH  22  23
ENDBRANCH  21  22
ENDBRANCH  17  21
ENDBRANCH   2  17
TORSDOF 11
ENDMDL
MODEL 2
REMARK VINA RESULT:      -6.5      3.131      8.075
REMARK  11 active torsions:
REMARK  status: ('A' for Active; 'I' for Inactive)
REMARK    1  A    between atoms: C_1  and  C_2 
REMARK    2  A    between atoms: C_1  and  O_27 
REMARK    3  A    between atoms: C_2  and  C_3 
REMARK    4  A    between atoms: C_2  and  N_22 
REMARK       I    between atoms: C_3  and  N_4 
REMARK    5  A    between atoms: N_4  and  C_8 
REMARK    6  A    between atoms: C_7  and  C_8 
REMARK    7  A    between atoms: C_8  and  C_9 
REMARK    8  A    between atoms: C_9  and  C_10 
REMARK    9  A    between atoms: C_10  and  C_12 
REMARK       I    between atoms: N_11  and  C_12 
REMARK   10  A    between atoms: O_25  and  P_26 
REMARK   11  A    between atoms: P_26  and  O_27 
ROOT
HETATM    1  C           1     -22.439  -4.247  -8.146  0.00  0.00     0.251 C 
HETATM    2  N           1     -22.099  -5.393  -7.479  0.00  0.00    -0.345 N 
HETATM    3  H           1     -22.500  -6.279  -7.759  0.00  0.00     0.163 HD
HETATM    4  O           1     -21.961  -3.189  -7.812  0.00  0.00    -0.271 OA
ENDROOT
BRANCH   1   5
HETATM    5  C           1     -23.411  -4.304  -9.299  0.00  0.00     0.298 C 
BRANCH   5   6
HETATM    6  C           1     -22.671  -4.034 -10.603  0.00  0.00     0.224 C 
BRANCH   6   7
HETATM    7  O           1     -23.416  -4.542 -11.676  0.00  0.00    -0.287 OA
BRANCH   7   8
HETATM    8  P           1     -23.981  -3.451 -12.724  0.00  0.00     0.406 P 
HETATM    9  O           1     -23.007  -2.344 -12.856  0.00  0.00    -0.624 OA
HETATM   10  O           1     -25.272  -2.920 -12.234  0.00  0.00    -0.624 OA
BRANCH   8  11
HETATM   11  O           1     -24.198  -4.149 -14.165  0.00  0.00    -0.300 OA
HETATM   12  H           1     -23.839  -3.540 -14.788  0.00  0.00     0.223 HD
ENDBRANCH   8  11
ENDBRANCH   7   8
ENDBRANCH   6   7
ENDBRANCH   5   6
BRANCH   5  13
HETATM   13  N           1     -24.477  -3.267  -9.106  0.00  0.00    -0.064 N 
HETATM   14  H           1     -24.031  -2.333  -8.959  0.00  0.00     0.275 HD
HETATM   15  H           1     -25.055  -3.513  -8.271  0.00  0.00     0.275 HD
HETATM   16  H           1     -25.088  -3.232  -9.953  0.00  0.00     0.275 HD
ENDBRANCH   5  13
ENDBRANCH   1   5
BRANCH   2  17
HETATM   17  C           1     -21.166  -5.337  -6.371  0.00  0.00     0.186 C 
BRANCH  17  18
HETATM   18  C           1     -19.794  -5.750  -6.849  0.00  0.00     0.196 C 
HETATM   19  O           1     -19.484  -6.960  -6.886  0.00  0.00    -0.646 OA
HETATM   20  O           1     -18.970  -4.881  -7.207  0.00  0.00    -0.646 OA
ENDBRANCH  17  18
BRANCH  17  21
HETATM   21  C           1     -21.627  -6.284  -5.271  0.00  0.00     0.045 C 
BRANCH  21  22
HETATM   22  C           1     -21.037  -5.841  -3.939  0.00  0.00     0.105 C 
BRANCH  22  23
HETATM   23  C           1     -21.715  -6.586  -2.815  0.00  0.00     0.215 C 
HETATM   24  N           1     -22.382  -5.896  -1.840  0.00  0.00    -0.370 N 
HETATM   25  H           1     -22.422  -4.885  -1.873  0.00  0.00     0.159 HD
HETATM   26  H           1     -22.837  -6.396  -1.086  0.00  0.00     0.159 HD
HETATM   27  O           1     -21.667  -7.792  -2.776  0.00  0.00    -0.274 OA
ENDBRANCH  22  23
ENDBRANCH  21  22
ENDBRANCH  17  21
ENDBRANCH   2  17
TORSDOF 11
ENDMDL
MODEL 3
REMARK VINA RESULT:      -6.5      3.024      4.637
REMARK  11 active torsions:
REMARK  status: ('A' for Active; 'I' for Inactive)
REMARK    1  A    between atoms: C_1  and  C_2 
REMARK    2  A    between atoms: C_1  and  O_27 
REMARK    3  A    between atoms: C_2  and  C_3 
REMARK    4  A    between atoms: C_2  and  N_22 
REMARK       I    between atoms: C_3  and  N_4 
REMARK    5  A    between atoms: N_4  and  C_8 
REMARK    6  A    between atoms: C_7  and  C_8 
REMARK    7  A    between atoms: C_8  and  C_9 
REMARK    8  A    between atoms: C_9  and  C_10 
REMARK    9  A    between atoms: C_10  and  C_12 
REMARK       I    between atoms: N_11  and  C_12 
REMARK   10  A    between atoms: O_25  and  P_26 
REMARK   11  A    between atoms: P_26  and  O_27 
ROOT
HETATM    1  C           1     -21.635  -4.144 -11.948  0.00  0.00     0.251 C 
HETATM    2  N           1     -22.126  -3.114 -12.705  0.00  0.00    -0.345 N 
HETATM    3  H           1     -21.637  -2.228 -12.732  0.00  0.00     0.163 HD
HETATM    4  O           1     -22.219  -5.201 -11.915  0.00  0.00    -0.271 OA
ENDROOT
BRANCH   1   5
HETATM    5  C           1     -20.365  -3.959 -11.155  0.00  0.00     0.298 C 
BRANCH   5   6
HETATM    6  C           1     -20.543  -4.553  -9.764  0.00  0.00     0.224 C 
BRANCH   6   7
HETATM    7  O           1     -21.581  -3.884  -9.099  0.00  0.00    -0.287 OA
BRANCH   7   8
HETATM    8  P           1     -21.849  -4.335  -7.572  0.00  0.00     0.406 P 
HETATM    9  O           1     -21.167  -3.396  -6.654  0.00  0.00    -0.624 OA
HETATM   10  O           1     -21.324  -5.702  -7.362  0.00  0.00    -0.624 OA
BRANCH   8  11
HETATM   11  O           1     -23.437  -4.318  -7.276  0.00  0.00    -0.300 OA
HETATM   12  H           1     -23.595  -3.501  -6.835  0.00  0.00     0.223 HD
ENDBRANCH   8  11
ENDBRANCH   7   8
ENDBRANCH   6   7
ENDBRANCH   5   6
BRANCH   5  13
HETATM   13  N           1     -20.057  -2.496 -11.038  0.00  0.00    -0.064 N 
HETATM   14  H           1     -20.569  -1.972 -11.785  0.00  0.00     0.275 HD
HETATM   15  H           1     -19.029  -2.346 -11.148  0.00  0.00     0.275 HD
HETATM   16  H           1     -20.360  -2.149 -10.100  0.00  0.00     0.275 HD
ENDBRANCH   5  13
ENDBRANCH   1   5
BRANCH   2  17
HETATM   17  C           1     -23.346  -3.291 -13.466  0.00  0.00     0.186 C 
BRANCH  17  18
HETATM   18  C           1     -23.326  -2.377 -14.667  0.00  0.00     0.196 C 
HETATM   19  O           1     -22.449  -2.519 -15.546  0.00  0.00    -0.646 OA
HETATM   20  O           1     -24.187  -1.478 -14.783  0.00  0.00    -0.646 OA
ENDBRANCH  17  18
BRANCH  17  21
HETATM   21  C           1     -24.545  -2.953 -12.591  0.00  0.00     0.045 C 
BRANCH  21  22
HETATM   22  C           1     -24.083  -2.740 -11.155  0.00  0.00     0.105 C 
BRANCH  22  23
HETATM   23  C           1     -24.956  -3.540 -10.220  0.00  0.00     0.215 C 
HETATM   24  N           1     -24.615  -4.824  -9.896  0.00  0.00    -0.370 N 
HETATM   25  H           1     -23.777  -5.239 -10.284  0.00  0.00     0.159 HD
HETATM   26  H           1     -25.201  -5.361  -9.269  0.00  0.00     0.159 HD
HETATM   27  O           1     -25.956  -3.045  -9.757  0.00  0.00    -0.274 OA
ENDBRANCH  22  23
ENDBRANCH  21  22
ENDBRANCH  17  21
ENDBRANCH   2  17
TORSDOF 11
ENDMDL
MODEL 4
REMARK VINA RESULT:      -6.3      3.026      6.857
REMARK  11 active torsions:
REMARK  status: ('A' for Active; 'I' for Inactive)
REMARK    1  A    between atoms: C_1  and  C_2 
REMARK    2  A    between atoms: C_1  and  O_27 
REMARK    3  A    between atoms: C_2  and  C_3 
REMARK    4  A    between atoms: C_2  and  N_22 
REMARK       I    between atoms: C_3  and  N_4 
REMARK    5  A    between atoms: N_4  and  C_8 
REMARK    6  A    between atoms: C_7  and  C_8 
REMARK    7  A    between atoms: C_8  and  C_9 
REMARK    8  A    between atoms: C_9  and  C_10 
REMARK    9  A    between atoms: C_10  and  C_12 
REMARK       I    between atoms: N_11  and  C_12 
REMARK   10  A    between atoms: O_25  and  P_26 
REMARK   11  A    between atoms: P_26  and  O_27 
ROOT
HETATM    1  C           1     -20.884  -4.074 -10.163  0.00  0.00     0.251 C 
HETATM    2  N           1     -21.772  -3.738  -9.176  0.00  0.00    -0.345 N 
HETATM    3  H           1     -22.403  -2.958  -9.308  0.00  0.00     0.163 HD
HETATM    4  O           1     -20.129  -5.004 -10.005  0.00  0.00    -0.271 OA
ENDROOT
BRANCH   1   5
HETATM    5  C           1     -20.847  -3.282 -11.446  0.00  0.00     0.298 C 
BRANCH   5   6
HETATM    6  C           1     -21.971  -2.254 -11.443  0.00  0.00     0.224 C 
BRANCH   6   7
HETATM    7  O           1     -22.879  -2.551 -12.469  0.00  0.00    -0.287 OA
BRANCH   7   8
HETATM    8  P           1     -24.202  -3.366 -12.030  0.00  0.00     0.406 P 
HETATM    9  O           1     -23.927  -4.819 -12.086  0.00  0.00    -0.624 OA
HETATM   10  O           1     -25.312  -3.036 -12.951  0.00  0.00    -0.624 OA
BRANCH   8  11
HETATM   11  O           1     -24.613  -2.955 -10.523  0.00  0.00    -0.300 OA
HETATM   12  H           1     -24.807  -3.770 -10.092  0.00  0.00     0.223 HD
ENDBRANCH   8  11
ENDBRANCH   7   8
ENDBRANCH   6   7
ENDBRANCH   5   6
BRANCH   5  13
HETATM   13  N           1     -21.022  -4.210 -12.612  0.00  0.00    -0.064 N 
HETATM   14  H           1     -20.469  -3.856 -13.425  0.00  0.00     0.275 HD
HETATM   15  H           1     -22.033  -4.256 -12.871  0.00  0.00     0.275 HD
HETATM   16  H           1     -20.687  -5.165 -12.351  0.00  0.00     0.275 HD
ENDBRANCH   5  13
ENDBRANCH   1   5
BRANCH   2  17
HETATM   17  C           1     -21.807  -4.498  -7.942  0.00  0.00     0.186 C 
BRANCH  17  18
HETATM   18  C           1     -23.223  -4.544  -7.422  0.00  0.00     0.196 C 
HETATM   19  O           1     -23.448  -4.944  -6.260  0.00  0.00    -0.646 OA
HETATM   20  O           1     -24.170  -4.181  -8.153  0.00  0.00    -0.646 OA
ENDBRANCH  17  18
BRANCH  17  21
HETATM   21  C           1     -20.908  -3.832  -6.910  0.00  0.00     0.045 C 
BRANCH  21  22
HETATM   22  C           1     -19.719  -4.736  -6.612  0.00  0.00     0.105 C 
BRANCH  22  23
HETATM   23  C           1     -20.194  -5.968  -5.881  0.00  0.00     0.215 C 
HETATM   24  N           1     -20.932  -5.843  -4.736  0.00  0.00    -0.370 N 
HETATM   25  H           1     -21.160  -4.924  -4.379  0.00  0.00     0.159 HD
HETATM   26  H           1     -21.250  -6.670  -4.246  0.00  0.00     0.159 HD
HETATM   27  O           1     -19.921  -7.065  -6.307  0.00  0.00    -0.274 OA
ENDBRANCH  22  23
ENDBRANCH  21  22
ENDBRANCH  17  21
ENDBRANCH   2  17
TORSDOF 11
ENDMDL
MODEL 5
REMARK VINA RESULT:      -6.1      3.218      7.959
REMARK  11 active torsions:
REMARK  status: ('A' for Active; 'I' for Inactive)
REMARK    1  A    between atoms: C_1  and  C_2 
REMARK    2  A    between atoms: C_1  and  O_27 
REMARK    3  A    between atoms: C_2  and  C_3 
REMARK    4  A    between atoms: C_2  and  N_22 
REMARK       I    between atoms: C_3  and  N_4 
REMARK    5  A    between atoms: N_4  and  C_8 
REMARK    6  A    between atoms: C_7  and  C_8 
REMARK    7  A    between atoms: C_8  and  C_9 
REMARK    8  A    between atoms: C_9  and  C_10 
REMARK    9  A    between atoms: C_10  and  C_12 
REMARK       I    between atoms: N_11  and  C_12 
REMARK   10  A    between atoms: O_25  and  P_26 
REMARK   11  A    between atoms: P_26  and  O_27 
ROOT
HETATM    1  C           1     -20.633  -4.980  -6.445  0.00  0.00     0.251 C 
HETATM    2  N           1     -21.166  -6.205  -6.145  0.00  0.00    -0.345 N 
HETATM    3  H           1     -21.752  -6.681  -6.819  0.00  0.00     0.163 HD
HETATM    4  O           1     -19.934  -4.412  -5.640  0.00  0.00    -0.271 OA
ENDROOT
BRANCH   1   5
HETATM    5  C           1     -20.918  -4.340  -7.781  0.00  0.00     0.298 C 
BRANCH   5   6
HETATM    6  C           1     -22.396  -4.497  -8.115  0.00  0.00     0.224 C 
BRANCH   6   7
HETATM    7  O           1     -22.841  -3.365  -8.812  0.00  0.00    -0.287 OA
BRANCH   7   8
HETATM    8  P           1     -23.868  -3.640 -10.027  0.00  0.00     0.406 P 
HETATM    9  O           1     -23.351  -3.008 -11.262  0.00  0.00    -0.624 OA
HETATM   10  O           1     -25.191  -3.065  -9.694  0.00  0.00    -0.624 OA
BRANCH   8  11
HETATM   11  O           1     -24.017  -5.231 -10.259  0.00  0.00    -0.300 OA
HETATM   12  H           1     -24.922  -5.362 -10.485  0.00  0.00     0.223 HD
ENDBRANCH   8  11
ENDBRANCH   7   8
ENDBRANCH   6   7
ENDBRANCH   5   6
BRANCH   5  13
HETATM   13  N           1     -20.093  -5.006  -8.841  0.00  0.00    -0.064 N 
HETATM   14  H           1     -19.394  -5.640  -8.391  0.00  0.00     0.275 HD
HETATM   15  H           1     -19.594  -4.279  -9.402  0.00  0.00     0.275 HD
HETATM   16  H           1     -20.714  -5.562  -9.470  0.00  0.00     0.275 HD
ENDBRANCH   5  13
ENDBRANCH   1   5
BRANCH   2  17
HETATM   17  C           1     -20.893  -6.820  -4.861  0.00  0.00     0.186 C 
BRANCH  17  18
HETATM   18  C           1     -20.631  -8.294  -5.056  0.00  0.00     0.196 C 
HETATM   19  O           1     -19.923  -8.917  -4.237  0.00  0.00    -0.646 OA
HETATM   20  O           1     -21.124  -8.892  -6.038  0.00  0.00    -0.646 OA
ENDBRANCH  17  18
BRANCH  17  21
HETATM   21  C           1     -22.093  -6.634  -3.943  0.00  0.00     0.045 C 
BRANCH  21  22
HETATM   22  C           1     -21.626  -6.092  -2.599  0.00  0.00     0.105 C 
BRANCH  22  23
HETATM   23  C           1     -21.895  -7.113  -1.521  0.00  0.00     0.215 C 
HETATM   24  N           1     -21.133  -8.247  -1.447  0.00  0.00    -0.370 N 
HETATM   25  H           1     -20.388  -8.401  -2.115  0.00  0.00     0.159 HD
HETATM   26  H           1     -21.313  -8.932  -0.724  0.00  0.00     0.159 HD
HETATM   27  O           1     -22.784  -6.930  -0.724  0.00  0.00    -0.274 OA
ENDBRANCH  22  23
ENDBRANCH  21  22
ENDBRANCH  17  21
ENDBRANCH   2  17
TORSDOF 11
ENDMDL
MODEL 6
REMARK VINA RESULT:      -5.9      3.531      8.248
REMARK  11 active torsions:
REMARK  status: ('A' for Active; 'I' for Inactive)
REMARK    1  A    between atoms: C_1  and  C_2 
REMARK    2  A    between atoms: C_1  and  O_27 
REMARK    3  A    between atoms: C_2  and  C_3 
REMARK    4  A    between atoms: C_2  and  N_22 
REMARK       I    between atoms: C_3  and  N_4 
REMARK    5  A    between atoms: N_4  and  C_8 
REMARK    6  A    between atoms: C_7  and  C_8 
REMARK    7  A    between atoms: C_8  and  C_9 
REMARK    8  A    between atoms: C_9  and  C_10 
REMARK    9  A    between atoms: C_10  and  C_12 
REMARK       I    between atoms: N_11  and  C_12 
REMARK   10  A    between atoms: O_25  and  P_26 
REMARK   11  A    between atoms: P_26  and  O_27 
ROOT
HETATM    1  C           1     -21.680  -5.110  -6.608  0.00  0.00     0.251 C 
HETATM    2  N           1     -22.162  -6.123  -5.822  0.00  0.00    -0.345 N 
HETATM    3  H           1     -23.005  -6.615  -6.092  0.00  0.00     0.163 HD
HETATM    4  O           1     -20.675  -4.522  -6.285  0.00  0.00    -0.271 OA
ENDROOT
BRANCH   1   5
HETATM    5  C           1     -22.403  -4.728  -7.875  0.00  0.00     0.298 C 
BRANCH   5   6
HETATM    6  C           1     -21.598  -3.674  -8.623  0.00  0.00     0.224 C 
BRANCH   6   7
HETATM    7  O           1     -22.060  -3.582  -9.944  0.00  0.00    -0.287 OA
BRANCH   7   8
HETATM    8  P           1     -20.939  -3.726 -11.097  0.00  0.00     0.406 P 
HETATM    9  O           1     -19.992  -4.804 -10.732  0.00  0.00    -0.624 OA
HETATM   10  O           1     -20.206  -2.448 -11.235  0.00  0.00    -0.624 OA
BRANCH   8  11
HETATM   11  O           1     -21.653  -4.091 -12.500  0.00  0.00    -0.300 OA
HETATM   12  H           1     -21.442  -4.997 -12.653  0.00  0.00     0.223 HD
ENDBRANCH   8  11
ENDBRANCH   7   8
ENDBRANCH   6   7
ENDBRANCH   5   6
BRANCH   5  13
HETATM   13  N           1     -23.754  -4.174  -7.532  0.00  0.00    -0.064 N 
HETATM   14  H           1     -24.208  -4.783  -6.813  0.00  0.00     0.275 HD
HETATM   15  H           1     -24.349  -4.148  -8.392  0.00  0.00     0.275 HD
HETATM   16  H           1     -23.649  -3.206  -7.154  0.00  0.00     0.275 HD
ENDBRANCH   5  13
ENDBRANCH   1   5
BRANCH   2  17
HETATM   17  C           1     -21.468  -6.489  -4.604  0.00  0.00     0.186 C 
BRANCH  17  18
HETATM   18  C           1     -20.707  -7.774  -4.827  0.00  0.00     0.196 C 
HETATM   19  O           1     -19.841  -8.138  -4.003  0.00  0.00    -0.646 OA
HETATM   20  O           1     -20.945  -8.474  -5.835  0.00  0.00    -0.646 OA
ENDBRANCH  17  18
BRANCH  17  21
HETATM   21  C           1     -22.479  -6.685  -3.483  0.00  0.00     0.045 C 
BRANCH  21  22
HETATM   22  C           1     -21.924  -6.103  -2.190  0.00  0.00     0.105 C 
BRANCH  22  23
HETATM   23  C           1     -21.979  -7.147  -1.102  0.00  0.00     0.215 C 
HETATM   24  N           1     -21.009  -8.110  -1.028  0.00  0.00    -0.370 N 
HETATM   25  H           1     -20.255  -8.121  -1.703  0.00  0.00     0.159 HD
HETATM   26  H           1     -21.045  -8.810  -0.298  0.00  0.00     0.159 HD
HETATM   27  O           1     -22.879  -7.133  -0.296  0.00  0.00    -0.274 OA
ENDBRANCH  22  23
ENDBRANCH  21  22
ENDBRANCH  17  21
ENDBRANCH   2  17
TORSDOF 11
ENDMDL
MODEL 7
REMARK VINA RESULT:      -5.6      3.415      8.011
REMARK  11 active torsions:
REMARK  status: ('A' for Active; 'I' for Inactive)
REMARK    1  A    between atoms: C_1  and  C_2 
REMARK    2  A    between atoms: C_1  and  O_27 
REMARK    3  A    between atoms: C_2  and  C_3 
REMARK    4  A    between atoms: C_2  and  N_22 
REMARK       I    between atoms: C_3  and  N_4 
REMARK    5  A    between atoms: N_4  and  C_8 
REMARK    6  A    between atoms: C_7  and  C_8 
REMARK    7  A    between atoms: C_8  and  C_9 
REMARK    8  A    between atoms: C_9  and  C_10 
REMARK    9  A    between atoms: C_10  and  C_12 
REMARK       I    between atoms: N_11  and  C_12 
REMARK   10  A    between atoms: O_25  and  P_26 
REMARK   11  A    between atoms: P_26  and  O_27 
ROOT
HETATM    1  C           1     -21.827  -5.865  -5.706  0.00  0.00     0.251 C 
HETATM    2  N           1     -21.042  -6.700  -4.957  0.00  0.00    -0.345 N 
HETATM    3  H           1     -20.040  -6.719  -5.103  0.00  0.00     0.163 HD
HETATM    4  O           1     -23.023  -5.844  -5.533  0.00  0.00    -0.271 OA
ENDROOT
BRANCH   1   5
HETATM    5  C           1     -21.200  -4.972  -6.748  0.00  0.00     0.298 C 
BRANCH   5   6
HETATM    6  C           1     -22.292  -4.214  -7.492  0.00  0.00     0.224 C 
BRANCH   6   7
HETATM    7  O           1     -22.083  -4.330  -8.873  0.00  0.00    -0.287 OA
BRANCH   7   8
HETATM    8  P           1     -23.362  -4.026  -9.810  0.00  0.00     0.406 P 
HETATM    9  O           1     -23.880  -5.297 -10.366  0.00  0.00    -0.624 OA
HETATM   10  O           1     -22.960  -3.129 -10.917  0.00  0.00    -0.624 OA
BRANCH   8  11
HETATM   11  O           1     -24.517  -3.313  -8.933  0.00  0.00    -0.300 OA
HETATM   12  H           1     -24.769  -2.555  -9.432  0.00  0.00     0.223 HD
ENDBRANCH   8  11
ENDBRANCH   7   8
ENDBRANCH   6   7
ENDBRANCH   5   6
BRANCH   5  13
HETATM   13  N           1     -20.421  -5.807  -7.720  0.00  0.00    -0.064 N 
HETATM   14  H           1     -20.694  -6.811  -7.612  0.00  0.00     0.275 HD
HETATM   15  H           1     -19.399  -5.702  -7.529  0.00  0.00     0.275 HD
HETATM   16  H           1     -20.627  -5.493  -8.694  0.00  0.00     0.275 HD
ENDBRANCH   5  13
ENDBRANCH   1   5
BRANCH   2  17
HETATM   17  C           1     -21.644  -7.559  -3.957  0.00  0.00     0.186 C 
BRANCH  17  18
HETATM   18  C           1     -21.442  -6.955  -2.589  0.00  0.00     0.196 C 
HETATM   19  O           1     -22.098  -5.948  -2.248  0.00  0.00    -0.646 OA
HETATM   20  O           1     -20.619  -7.463  -1.797  0.00  0.00    -0.646 OA
ENDBRANCH  17  18
BRANCH  17  21
HETATM   21  C           1     -20.990  -8.933  -4.008  0.00  0.00     0.045 C 
BRANCH  21  22
HETATM   22  C           1     -19.709  -8.858  -4.828  0.00  0.00     0.105 C 
BRANCH  22  23
HETATM   23  C           1     -18.600  -9.575  -4.098  0.00  0.00     0.215 C 
HETATM   24  N           1     -18.240  -9.177  -2.839  0.00  0.00    -0.370 N 
HETATM   25  H           1     -18.717  -8.401  -2.398  0.00  0.00     0.159 HD
HETATM   26  H           1     -17.496  -9.658  -2.350  0.00  0.00     0.159 HD
HETATM   27  O           1     -18.031 -10.500  -4.625  0.00  0.00    -0.274 OA
ENDBRANCH  22  23
ENDBRANCH  21  22
ENDBRANCH  17  21
ENDBRANCH   2  17
TORSDOF 11
ENDMDL
MODEL 8
REMARK VINA RESULT:      -5.6      1.788      2.376
REMARK  11 active torsions:
REMARK  status: ('A' for Active; 'I' for Inactive)
REMARK    1  A    between atoms: C_1  and  C_2 
REMARK    2  A    between atoms: C_1  and  O_27 
REMARK    3  A    between atoms: C_2  and  C_3 
REMARK    4  A    between atoms: C_2  and  N_22 
REMARK       I    between atoms: C_3  and  N_4 
REMARK    5  A    between atoms: N_4  and  C_8 
REMARK    6  A    between atoms: C_7  and  C_8 
REMARK    7  A    between atoms: C_8  and  C_9 
REMARK    8  A    between atoms: C_9  and  C_10 
REMARK    9  A    between atoms: C_10  and  C_12 
REMARK       I    between atoms: N_11  and  C_12 
REMARK   10  A    between atoms: O_25  and  P_26 
REMARK   11  A    between atoms: P_26  and  O_27 
ROOT
HETATM    1  C           1     -21.231  -4.183 -10.008  0.00  0.00     0.251 C 
HETATM    2  N           1     -22.269  -3.431  -9.528  0.00  0.00    -0.345 N 
HETATM    3  H           1     -22.293  -3.167  -8.551  0.00  0.00     0.163 HD
HETATM    4  O           1     -21.203  -4.499 -11.174  0.00  0.00    -0.271 OA
ENDROOT
BRANCH   1   5
HETATM    5  C           1     -20.122  -4.619  -9.082  0.00  0.00     0.298 C 
BRANCH   5   6
HETATM    6  C           1     -20.577  -5.831  -8.279  0.00  0.00     0.224 C 
BRANCH   6   7
HETATM    7  O           1     -21.550  -5.439  -7.349  0.00  0.00    -0.287 OA
BRANCH   7   8
HETATM    8  P           1     -21.297  -5.901  -5.823  0.00  0.00     0.406 P 
HETATM    9  O           1     -22.594  -5.989  -5.114  0.00  0.00    -0.624 OA
HETATM   10  O           1     -20.429  -4.912  -5.146  0.00  0.00    -0.624 OA
BRANCH   8  11
HETATM   11  O           1     -20.578  -7.347  -5.809  0.00  0.00    -0.300 OA
HETATM   12  H           1     -19.655  -7.160  -5.774  0.00  0.00     0.223 HD
ENDBRANCH   8  11
ENDBRANCH   7   8
ENDBRANCH   6   7
ENDBRANCH   5   6
BRANCH   5  13
HETATM   13  N           1     -19.785  -3.498  -8.144  0.00  0.00    -0.064 N 
HETATM   14  H           1     -19.572  -2.635  -8.696  0.00  0.00     0.275 HD
HETATM   15  H           1     -18.951  -3.761  -7.573  0.00  0.00     0.275 HD
HETATM   16  H           1     -20.596  -3.316  -7.511  0.00  0.00     0.275 HD
ENDBRANCH   5  13
ENDBRANCH   1   5
BRANCH   2  17
HETATM   17  C           1     -23.334  -3.013 -10.417  0.00  0.00     0.186 C 
BRANCH  17  18
HETATM   18  C           1     -24.597  -3.765 -10.076  0.00  0.00     0.196 C 
HETATM   19  O           1     -25.648  -3.138  -9.824  0.00  0.00    -0.646 OA
HETATM   20  O           1     -24.592  -5.014 -10.045  0.00  0.00    -0.646 OA
ENDBRANCH  17  18
BRANCH  17  21
HETATM   21  C           1     -22.939  -3.310 -11.858  0.00  0.00     0.045 C 
BRANCH  21  22
HETATM   22  C           1     -23.996  -2.749 -12.801  0.00  0.00     0.105 C 
BRANCH  22  23
HETATM   23  C           1     -23.397  -2.560 -14.173  0.00  0.00     0.215 C 
HETATM   24  N           1     -22.219  -3.177 -14.497  0.00  0.00    -0.370 N 
HETATM   25  H           1     -21.750  -3.760 -13.816  0.00  0.00     0.159 HD
HETATM   26  H           1     -21.818  -3.050 -15.418  0.00  0.00     0.159 HD
HETATM   27  O           1     -23.958  -1.864 -14.985  0.00  0.00    -0.274 OA
ENDBRANCH  22  23
ENDBRANCH  21  22
ENDBRANCH  17  21
ENDBRANCH   2  17
TORSDOF 11
ENDMDL
MODEL 9
REMARK VINA RESULT:      -5.5      2.881      4.801
REMARK  11 active torsions:
REMARK  status: ('A' for Active; 'I' for Inactive)
REMARK    1  A    between atoms: C_1  and  C_2 
REMARK    2  A    between atoms: C_1  and  O_27 
REMARK    3  A    between atoms: C_2  and  C_3 
REMARK    4  A    between atoms: C_2  and  N_22 
REMARK       I    between atoms: C_3  and  N_4 
REMARK    5  A    between atoms: N_4  and  C_8 
REMARK    6  A    between atoms: C_7  and  C_8 
REMARK    7  A    between atoms: C_8  and  C_9 
REMARK    8  A    between atoms: C_9  and  C_10 
REMARK    9  A    between atoms: C_10  and  C_12 
REMARK       I    between atoms: N_11  and  C_12 
REMARK   10  A    between atoms: O_25  and  P_26 
REMARK   11  A    between atoms: P_26  and  O_27 
ROOT
HETATM    1  C           1     -21.328  -6.679  -4.343  0.00  0.00     0.251 C 
HETATM    2  N           1     -21.434  -5.542  -5.098  0.00  0.00    -0.345 N 
HETATM    3  H           1     -21.528  -4.641  -4.646  0.00  0.00     0.163 HD
HETATM    4  O           1     -21.217  -7.754  -4.883  0.00  0.00    -0.271 OA
ENDROOT
BRANCH   1   5
HETATM    5  C           1     -21.350  -6.589  -2.837  0.00  0.00     0.298 C 
BRANCH   5   6
HETATM    6  C           1     -21.299  -7.991  -2.243  0.00  0.00     0.224 C 
BRANCH   6   7
HETATM    7  O           1     -20.838  -7.923  -0.921  0.00  0.00    -0.287 OA
BRANCH   7   8
HETATM    8  P           1     -21.830  -8.515   0.207  0.00  0.00     0.406 P 
HETATM    9  O           1     -23.079  -7.719   0.231  0.00  0.00    -0.624 OA
HETATM   10  O           1     -21.172  -8.442   1.530  0.00  0.00    -0.624 OA
BRANCH   8  11
HETATM   11  O           1     -22.181 -10.054  -0.136  0.00  0.00    -0.300 OA
HETATM   12  H           1     -21.569 -10.299  -0.810  0.00  0.00     0.223 HD
ENDBRANCH   8  11
ENDBRANCH   7   8
ENDBRANCH   6   7
ENDBRANCH   5   6
BRANCH   5  13
HETATM   13  N           1     -22.609  -5.905  -2.395  0.00  0.00    -0.064 N 
HETATM   14  H           1     -22.544  -4.884  -2.612  0.00  0.00     0.275 HD
HETATM   15  H           1     -22.734  -6.036  -1.366  0.00  0.00     0.275 HD
HETATM   16  H           1     -23.426  -6.317  -2.899  0.00  0.00     0.275 HD
ENDBRANCH   5  13
ENDBRANCH   1   5
BRANCH   2  17
HETATM   17  C           1     -21.414  -5.627  -6.545  0.00  0.00     0.186 C 
BRANCH  17  18
HETATM   18  C           1     -19.986  -5.577  -7.031  0.00  0.00     0.196 C 
HETATM   19  O           1     -19.456  -6.598  -7.517  0.00  0.00    -0.646 OA
HETATM   20  O           1     -19.335  -4.513  -6.948  0.00  0.00    -0.646 OA
ENDBRANCH  17  18
BRANCH  17  21
HETATM   21  C           1     -22.193  -4.459  -7.133  0.00  0.00     0.045 C 
BRANCH  21  22
HETATM   22  C           1     -22.045  -4.461  -8.649  0.00  0.00     0.105 C 
BRANCH  22  23
HETATM   23  C           1     -23.404  -4.306  -9.288  0.00  0.00     0.215 C 
HETATM   24  N           1     -23.721  -5.029 -10.405  0.00  0.00    -0.370 N 
HETATM   25  H           1     -23.045  -5.668 -10.803  0.00  0.00     0.159 HD
HETATM   26  H           1     -24.633  -4.925 -10.834  0.00  0.00     0.159 HD
HETATM   27  O           1     -24.210  -3.542  -8.813  0.00  0.00    -0.274 OA
ENDBRANCH  22  23
ENDBRANCH  21  22
ENDBRANCH  17  21
ENDBRANCH   2  17
TORSDOF 11
ENDMDL
