MODEL 1
REMARK VINA RESULT:      -5.5      0.000      0.000
REMARK  9 active torsions:
REMARK  status: ('A' for Active; 'I' for Inactive)
REMARK    1  A    between atoms: C_1  and  C_2 
REMARK    2  A    between atoms: C_2  and  C_3 
REMARK    3  A    between atoms: C_2  and  N_12 
REMARK    4  A    between atoms: C_3  and  C_15 
REMARK    5  A    between atoms: S_4  and  C_15 
REMARK    6  A    between atoms: N_7  and  C_10 
REMARK    7  A    between atoms: S_8  and  C_9 
REMARK    8  A    between atoms: C_9  and  C_10 
REMARK    9  A    between atoms: C_10  and  C_11 
REMARK       I    between atoms: C_11  and  N_12 
ROOT
HETATM    1  C           1     -21.639  -4.576  -7.674  0.00  0.00     0.249 C 
HETATM    2  N           1     -22.198  -4.863  -8.890  0.00  0.00    -0.345 N 
HETATM    3  O           1     -21.588  -3.432  -7.287  0.00  0.00    -0.271 OA
HETATM    4  H           1     -22.240  -5.821  -9.214  0.00  0.00     0.163 HD
ENDROOT
BRANCH   1   5
HETATM    5  C           1     -21.087  -5.687  -6.815  0.00  0.00     0.283 C 
BRANCH   5   6
HETATM    6  N           1     -19.852  -6.247  -7.457  0.00  0.00    -0.066 N 
HETATM    7  H           1     -19.019  -6.015  -6.871  0.00  0.00     0.275 HD
HETATM    8  H           1     -19.942  -7.285  -7.539  0.00  0.00     0.275 HD
HETATM    9  H           1     -19.735  -5.830  -8.408  0.00  0.00     0.275 HD
ENDBRANCH   5   6
BRANCH   5  10
HETATM   10  C           1     -20.739  -5.141  -5.437  0.00  0.00     0.113 C 
BRANCH  10  11
HETATM   11  S           1     -21.383  -6.261  -4.162  0.00  0.00    -0.180 SA
HETATM   12  H           1     -21.580  -5.312  -3.229  0.00  0.00     0.101 HD
ENDBRANCH  10  11
ENDBRANCH   5  10
ENDBRANCH   1   5
BRANCH   2  13
HETATM   13  C           1     -22.728  -3.795  -9.715  0.00  0.00     0.186 C 
BRANCH  13  14
HETATM   14  C           1     -24.236  -3.830  -9.674  0.00  0.00     0.196 C 
HETATM   15  O           1     -24.841  -4.904  -9.880  0.00  0.00    -0.646 OA
HETATM   16  O           1     -24.878  -2.786  -9.434  0.00  0.00    -0.646 OA
ENDBRANCH  13  14
BRANCH  13  17
HETATM   17  C           1     -22.254  -3.980 -11.150  0.00  0.00     0.046 C 
BRANCH  17  18
HETATM   18  C           1     -22.453  -2.683 -11.923  0.00  0.00     0.076 C 
BRANCH  18  19
HETATM   19  S           1     -23.859  -2.864 -13.056  0.00  0.00    -0.173 SA
HETATM   20  C           1     -22.901  -2.702 -14.589  0.00  0.00     0.089 C 
ENDBRANCH  18  19
ENDBRANCH  17  18
ENDBRANCH  13  17
ENDBRANCH   2  13
TORSDOF 9
ENDMDL
MODEL 2
REMARK VINA RESULT:      -5.4     12.510     14.580
REMARK  9 active torsions:
REMARK  status: ('A' for Active; 'I' for Inactive)
REMARK    1  A    between atoms: C_1  and  C_2 
REMARK    2  A    between atoms: C_2  and  C_3 
REMARK    3  A    between atoms: C_2  and  N_12 
REMARK    4  A    between atoms: C_3  and  C_15 
REMARK    5  A    between atoms: S_4  and  C_15 
REMARK    6  A    between atoms: N_7  and  C_10 
REMARK    7  A    between atoms: S_8  and  C_9 
REMARK    8  A    between atoms: C_9  and  C_10 
REMARK    9  A    between atoms: C_10  and  C_11 
REMARK       I    between atoms: C_11  and  N_12 
ROOT
HETATM    1  C           1     -35.996  -0.640 -13.493  0.00  0.00     0.249 C 
HETATM    2  N           1     -34.869  -1.334 -13.143  0.00  0.00    -0.345 N 
HETATM    3  O           1     -37.053  -0.901 -12.969  0.00  0.00    -0.271 OA
HETATM    4  H           1     -33.983  -1.116 -13.582  0.00  0.00     0.163 HD
ENDROOT
BRANCH   1   5
HETATM    5  C           1     -35.918   0.451 -14.532  0.00  0.00     0.283 C 
BRANCH   5   6
HETATM    6  N           1     -34.492   0.629 -14.963  0.00  0.00    -0.066 N 
HETATM    7  H           1     -34.364   0.226 -15.918  0.00  0.00     0.275 HD
HETATM    8  H           1     -34.258   1.647 -14.980  0.00  0.00     0.275 HD
HETATM    9  H           1     -33.862   0.136 -14.291  0.00  0.00     0.275 HD
ENDBRANCH   5   6
BRANCH   5  10
HETATM   10  C           1     -36.769   0.069 -15.736  0.00  0.00     0.113 C 
BRANCH  10  11
HETATM   11  S           1     -35.889  -1.170 -16.729  0.00  0.00    -0.180 SA
HETATM   12  H           1     -34.684  -0.971 -16.165  0.00  0.00     0.101 HD
ENDBRANCH  10  11
ENDBRANCH   5  10
ENDBRANCH   1   5
BRANCH   2  13
HETATM   13  C           1     -34.944  -2.384 -12.145  0.00  0.00     0.186 C 
BRANCH  13  14
HETATM   14  C           1     -34.469  -1.847 -10.816  0.00  0.00     0.196 C 
HETATM   15  O           1     -33.253  -1.873 -10.531  0.00  0.00    -0.646 OA
HETATM   16  O           1     -35.293  -1.378 -10.003  0.00  0.00    -0.646 OA
ENDBRANCH  13  14
BRANCH  13  17
HETATM   17  C           1     -34.060  -3.550 -12.567  0.00  0.00     0.046 C 
BRANCH  17  18
HETATM   18  C           1     -34.718  -4.861 -12.158  0.00  0.00     0.076 C 
BRANCH  18  19
HETATM   19  S           1     -33.966  -5.461 -10.619  0.00  0.00    -0.173 SA
HETATM   20  C           1     -34.734  -7.106 -10.651  0.00  0.00     0.089 C 
ENDBRANCH  18  19
ENDBRANCH  17  18
ENDBRANCH  13  17
ENDBRANCH   2  13
TORSDOF 9
ENDMDL
MODEL 3
REMARK VINA RESULT:      -5.2     12.894     15.315
REMARK  9 active torsions:
REMARK  status: ('A' for Active; 'I' for Inactive)
REMARK    1  A    between atoms: C_1  and  C_2 
REMARK    2  A    between atoms: C_2  and  C_3 
REMARK    3  A    between atoms: C_2  and  N_12 
REMARK    4  A    between atoms: C_3  and  C_15 
REMARK    5  A    between atoms: S_4  and  C_15 
REMARK    6  A    between atoms: N_7  and  C_10 
REMARK    7  A    between atoms: S_8  and  C_9 
REMARK    8  A    between atoms: C_9  and  C_10 
REMARK    9  A    between atoms: C_10  and  C_11 
REMARK       I    between atoms: C_11  and  N_12 
ROOT
HETATM    1  C           1     -36.705  -0.201 -13.499  0.00  0.00     0.249 C 
HETATM    2  N           1     -35.999  -0.201 -12.327  0.00  0.00    -0.345 N 
HETATM    3  O           1     -37.792  -0.726 -13.550  0.00  0.00    -0.271 OA
HETATM    4  H           1     -35.088   0.238 -12.284  0.00  0.00     0.163 HD
ENDROOT
BRANCH   1   5
HETATM    5  C           1     -36.127   0.456 -14.729  0.00  0.00     0.283 C 
BRANCH   5   6
HETATM    6  N           1     -34.633   0.324 -14.709  0.00  0.00    -0.066 N 
HETATM    7  H           1     -34.358  -0.426 -14.035  0.00  0.00     0.275 HD
HETATM    8  H           1     -34.292   0.076 -15.665  0.00  0.00     0.275 HD
HETATM    9  H           1     -34.207   1.231 -14.410  0.00  0.00     0.275 HD
ENDBRANCH   5   6
BRANCH   5  10
HETATM   10  C           1     -36.680  -0.221 -15.975  0.00  0.00     0.113 C 
BRANCH  10  11
HETATM   11  S           1     -35.465  -1.413 -16.606  0.00  0.00    -0.180 SA
HETATM   12  H           1     -34.887  -1.665 -15.418  0.00  0.00     0.101 HD
ENDBRANCH  10  11
ENDBRANCH   5  10
ENDBRANCH   1   5
BRANCH   2  13
HETATM   13  C           1     -36.554  -0.834 -11.146  0.00  0.00     0.186 C 
BRANCH  13  14
HETATM   14  C           1     -36.996   0.229 -10.169  0.00  0.00     0.196 C 
HETATM   15  O           1     -38.065   0.847 -10.360  0.00  0.00    -0.646 OA
HETATM   16  O           1     -36.293   0.489  -9.170  0.00  0.00    -0.646 OA
ENDBRANCH  13  14
BRANCH  13  17
HETATM   17  C           1     -35.495  -1.713 -10.495  0.00  0.00     0.046 C 
BRANCH  17  18
HETATM   18  C           1     -35.151  -2.867 -11.427  0.00  0.00     0.076 C 
BRANCH  18  19
HETATM   19  S           1     -33.381  -3.245 -11.296  0.00  0.00    -0.173 SA
HETATM   20  C           1     -33.571  -5.045 -11.159  0.00  0.00     0.089 C 
ENDBRANCH  18  19
ENDBRANCH  17  18
ENDBRANCH  13  17
ENDBRANCH   2  13
TORSDOF 9
ENDMDL
MODEL 4
REMARK VINA RESULT:      -4.8      3.510      4.812
REMARK  9 active torsions:
REMARK  status: ('A' for Active; 'I' for Inactive)
REMARK    1  A    between atoms: C_1  and  C_2 
REMARK    2  A    between atoms: C_2  and  C_3 
REMARK    3  A    between atoms: C_2  and  N_12 
REMARK    4  A    between atoms: C_3  and  C_15 
REMARK    5  A    between atoms: S_4  and  C_15 
REMARK    6  A    between atoms: N_7  and  C_10 
REMARK    7  A    between atoms: S_8  and  C_9 
REMARK    8  A    between atoms: C_9  and  C_10 
REMARK    9  A    between atoms: C_10  and  C_11 
REMARK       I    between atoms: C_11  and  N_12 
ROOT
HETATM    1  C           1     -21.525  -6.597  -4.284  0.00  0.00     0.249 C 
HETATM    2  N           1     -21.085  -5.528  -5.018  0.00  0.00    -0.345 N 
HETATM    3  O           1     -22.069  -7.525  -4.834  0.00  0.00    -0.271 OA
HETATM    4  H           1     -20.629  -4.750  -4.557  0.00  0.00     0.163 HD
ENDROOT
BRANCH   1   5
HETATM    5  C           1     -21.329  -6.616  -2.787  0.00  0.00     0.283 C 
BRANCH   5   6
HETATM    6  N           1     -22.412  -5.811  -2.132  0.00  0.00    -0.066 N 
HETATM    7  H           1     -22.649  -4.991  -2.735  0.00  0.00     0.275 HD
HETATM    8  H           1     -23.261  -6.407  -2.005  0.00  0.00     0.275 HD
HETATM    9  H           1     -22.079  -5.473  -1.201  0.00  0.00     0.275 HD
ENDBRANCH   5   6
BRANCH   5  10
HETATM   10  C           1     -21.390  -8.053  -2.285  0.00  0.00     0.113 C 
BRANCH  10  11
HETATM   11  S           1     -22.038  -8.074  -0.590  0.00  0.00    -0.180 SA
HETATM   12  H           1     -21.583  -9.302  -0.282  0.00  0.00     0.101 HD
ENDBRANCH  10  11
ENDBRANCH   5  10
ENDBRANCH   1   5
BRANCH   2  13
HETATM   13  C           1     -21.273  -5.509  -6.456  0.00  0.00     0.186 C 
BRANCH  13  14
HETATM   14  C           1     -19.950  -5.756  -7.138  0.00  0.00     0.196 C 
HETATM   15  O           1     -19.400  -6.875  -7.048  0.00  0.00    -0.646 OA
HETATM   16  O           1     -19.405  -4.842  -7.793  0.00  0.00    -0.646 OA
ENDBRANCH  13  14
BRANCH  13  17
HETATM   17  C           1     -21.817  -4.151  -6.878  0.00  0.00     0.046 C 
BRANCH  17  18
HETATM   18  C           1     -23.104  -4.343  -7.669  0.00  0.00     0.076 C 
BRANCH  18  19
HETATM   19  S           1     -22.837  -3.837  -9.392  0.00  0.00    -0.173 SA
HETATM   20  C           1     -24.564  -3.404  -9.742  0.00  0.00     0.089 C 
ENDBRANCH  18  19
ENDBRANCH  17  18
ENDBRANCH  13  17
ENDBRANCH   2  13
TORSDOF 9
ENDMDL
MODEL 5
REMARK VINA RESULT:      -4.8      2.185      7.008
REMARK  9 active torsions:
REMARK  status: ('A' for Active; 'I' for Inactive)
REMARK    1  A    between atoms: C_1  and  C_2 
REMARK    2  A    between atoms: C_2  and  C_3 
REMARK    3  A    between atoms: C_2  and  N_12 
REMARK    4  A    between atoms: C_3  and  C_15 
REMARK    5  A    between atoms: S_4  and  C_15 
REMARK    6  A    between atoms: N_7  and  C_10 
REMARK    7  A    between atoms: S_8  and  C_9 
REMARK    8  A    between atoms: C_9  and  C_10 
REMARK    9  A    between atoms: C_10  and  C_11 
REMARK       I    between atoms: C_11  and  N_12 
ROOT
HETATM    1  C           1     -22.511  -4.218  -8.068  0.00  0.00     0.249 C 
HETATM    2  N           1     -22.227  -5.377  -7.396  0.00  0.00    -0.345 N 
HETATM    3  O           1     -22.016  -3.176  -7.710  0.00  0.00    -0.271 OA
HETATM    4  H           1     -22.642  -6.250  -7.696  0.00  0.00     0.163 HD
ENDROOT
BRANCH   1   5
HETATM    5  C           1     -23.440  -4.243  -9.257  0.00  0.00     0.283 C 
BRANCH   5   6
HETATM    6  N           1     -24.599  -3.326  -9.003  0.00  0.00    -0.066 N 
HETATM    7  H           1     -25.328  -3.831  -8.449  0.00  0.00     0.275 HD
HETATM    8  H           1     -24.272  -2.490  -8.468  0.00  0.00     0.275 HD
HETATM    9  H           1     -25.007  -3.020  -9.915  0.00  0.00     0.275 HD
ENDBRANCH   5   6
BRANCH   5  10
HETATM   10  C           1     -22.689  -3.781 -10.499  0.00  0.00     0.113 C 
BRANCH  10  11
HETATM   11  S           1     -23.871  -3.131 -11.713  0.00  0.00    -0.180 SA
HETATM   12  H           1     -23.769  -1.845 -11.334  0.00  0.00     0.101 HD
ENDBRANCH  10  11
ENDBRANCH   5  10
ENDBRANCH   1   5
BRANCH   2  13
HETATM   13  C           1     -21.334  -5.353  -6.253  0.00  0.00     0.186 C 
BRANCH  13  14
HETATM   14  C           1     -19.932  -5.678  -6.706  0.00  0.00     0.196 C 
HETATM   15  O           1     -19.121  -4.756  -6.940  0.00  0.00    -0.646 OA
HETATM   16  O           1     -19.582  -6.869  -6.846  0.00  0.00    -0.646 OA
ENDBRANCH  13  14
BRANCH  13  17
HETATM   17  C           1     -21.791  -6.385  -5.231  0.00  0.00     0.046 C 
BRANCH  17  18
HETATM   18  C           1     -21.264  -6.005  -3.854  0.00  0.00     0.076 C 
BRANCH  18  19
HETATM   19  S           1     -21.354  -7.444  -2.752  0.00  0.00    -0.173 SA
HETATM   20  C           1     -22.249  -6.611  -1.410  0.00  0.00     0.089 C 
ENDBRANCH  18  19
ENDBRANCH  17  18
ENDBRANCH  13  17
ENDBRANCH   2  13
TORSDOF 9
ENDMDL
MODEL 6
REMARK VINA RESULT:      -4.6      2.483      3.258
REMARK  9 active torsions:
REMARK  status: ('A' for Active; 'I' for Inactive)
REMARK    1  A    between atoms: C_1  and  C_2 
REMARK    2  A    between atoms: C_2  and  C_3 
REMARK    3  A    between atoms: C_2  and  N_12 
REMARK    4  A    between atoms: C_3  and  C_15 
REMARK    5  A    between atoms: S_4  and  C_15 
REMARK    6  A    between atoms: N_7  and  C_10 
REMARK    7  A    between atoms: S_8  and  C_9 
REMARK    8  A    between atoms: C_9  and  C_10 
REMARK    9  A    between atoms: C_10  and  C_11 
REMARK       I    between atoms: C_11  and  N_12 
ROOT
HETATM    1  C           1     -21.305  -5.990  -6.302  0.00  0.00     0.249 C 
HETATM    2  N           1     -21.621  -4.832  -6.961  0.00  0.00    -0.345 N 
HETATM    3  O           1     -21.030  -6.986  -6.928  0.00  0.00    -0.271 OA
HETATM    4  H           1     -21.852  -3.998  -6.436  0.00  0.00     0.163 HD
ENDROOT
BRANCH   1   5
HETATM    5  C           1     -21.300  -6.022  -4.793  0.00  0.00     0.283 C 
BRANCH   5   6
HETATM    6  N           1     -22.706  -6.173  -4.292  0.00  0.00    -0.066 N 
HETATM    7  H           1     -22.716  -6.083  -3.251  0.00  0.00     0.275 HD
HETATM    8  H           1     -23.307  -5.428  -4.712  0.00  0.00     0.275 HD
HETATM    9  H           1     -23.073  -7.113  -4.564  0.00  0.00     0.275 HD
ENDBRANCH   5   6
BRANCH   5  10
HETATM   10  C           1     -20.460  -7.199  -4.312  0.00  0.00     0.113 C 
BRANCH  10  11
HETATM   11  S           1     -21.162  -7.852  -2.771  0.00  0.00    -0.180 SA
HETATM   12  H           1     -20.102  -7.555  -1.998  0.00  0.00     0.101 HD
ENDBRANCH  10  11
ENDBRANCH   5  10
ENDBRANCH   1   5
BRANCH   2  13
HETATM   13  C           1     -21.626  -4.801  -8.411  0.00  0.00     0.186 C 
BRANCH  13  14
HETATM   14  C           1     -20.245  -4.454  -8.910  0.00  0.00     0.196 C 
HETATM   15  O           1     -19.876  -4.835 -10.042  0.00  0.00    -0.646 OA
HETATM   16  O           1     -19.472  -3.785  -8.192  0.00  0.00    -0.646 OA
ENDBRANCH  13  14
BRANCH  13  17
HETATM   17  C           1     -22.620  -3.753  -8.892  0.00  0.00     0.046 C 
BRANCH  17  18
HETATM   18  C           1     -23.710  -4.425  -9.715  0.00  0.00     0.076 C 
BRANCH  18  19
HETATM   19  S           1     -24.106  -3.393 -11.154  0.00  0.00    -0.173 SA
HETATM   20  C           1     -22.395  -2.928 -11.543  0.00  0.00     0.089 C 
ENDBRANCH  18  19
ENDBRANCH  17  18
ENDBRANCH  13  17
ENDBRANCH   2  13
TORSDOF 9
ENDMDL
MODEL 7
REMARK VINA RESULT:      -4.6      3.448      7.513
REMARK  9 active torsions:
REMARK  status: ('A' for Active; 'I' for Inactive)
REMARK    1  A    between atoms: C_1  and  C_2 
REMARK    2  A    between atoms: C_2  and  C_3 
REMARK    3  A    between atoms: C_2  and  N_12 
REMARK    4  A    between atoms: C_3  and  C_15 
REMARK    5  A    between atoms: S_4  and  C_15 
REMARK    6  A    between atoms: N_7  and  C_10 
REMARK    7  A    between atoms: S_8  and  C_9 
REMARK    8  A    between atoms: C_9  and  C_10 
REMARK    9  A    between atoms: C_10  and  C_11 
REMARK       I    between atoms: C_11  and  N_12 
ROOT
HETATM    1  C           1     -20.977  -5.220  -6.984  0.00  0.00     0.249 C 
HETATM    2  N           1     -21.146  -6.519  -6.586  0.00  0.00    -0.345 N 
HETATM    3  O           1     -20.482  -4.416  -6.230  0.00  0.00    -0.271 OA
HETATM    4  H           1     -21.561  -7.192  -7.218  0.00  0.00     0.163 HD
ENDROOT
BRANCH   1   5
HETATM    5  C           1     -21.410  -4.792  -8.365  0.00  0.00     0.283 C 
BRANCH   5   6
HETATM    6  N           1     -22.354  -3.631  -8.254  0.00  0.00    -0.066 N 
HETATM    7  H           1     -21.813  -2.759  -8.056  0.00  0.00     0.275 HD
HETATM    8  H           1     -22.876  -3.520  -9.152  0.00  0.00     0.275 HD
HETATM    9  H           1     -23.029  -3.805  -7.476  0.00  0.00     0.275 HD
ENDBRANCH   5   6
BRANCH   5  10
HETATM   10  C           1     -20.188  -4.377  -9.175  0.00  0.00     0.113 C 
BRANCH  10  11
HETATM   11  S           1     -20.672  -4.106 -10.903  0.00  0.00    -0.180 SA
HETATM   12  H           1     -19.545  -3.466 -11.265  0.00  0.00     0.101 HD
ENDBRANCH  10  11
ENDBRANCH   5  10
ENDBRANCH   1   5
BRANCH   2  13
HETATM   13  C           1     -20.730  -6.930  -5.259  0.00  0.00     0.186 C 
BRANCH  13  14
HETATM   14  C           1     -20.231  -8.354  -5.308  0.00  0.00     0.196 C 
HETATM   15  O           1     -20.915  -9.237  -5.868  0.00  0.00    -0.646 OA
HETATM   16  O           1     -19.134  -8.649  -4.789  0.00  0.00    -0.646 OA
ENDBRANCH  13  14
BRANCH  13  17
HETATM   17  C           1     -21.915  -6.840  -4.306  0.00  0.00     0.046 C 
BRANCH  17  18
HETATM   18  C           1     -21.446  -6.296  -2.963  0.00  0.00     0.076 C 
BRANCH  18  19
HETATM   19  S           1     -21.204  -7.670  -1.804  0.00  0.00    -0.173 SA
HETATM   20  C           1     -22.451  -7.137  -0.599  0.00  0.00     0.089 C 
ENDBRANCH  18  19
ENDBRANCH  17  18
ENDBRANCH  13  17
ENDBRANCH   2  13
TORSDOF 9
ENDMDL
MODEL 8
REMARK VINA RESULT:      -4.4      5.365      8.984
REMARK  9 active torsions:
REMARK  status: ('A' for Active; 'I' for Inactive)
REMARK    1  A    between atoms: C_1  and  C_2 
REMARK    2  A    between atoms: C_2  and  C_3 
REMARK    3  A    between atoms: C_2  and  N_12 
REMARK    4  A    between atoms: C_3  and  C_15 
REMARK    5  A    between atoms: S_4  and  C_15 
REMARK    6  A    between atoms: N_7  and  C_10 
REMARK    7  A    between atoms: S_8  and  C_9 
REMARK    8  A    between atoms: C_9  and  C_10 
REMARK    9  A    between atoms: C_10  and  C_11 
REMARK       I    between atoms: C_11  and  N_12 
ROOT
HETATM    1  C           1     -21.167  -7.057  -4.586  0.00  0.00     0.249 C 
HETATM    2  N           1     -20.755  -7.170  -3.285  0.00  0.00    -0.345 N 
HETATM    3  O           1     -22.239  -7.501  -4.920  0.00  0.00    -0.271 OA
HETATM    4  H           1     -19.856  -6.799  -3.004  0.00  0.00     0.163 HD
ENDROOT
BRANCH   1   5
HETATM    5  C           1     -20.282  -6.377  -5.601  0.00  0.00     0.283 C 
BRANCH   5   6
HETATM    6  N           1     -20.725  -6.755  -6.983  0.00  0.00    -0.066 N 
HETATM    7  H           1     -21.191  -5.937  -7.436  0.00  0.00     0.275 HD
HETATM    8  H           1     -19.896  -7.041  -7.549  0.00  0.00     0.275 HD
HETATM    9  H           1     -21.401  -7.551  -6.926  0.00  0.00     0.275 HD
ENDBRANCH   5   6
BRANCH   5  10
HETATM   10  C           1     -20.381  -4.866  -5.431  0.00  0.00     0.113 C 
BRANCH  10  11
HETATM   11  S           1     -21.004  -4.125  -6.966  0.00  0.00    -0.180 SA
HETATM   12  H           1     -22.067  -3.519  -6.408  0.00  0.00     0.101 HD
ENDBRANCH  10  11
ENDBRANCH   5  10
ENDBRANCH   1   5
BRANCH   2  13
HETATM   13  C           1     -21.605  -7.825  -2.309  0.00  0.00     0.186 C 
BRANCH  13  14
HETATM   14  C           1     -22.302  -6.781  -1.471  0.00  0.00     0.196 C 
HETATM   15  O           1     -22.325  -5.590  -1.848  0.00  0.00    -0.646 OA
HETATM   16  O           1     -22.856  -7.108  -0.400  0.00  0.00    -0.646 OA
ENDBRANCH  13  14
BRANCH  13  17
HETATM   17  C           1     -20.755  -8.714  -1.411  0.00  0.00     0.046 C 
BRANCH  17  18
HETATM   18  C           1     -21.208 -10.161  -1.554  0.00  0.00     0.076 C 
BRANCH  18  19
HETATM   19  S           1     -21.810 -10.768   0.047  0.00  0.00    -0.173 SA
HETATM   20  C           1     -23.577 -10.562  -0.314  0.00  0.00     0.089 C 
ENDBRANCH  18  19
ENDBRANCH  17  18
ENDBRANCH  13  17
ENDBRANCH   2  13
TORSDOF 9
ENDMDL
MODEL 9
REMARK VINA RESULT:      -4.3      4.037      7.802
REMARK  9 active torsions:
REMARK  status: ('A' for Active; 'I' for Inactive)
REMARK    1  A    between atoms: C_1  and  C_2 
REMARK    2  A    between atoms: C_2  and  C_3 
REMARK    3  A    between atoms: C_2  and  N_12 
REMARK    4  A    between atoms: C_3  and  C_15 
REMARK    5  A    between atoms: S_4  and  C_15 
REMARK    6  A    between atoms: N_7  and  C_10 
REMARK    7  A    between atoms: S_8  and  C_9 
REMARK    8  A    between atoms: C_9  and  C_10 
REMARK    9  A    between atoms: C_10  and  C_11 
REMARK       I    between atoms: C_11  and  N_12 
ROOT
HETATM    1  C           1     -21.476  -5.912  -5.535  0.00  0.00     0.249 C 
HETATM    2  N           1     -20.834  -6.748  -4.661  0.00  0.00    -0.345 N 
HETATM    3  O           1     -22.683  -5.856  -5.542  0.00  0.00    -0.271 OA
HETATM    4  H           1     -19.824  -6.795  -4.656  0.00  0.00     0.163 HD
ENDROOT
BRANCH   1   5
HETATM    5  C           1     -20.676  -5.060  -6.490  0.00  0.00     0.283 C 
BRANCH   5   6
HETATM    6  N           1     -20.053  -5.934  -7.537  0.00  0.00    -0.066 N 
HETATM    7  H           1     -20.011  -6.919  -7.189  0.00  0.00     0.275 HD
HETATM    8  H           1     -20.628  -5.897  -8.409  0.00  0.00     0.275 HD
HETATM    9  H           1     -19.085  -5.597  -7.741  0.00  0.00     0.275 HD
ENDBRANCH   5   6
BRANCH   5  10
HETATM   10  C           1     -21.594  -4.044  -7.157  0.00  0.00     0.113 C 
BRANCH  10  11
HETATM   11  S           1     -21.693  -4.394  -8.935  0.00  0.00    -0.180 SA
HETATM   12  H           1     -21.017  -5.556  -8.886  0.00  0.00     0.101 HD
ENDBRANCH  10  11
ENDBRANCH   5  10
ENDBRANCH   1   5
BRANCH   2  13
HETATM   13  C           1     -21.604  -7.567  -3.744  0.00  0.00     0.186 C 
BRANCH  13  14
HETATM   14  C           1     -21.616  -6.918  -2.382  0.00  0.00     0.196 C 
HETATM   15  O           1     -22.287  -5.882  -2.190  0.00  0.00    -0.646 OA
HETATM   16  O           1     -20.956  -7.418  -1.446  0.00  0.00    -0.646 OA
ENDBRANCH  13  14
BRANCH  13  17
HETATM   17  C           1     -20.969  -8.948  -3.644  0.00  0.00     0.046 C 
BRANCH  17  18
HETATM   18  C           1     -19.590  -8.921  -4.290  0.00  0.00     0.076 C 
BRANCH  18  19
HETATM   19  S           1     -18.349  -9.486  -3.093  0.00  0.00    -0.173 SA
HETATM   20  C           1     -17.087  -9.943  -4.315  0.00  0.00     0.089 C 
ENDBRANCH  18  19
ENDBRANCH  17  18
ENDBRANCH  13  17
ENDBRANCH   2  13
TORSDOF 9
ENDMDL
