MODEL 1
REMARK VINA RESULT:      -6.6      0.000      0.000
REMARK  9 active torsions:
REMARK  status: ('A' for Active; 'I' for Inactive)
REMARK    1  A    between atoms: C_2  and  C_12 
REMARK    2  A    between atoms: C_2  and  N_3 
REMARK    3  A    between atoms: N_6  and  C_16 
REMARK       I    between atoms: N_6  and  C_7 
REMARK    4  A    between atoms: C_7  and  C_8 
REMARK    5  A    between atoms: C_8  and  C_13 
REMARK    6  A    between atoms: C_8  and  N_19 
REMARK    7  A    between atoms: C_9  and  C_16 
REMARK    8  A    between atoms: C_12  and  C_21 
REMARK    9  A    between atoms: C_13  and  C_21 
ROOT
HETATM    1  C           1     -34.306  -2.589 -11.734  0.00  0.00     0.274 C 
ENDROOT
BRANCH   1   2
HETATM    2  C           1     -35.231  -1.764 -12.594  0.00  0.00     0.249 C 
HETATM    3  N           1     -34.795  -1.275 -13.797  0.00  0.00    -0.345 N 
HETATM    4  H           1     -33.852  -1.467 -14.109  0.00  0.00     0.163 HD
HETATM    5  O           1     -36.358  -1.535 -12.221  0.00  0.00    -0.271 OA
BRANCH   3   6
HETATM    6  C           1     -35.685  -0.483 -14.622  0.00  0.00     0.181 C 
HETATM    7  C           1     -35.204   0.962 -14.644  0.00  0.00     0.043 C 
BRANCH   6   8
HETATM    8  C           1     -35.690  -1.034 -16.027  0.00  0.00     0.196 C 
HETATM    9  O           1     -35.050  -2.074 -16.293  0.00  0.00    -0.646 OA
HETATM   10  O           1     -36.335  -0.450 -16.925  0.00  0.00    -0.646 OA
ENDBRANCH   6   8
ENDBRANCH   3   6
ENDBRANCH   1   2
BRANCH   1  11
HETATM   11  C           1     -35.081  -3.743 -11.112  0.00  0.00     0.042 C 
BRANCH  11  12
HETATM   12  C           1     -34.104  -4.757 -10.532  0.00  0.00     0.004 C 
BRANCH  12  13
HETATM   13  C           1     -34.367  -6.126 -11.147  0.00  0.00     0.027 C 
BRANCH  13  14
HETATM   14  C           1     -34.739  -7.113 -10.049  0.00  0.00     0.229 C 
BRANCH  14  15
HETATM   15  N           1     -34.059  -8.426 -10.305  0.00  0.00    -0.079 N 
HETATM   16  H           1     -34.177  -8.690 -11.309  0.00  0.00     0.274 HD
HETATM   17  H           1     -33.041  -8.338 -10.086  0.00  0.00     0.274 HD
HETATM   18  H           1     -34.485  -9.163  -9.699  0.00  0.00     0.274 HD
ENDBRANCH  14  15
ENDBRANCH  13  14
ENDBRANCH  12  13
ENDBRANCH  11  12
ENDBRANCH   1  11
BRANCH   1  19
HETATM   19  N           1     -33.735  -1.728 -10.646  0.00  0.00    -0.067 N 
HETATM   20  H           1     -32.938  -1.169 -11.026  0.00  0.00     0.275 HD
HETATM   21  H           1     -33.397  -2.333  -9.865  0.00  0.00     0.275 HD
HETATM   22  H           1     -34.474  -1.081 -10.290  0.00  0.00     0.275 HD
ENDBRANCH   1  19
TORSDOF 9
ENDMDL
MODEL 2
REMARK VINA RESULT:      -6.5      1.004      1.384
REMARK  9 active torsions:
REMARK  status: ('A' for Active; 'I' for Inactive)
REMARK    1  A    between atoms: C_2  and  C_12 
REMARK    2  A    between atoms: C_2  and  N_3 
REMARK    3  A    between atoms: N_6  and  C_16 
REMARK       I    between atoms: N_6  and  C_7 
REMARK    4  A    between atoms: C_7  and  C_8 
REMARK    5  A    between atoms: C_8  and  C_13 
REMARK    6  A    between atoms: C_8  and  N_19 
REMARK    7  A    between atoms: C_9  and  C_16 
REMARK    8  A    between atoms: C_12  and  C_21 
REMARK    9  A    between atoms: C_13  and  C_21 
ROOT
HETATM    1  C           1     -34.563  -1.625 -11.911  0.00  0.00     0.274 C 
ENDROOT
BRANCH   1   2
HETATM    2  C           1     -35.523  -1.072 -12.934  0.00  0.00     0.249 C 
HETATM    3  N           1     -35.049  -0.533 -14.100  0.00  0.00    -0.345 N 
HETATM    4  H           1     -34.052  -0.505 -14.275  0.00  0.00     0.163 HD
HETATM    5  O           1     -36.714  -1.105 -12.725  0.00  0.00    -0.271 OA
BRANCH   3   6
HETATM    6  C           1     -35.973  -0.002 -15.083  0.00  0.00     0.181 C 
HETATM    7  C           1     -35.605   1.442 -15.396  0.00  0.00     0.043 C 
BRANCH   6   8
HETATM    8  C           1     -35.894  -0.827 -16.344  0.00  0.00     0.196 C 
HETATM    9  O           1     -36.837  -0.808 -17.164  0.00  0.00    -0.646 OA
HETATM   10  O           1     -34.884  -1.530 -16.568  0.00  0.00    -0.646 OA
ENDBRANCH   6   8
ENDBRANCH   3   6
ENDBRANCH   1   2
BRANCH   1  11
HETATM   11  C           1     -34.334  -3.107 -12.175  0.00  0.00     0.042 C 
BRANCH  11  12
HETATM   12  C           1     -33.077  -3.565 -11.446  0.00  0.00     0.004 C 
BRANCH  12  13
HETATM   13  C           1     -33.023  -5.087 -11.434  0.00  0.00     0.027 C 
BRANCH  13  14
HETATM   14  C           1     -34.188  -5.631 -10.618  0.00  0.00     0.229 C 
BRANCH  14  15
HETATM   15  N           1     -34.217  -7.128 -10.723  0.00  0.00    -0.079 N 
HETATM   16  H           1     -34.613  -7.404 -11.649  0.00  0.00     0.274 HD
HETATM   17  H           1     -33.245  -7.500 -10.634  0.00  0.00     0.274 HD
HETATM   18  H           1     -34.813  -7.519  -9.959  0.00  0.00     0.274 HD
ENDBRANCH  14  15
ENDBRANCH  13  14
ENDBRANCH  12  13
ENDBRANCH  11  12
ENDBRANCH   1  11
BRANCH   1  19
HETATM   19  N           1     -35.138  -1.445 -10.538  0.00  0.00    -0.067 N 
HETATM   20  H           1     -36.138  -1.750 -10.537  0.00  0.00     0.275 HD
HETATM   21  H           1     -35.080  -0.438 -10.265  0.00  0.00     0.275 HD
HETATM   22  H           1     -34.598  -2.021  -9.855  0.00  0.00     0.275 HD
ENDBRANCH   1  19
TORSDOF 9
ENDMDL
MODEL 3
REMARK VINA RESULT:      -5.9     12.751     13.463
REMARK  9 active torsions:
REMARK  status: ('A' for Active; 'I' for Inactive)
REMARK    1  A    between atoms: C_2  and  C_12 
REMARK    2  A    between atoms: C_2  and  N_3 
REMARK    3  A    between atoms: N_6  and  C_16 
REMARK       I    between atoms: N_6  and  C_7 
REMARK    4  A    between atoms: C_7  and  C_8 
REMARK    5  A    between atoms: C_8  and  C_13 
REMARK    6  A    between atoms: C_8  and  N_19 
REMARK    7  A    between atoms: C_9  and  C_16 
REMARK    8  A    between atoms: C_12  and  C_21 
REMARK    9  A    between atoms: C_13  and  C_21 
ROOT
HETATM    1  C           1     -20.966  -4.366 -10.875  0.00  0.00     0.274 C 
ENDROOT
BRANCH   1   2
HETATM    2  C           1     -22.213  -4.302 -11.721  0.00  0.00     0.249 C 
HETATM    3  N           1     -22.297  -3.405 -12.753  0.00  0.00    -0.345 N 
HETATM    4  H           1     -21.521  -2.785 -12.947  0.00  0.00     0.163 HD
HETATM    5  O           1     -23.140  -5.043 -11.488  0.00  0.00    -0.271 OA
BRANCH   3   6
HETATM    6  C           1     -23.495  -3.345 -13.565  0.00  0.00     0.181 C 
HETATM    7  C           1     -24.659  -2.853 -12.715  0.00  0.00     0.043 C 
BRANCH   6   8
HETATM    8  C           1     -23.275  -2.395 -14.716  0.00  0.00     0.196 C 
HETATM    9  O           1     -23.985  -1.373 -14.829  0.00  0.00    -0.646 OA
HETATM   10  O           1     -22.380  -2.630 -15.558  0.00  0.00    -0.646 OA
ENDBRANCH   6   8
ENDBRANCH   3   6
ENDBRANCH   1   2
BRANCH   1  11
HETATM   11  C           1     -21.323  -4.096  -9.419  0.00  0.00     0.042 C 
BRANCH  11  12
HETATM   12  C           1     -20.172  -4.537  -8.523  0.00  0.00     0.004 C 
BRANCH  12  13
HETATM   13  C           1     -20.468  -4.140  -7.083  0.00  0.00     0.027 C 
BRANCH  13  14
HETATM   14  C           1     -20.042  -5.263  -6.148  0.00  0.00     0.229 C 
BRANCH  14  15
HETATM   15  N           1     -20.159  -6.579  -6.860  0.00  0.00    -0.079 N 
HETATM   16  H           1     -20.247  -7.348  -6.159  0.00  0.00     0.274 HD
HETATM   17  H           1     -21.006  -6.568  -7.472  0.00  0.00     0.274 HD
HETATM   18  H           1     -19.307  -6.736  -7.445  0.00  0.00     0.274 HD
ENDBRANCH  14  15
ENDBRANCH  13  14
ENDBRANCH  12  13
ENDBRANCH  11  12
ENDBRANCH   1  11
BRANCH   1  19
HETATM   19  N           1     -19.988  -3.333 -11.349  0.00  0.00    -0.067 N 
HETATM   20  H           1     -20.337  -2.903 -12.235  0.00  0.00     0.275 HD
HETATM   21  H           1     -19.061  -3.784 -11.521  0.00  0.00     0.275 HD
HETATM   22  H           1     -19.883  -2.591 -10.620  0.00  0.00     0.275 HD
ENDBRANCH   1  19
TORSDOF 9
ENDMDL
MODEL 4
REMARK VINA RESULT:      -5.8     13.332     14.417
REMARK  9 active torsions:
REMARK  status: ('A' for Active; 'I' for Inactive)
REMARK    1  A    between atoms: C_2  and  C_12 
REMARK    2  A    between atoms: C_2  and  N_3 
REMARK    3  A    between atoms: N_6  and  C_16 
REMARK       I    between atoms: N_6  and  C_7 
REMARK    4  A    between atoms: C_7  and  C_8 
REMARK    5  A    between atoms: C_8  and  C_13 
REMARK    6  A    between atoms: C_8  and  N_19 
REMARK    7  A    between atoms: C_9  and  C_16 
REMARK    8  A    between atoms: C_12  and  C_21 
REMARK    9  A    between atoms: C_13  and  C_21 
ROOT
HETATM    1  C           1     -21.112  -5.863  -6.896  0.00  0.00     0.274 C 
ENDROOT
BRANCH   1   2
HETATM    2  C           1     -21.646  -4.650  -7.616  0.00  0.00     0.249 C 
HETATM    3  N           1     -22.271  -4.790  -8.826  0.00  0.00    -0.345 N 
HETATM    4  H           1     -22.374  -5.708  -9.239  0.00  0.00     0.163 HD
HETATM    5  O           1     -21.523  -3.552  -7.123  0.00  0.00    -0.271 OA
BRANCH   3   6
HETATM    6  C           1     -22.784  -3.623  -9.517  0.00  0.00     0.181 C 
HETATM    7  C           1     -22.109  -3.502 -10.877  0.00  0.00     0.043 C 
BRANCH   6   8
HETATM    8  C           1     -24.274  -3.765  -9.704  0.00  0.00     0.196 C 
HETATM    9  O           1     -24.765  -4.878  -9.991  0.00  0.00    -0.646 OA
HETATM   10  O           1     -25.019  -2.769  -9.572  0.00  0.00    -0.646 OA
ENDBRANCH   6   8
ENDBRANCH   3   6
ENDBRANCH   1   2
BRANCH   1  11
HETATM   11  C           1     -20.987  -5.559  -5.409  0.00  0.00     0.042 C 
BRANCH  11  12
HETATM   12  C           1     -22.002  -6.390  -4.634  0.00  0.00     0.004 C 
BRANCH  12  13
HETATM   13  C           1     -21.271  -7.406  -3.766  0.00  0.00     0.027 C 
BRANCH  13  14
HETATM   14  C           1     -21.305  -6.950  -2.313  0.00  0.00     0.229 C 
BRANCH  14  15
HETATM   15  N           1     -22.393  -5.932  -2.132  0.00  0.00    -0.079 N 
HETATM   16  H           1     -22.053  -4.999  -2.457  0.00  0.00     0.274 HD
HETATM   17  H           1     -23.227  -6.214  -2.694  0.00  0.00     0.274 HD
HETATM   18  H           1     -22.653  -5.876  -1.122  0.00  0.00     0.274 HD
ENDBRANCH  14  15
ENDBRANCH  13  14
ENDBRANCH  12  13
ENDBRANCH  11  12
ENDBRANCH   1  11
BRANCH   1  19
HETATM   19  N           1     -19.763  -6.217  -7.448  0.00  0.00    -0.067 N 
HETATM   20  H           1     -19.510  -7.188  -7.154  0.00  0.00     0.275 HD
HETATM   21  H           1     -19.051  -5.545  -7.084  0.00  0.00     0.275 HD
HETATM   22  H           1     -19.789  -6.165  -8.491  0.00  0.00     0.275 HD
ENDBRANCH   1  19
TORSDOF 9
ENDMDL
MODEL 5
REMARK VINA RESULT:      -5.7     12.705     14.442
REMARK  9 active torsions:
REMARK  status: ('A' for Active; 'I' for Inactive)
REMARK    1  A    between atoms: C_2  and  C_12 
REMARK    2  A    between atoms: C_2  and  N_3 
REMARK    3  A    between atoms: N_6  and  C_16 
REMARK       I    between atoms: N_6  and  C_7 
REMARK    4  A    between atoms: C_7  and  C_8 
REMARK    5  A    between atoms: C_8  and  C_13 
REMARK    6  A    between atoms: C_8  and  N_19 
REMARK    7  A    between atoms: C_9  and  C_16 
REMARK    8  A    between atoms: C_12  and  C_21 
REMARK    9  A    between atoms: C_13  and  C_21 
ROOT
HETATM    1  C           1     -23.782  -3.832 -10.222  0.00  0.00     0.274 C 
ENDROOT
BRANCH   1   2
HETATM    2  C           1     -22.501  -4.435  -9.702  0.00  0.00     0.249 C 
HETATM    3  N           1     -22.313  -4.589  -8.354  0.00  0.00    -0.345 N 
HETATM    4  H           1     -23.033  -4.298  -7.707  0.00  0.00     0.163 HD
HETATM    5  O           1     -21.639  -4.783 -10.476  0.00  0.00    -0.271 OA
BRANCH   3   6
HETATM    6  C           1     -21.081  -5.169  -7.856  0.00  0.00     0.181 C 
HETATM    7  C           1     -20.094  -4.057  -7.528  0.00  0.00     0.043 C 
BRANCH   6   8
HETATM    8  C           1     -21.371  -5.970  -6.610  0.00  0.00     0.196 C 
HETATM    9  O           1     -20.783  -7.055  -6.413  0.00  0.00    -0.646 OA
HETATM   10  O           1     -22.200  -5.547  -5.774  0.00  0.00    -0.646 OA
ENDBRANCH   6   8
ENDBRANCH   3   6
ENDBRANCH   1   2
BRANCH   1  11
HETATM   11  C           1     -23.457  -2.697 -11.184  0.00  0.00     0.042 C 
BRANCH  11  12
HETATM   12  C           1     -24.002  -3.032 -12.567  0.00  0.00     0.004 C 
BRANCH  12  13
HETATM   13  C           1     -22.860  -3.036 -13.575  0.00  0.00     0.027 C 
BRANCH  13  14
HETATM   14  C           1     -23.239  -2.181 -14.777  0.00  0.00     0.229 C 
BRANCH  14  15
HETATM   15  N           1     -24.106  -1.041 -14.326  0.00  0.00    -0.079 N 
HETATM   16  H           1     -24.999  -1.048 -14.868  0.00  0.00     0.274 HD
HETATM   17  H           1     -24.315  -1.146 -13.308  0.00  0.00     0.274 HD
HETATM   18  H           1     -23.606  -0.138 -14.490  0.00  0.00     0.274 HD
ENDBRANCH  14  15
ENDBRANCH  13  14
ENDBRANCH  12  13
ENDBRANCH  11  12
ENDBRANCH   1  11
BRANCH   1  19
HETATM   19  N           1     -24.584  -3.298  -9.073  0.00  0.00    -0.067 N 
HETATM   20  H           1     -24.278  -2.322  -8.857  0.00  0.00     0.275 HD
HETATM   21  H           1     -24.437  -3.904  -8.234  0.00  0.00     0.275 HD
HETATM   22  H           1     -25.598  -3.296  -9.326  0.00  0.00     0.275 HD
ENDBRANCH   1  19
TORSDOF 9
ENDMDL
MODEL 6
REMARK VINA RESULT:      -5.6      3.218      5.764
REMARK  9 active torsions:
REMARK  status: ('A' for Active; 'I' for Inactive)
REMARK    1  A    between atoms: C_2  and  C_12 
REMARK    2  A    between atoms: C_2  and  N_3 
REMARK    3  A    between atoms: N_6  and  C_16 
REMARK       I    between atoms: N_6  and  C_7 
REMARK    4  A    between atoms: C_7  and  C_8 
REMARK    5  A    between atoms: C_8  and  C_13 
REMARK    6  A    between atoms: C_8  and  N_19 
REMARK    7  A    between atoms: C_9  and  C_16 
REMARK    8  A    between atoms: C_12  and  C_21 
REMARK    9  A    between atoms: C_13  and  C_21 
ROOT
HETATM    1  C           1     -35.732  -0.581 -12.245  0.00  0.00     0.274 C 
ENDROOT
BRANCH   1   2
HETATM    2  C           1     -35.048  -1.795 -12.822  0.00  0.00     0.249 C 
HETATM    3  N           1     -34.514  -2.742 -11.989  0.00  0.00    -0.345 N 
HETATM    4  H           1     -34.577  -2.626 -10.985  0.00  0.00     0.163 HD
HETATM    5  O           1     -34.972  -1.934 -14.020  0.00  0.00    -0.271 OA
BRANCH   3   6
HETATM    6  C           1     -33.857  -3.909 -12.544  0.00  0.00     0.181 C 
HETATM    7  C           1     -32.499  -4.090 -11.879  0.00  0.00     0.043 C 
BRANCH   6   8
HETATM    8  C           1     -34.707  -5.130 -12.294  0.00  0.00     0.196 C 
HETATM    9  O           1     -34.812  -5.594 -11.138  0.00  0.00    -0.646 OA
HETATM   10  O           1     -35.308  -5.678 -13.244  0.00  0.00    -0.646 OA
ENDBRANCH   6   8
ENDBRANCH   3   6
ENDBRANCH   1   2
BRANCH   1  11
HETATM   11  C           1     -36.432  -0.958 -10.946  0.00  0.00     0.042 C 
BRANCH  11  12
HETATM   12  C           1     -37.755  -0.210 -10.846  0.00  0.00     0.004 C 
BRANCH  12  13
HETATM   13  C           1     -38.072   0.069  -9.383  0.00  0.00     0.027 C 
BRANCH  13  14
HETATM   14  C           1     -37.672   1.498  -9.040  0.00  0.00     0.229 C 
BRANCH  14  15
HETATM   15  N           1     -36.339   1.493  -8.350  0.00  0.00    -0.079 N 
HETATM   16  H           1     -36.330   2.225  -7.605  0.00  0.00     0.274 HD
HETATM   17  H           1     -36.176   0.555  -7.919  0.00  0.00     0.274 HD
HETATM   18  H           1     -35.586   1.694  -9.046  0.00  0.00     0.274 HD
ENDBRANCH  14  15
ENDBRANCH  13  14
ENDBRANCH  12  13
ENDBRANCH  11  12
ENDBRANCH   1  11
BRANCH   1  19
HETATM   19  N           1     -36.744  -0.066 -13.226  0.00  0.00    -0.067 N 
HETATM   20  H           1     -37.054   0.889 -12.937  0.00  0.00     0.275 HD
HETATM   21  H           1     -37.568  -0.709 -13.246  0.00  0.00     0.275 HD
HETATM   22  H           1     -36.316  -0.020 -14.177  0.00  0.00     0.275 HD
ENDBRANCH   1  19
TORSDOF 9
ENDMDL
MODEL 7
REMARK VINA RESULT:      -5.6     13.346     14.937
REMARK  9 active torsions:
REMARK  status: ('A' for Active; 'I' for Inactive)
REMARK    1  A    between atoms: C_2  and  C_12 
REMARK    2  A    between atoms: C_2  and  N_3 
REMARK    3  A    between atoms: N_6  and  C_16 
REMARK       I    between atoms: N_6  and  C_7 
REMARK    4  A    between atoms: C_7  and  C_8 
REMARK    5  A    between atoms: C_8  and  C_13 
REMARK    6  A    between atoms: C_8  and  N_19 
REMARK    7  A    between atoms: C_9  and  C_16 
REMARK    8  A    between atoms: C_12  and  C_21 
REMARK    9  A    between atoms: C_13  and  C_21 
ROOT
HETATM    1  C           1     -23.803  -4.374  -9.036  0.00  0.00     0.274 C 
ENDROOT
BRANCH   1   2
HETATM    2  C           1     -22.539  -4.130  -8.251  0.00  0.00     0.249 C 
HETATM    3  N           1     -22.203  -4.960  -7.214  0.00  0.00    -0.345 N 
HETATM    4  H           1     -22.805  -5.737  -6.974  0.00  0.00     0.163 HD
HETATM    5  O           1     -21.820  -3.201  -8.538  0.00  0.00    -0.271 OA
BRANCH   3   6
HETATM    6  C           1     -20.988  -4.724  -6.461  0.00  0.00     0.181 C 
HETATM    7  C           1     -21.079  -5.434  -5.117  0.00  0.00     0.043 C 
BRANCH   6   8
HETATM    8  C           1     -19.807  -5.258  -7.234  0.00  0.00     0.196 C 
HETATM    9  O           1     -19.730  -6.478  -7.495  0.00  0.00    -0.646 OA
HETATM   10  O           1     -18.904  -4.480  -7.613  0.00  0.00    -0.646 OA
ENDBRANCH   6   8
ENDBRANCH   3   6
ENDBRANCH   1   2
BRANCH   1  11
HETATM   11  C           1     -23.456  -4.623 -10.498  0.00  0.00     0.042 C 
BRANCH  11  12
HETATM   12  C           1     -23.936  -3.448 -11.341  0.00  0.00     0.004 C 
BRANCH  12  13
HETATM   13  C           1     -22.762  -2.870 -12.120  0.00  0.00     0.027 C 
BRANCH  13  14
HETATM   14  C           1     -21.563  -3.801 -11.998  0.00  0.00     0.229 C 
BRANCH  14  15
HETATM   15  N           1     -20.406  -3.051 -11.403  0.00  0.00    -0.079 N 
HETATM   16  H           1     -20.397  -3.191 -10.367  0.00  0.00     0.274 HD
HETATM   17  H           1     -19.514  -3.410 -11.811  0.00  0.00     0.274 HD
HETATM   18  H           1     -20.505  -2.033 -11.616  0.00  0.00     0.274 HD
ENDBRANCH  14  15
ENDBRANCH  13  14
ENDBRANCH  12  13
ENDBRANCH  11  12
ENDBRANCH   1  11
BRANCH   1  19
HETATM   19  N           1     -24.695  -3.173  -8.932  0.00  0.00    -0.067 N 
HETATM   20  H           1     -24.118  -2.330  -8.710  0.00  0.00     0.275 HD
HETATM   21  H           1     -25.397  -3.325  -8.174  0.00  0.00     0.275 HD
HETATM   22  H           1     -25.190  -3.026  -9.840  0.00  0.00     0.275 HD
ENDBRANCH   1  19
TORSDOF 9
ENDMDL
MODEL 8
REMARK VINA RESULT:      -5.6     13.762     15.562
REMARK  9 active torsions:
REMARK  status: ('A' for Active; 'I' for Inactive)
REMARK    1  A    between atoms: C_2  and  C_12 
REMARK    2  A    between atoms: C_2  and  N_3 
REMARK    3  A    between atoms: N_6  and  C_16 
REMARK       I    between atoms: N_6  and  C_7 
REMARK    4  A    between atoms: C_7  and  C_8 
REMARK    5  A    between atoms: C_8  and  C_13 
REMARK    6  A    between atoms: C_8  and  N_19 
REMARK    7  A    between atoms: C_9  and  C_16 
REMARK    8  A    between atoms: C_12  and  C_21 
REMARK    9  A    between atoms: C_13  and  C_21 
ROOT
HETATM    1  C           1     -22.442  -4.581  -9.221  0.00  0.00     0.274 C 
ENDROOT
BRANCH   1   2
HETATM    2  C           1     -21.303  -5.016  -8.332  0.00  0.00     0.249 C 
HETATM    3  N           1     -21.557  -5.481  -7.069  0.00  0.00    -0.345 N 
HETATM    4  H           1     -22.510  -5.532  -6.732  0.00  0.00     0.163 HD
HETATM    5  O           1     -20.165  -4.955  -8.735  0.00  0.00    -0.271 OA
BRANCH   3   6
HETATM    6  C           1     -20.463  -5.899  -6.217  0.00  0.00     0.181 C 
HETATM    7  C           1     -20.099  -4.765  -5.267  0.00  0.00     0.043 C 
BRANCH   6   8
HETATM    8  C           1     -20.880  -7.110  -5.420  0.00  0.00     0.196 C 
HETATM    9  O           1     -20.862  -7.073  -4.171  0.00  0.00    -0.646 OA
HETATM   10  O           1     -21.245  -8.150  -6.009  0.00  0.00    -0.646 OA
ENDBRANCH   6   8
ENDBRANCH   3   6
ENDBRANCH   1   2
BRANCH   1  11
HETATM   11  C           1     -21.897  -3.763 -10.384  0.00  0.00     0.042 C 
BRANCH  11  12
HETATM   12  C           1     -22.833  -3.891 -11.579  0.00  0.00     0.004 C 
BRANCH  12  13
HETATM   13  C           1     -22.873  -2.572 -12.338  0.00  0.00     0.027 C 
BRANCH  13  14
HETATM   14  C           1     -23.538  -2.784 -13.692  0.00  0.00     0.229 C 
BRANCH  14  15
HETATM   15  N           1     -22.484  -2.979 -14.742  0.00  0.00    -0.079 N 
HETATM   16  H           1     -21.600  -3.305 -14.291  0.00  0.00     0.274 HD
HETATM   17  H           1     -22.809  -3.694 -15.430  0.00  0.00     0.274 HD
HETATM   18  H           1     -22.310  -2.073 -15.233  0.00  0.00     0.274 HD
ENDBRANCH  14  15
ENDBRANCH  13  14
ENDBRANCH  12  13
ENDBRANCH  11  12
ENDBRANCH   1  11
BRANCH   1  19
HETATM   19  N           1     -23.402  -3.745  -8.429  0.00  0.00    -0.067 N 
HETATM   20  H           1     -23.223  -2.733  -8.621  0.00  0.00     0.275 HD
HETATM   21  H           1     -23.271  -3.935  -7.409  0.00  0.00     0.275 HD
HETATM   22  H           1     -24.381  -3.983  -8.703  0.00  0.00     0.275 HD
ENDBRANCH   1  19
TORSDOF 9
ENDMDL
MODEL 9
REMARK VINA RESULT:      -5.6      4.985      6.167
REMARK  9 active torsions:
REMARK  status: ('A' for Active; 'I' for Inactive)
REMARK    1  A    between atoms: C_2  and  C_12 
REMARK    2  A    between atoms: C_2  and  N_3 
REMARK    3  A    between atoms: N_6  and  C_16 
REMARK       I    between atoms: N_6  and  C_7 
REMARK    4  A    between atoms: C_7  and  C_8 
REMARK    5  A    between atoms: C_8  and  C_13 
REMARK    6  A    between atoms: C_8  and  N_19 
REMARK    7  A    between atoms: C_9  and  C_16 
REMARK    8  A    between atoms: C_12  and  C_21 
REMARK    9  A    between atoms: C_13  and  C_21 
ROOT
HETATM    1  C           1     -33.068  -4.517 -16.687  0.00  0.00     0.274 C 
ENDROOT
BRANCH   1   2
HETATM    2  C           1     -33.900  -4.516 -15.429  0.00  0.00     0.249 C 
HETATM    3  N           1     -33.386  -4.007 -14.266  0.00  0.00    -0.345 N 
HETATM    4  H           1     -32.446  -3.632 -14.251  0.00  0.00     0.163 HD
HETATM    5  O           1     -35.023  -4.965 -15.447  0.00  0.00    -0.271 OA
BRANCH   3   6
HETATM    6  C           1     -34.187  -4.006 -13.059  0.00  0.00     0.181 C 
HETATM    7  C           1     -33.365  -4.565 -11.905  0.00  0.00     0.043 C 
BRANCH   6   8
HETATM    8  C           1     -34.611  -2.594 -12.738  0.00  0.00     0.196 C 
HETATM    9  O           1     -35.008  -1.838 -13.650  0.00  0.00    -0.646 OA
HETATM   10  O           1     -34.565  -2.180 -11.559  0.00  0.00    -0.646 OA
ENDBRANCH   6   8
ENDBRANCH   3   6
ENDBRANCH   1   2
BRANCH   1  11
HETATM   11  C           1     -31.603  -4.734 -16.329  0.00  0.00     0.042 C 
BRANCH  11  12
HETATM   12  C           1     -30.881  -5.371 -17.510  0.00  0.00     0.004 C 
BRANCH  12  13
HETATM   13  C           1     -30.957  -6.888 -17.394  0.00  0.00     0.027 C 
BRANCH  13  14
HETATM   14  C           1     -29.582  -7.487 -17.657  0.00  0.00     0.229 C 
BRANCH  14  15
HETATM   15  N           1     -29.669  -8.460 -18.796  0.00  0.00    -0.079 N 
HETATM   16  H           1     -30.420  -8.156 -19.456  0.00  0.00     0.274 HD
HETATM   17  H           1     -28.754  -8.487 -19.299  0.00  0.00     0.274 HD
HETATM   18  H           1     -29.894  -9.411 -18.426  0.00  0.00     0.274 HD
ENDBRANCH  14  15
ENDBRANCH  13  14
ENDBRANCH  12  13
ENDBRANCH  11  12
ENDBRANCH   1  11
BRANCH   1  19
HETATM   19  N           1     -33.220  -3.200 -17.387  0.00  0.00    -0.067 N 
HETATM   20  H           1     -33.788  -2.553 -16.794  0.00  0.00     0.275 HD
HETATM   21  H           1     -33.702  -3.346 -18.303  0.00  0.00     0.275 HD
HETATM   22  H           1     -32.278  -2.782 -17.554  0.00  0.00     0.275 HD
ENDBRANCH   1  19
TORSDOF 9
ENDMDL
