MODEL 1
REMARK VINA RESULT:      -5.3      0.000      0.000
REMARK  6 active torsions:
REMARK  status: ('A' for Active; 'I' for Inactive)
REMARK    1  A    between atoms: C_5  and  C_13 
REMARK    2  A    between atoms: C_5  and  N_6 
REMARK       I    between atoms: N_6  and  C_7 
REMARK    3  A    between atoms: C_7  and  C_8 
REMARK    4  A    between atoms: C_8  and  C_9 
REMARK    5  A    between atoms: C_8  and  N_11 
REMARK    6  A    between atoms: C_9  and  S_10 
ROOT
HETATM    1  N           1     -23.609  -3.129 -11.679  0.00  0.00    -0.349 N 
HETATM    2  C           1     -24.128  -3.297 -10.424  0.00  0.00     0.249 C 
HETATM    3  O           1     -25.321  -3.238 -10.252  0.00  0.00    -0.271 OA
HETATM    4  H           1     -22.608  -3.179 -11.825  0.00  0.00     0.163 HD
ENDROOT
BRANCH   2   5
HETATM    5  C           1     -23.208  -3.557  -9.257  0.00  0.00     0.283 C 
BRANCH   5   6
HETATM    6  C           1     -22.171  -4.601  -9.649  0.00  0.00     0.113 C 
BRANCH   6   7
HETATM    7  S           1     -20.908  -4.717  -8.350  0.00  0.00    -0.180 SA
HETATM    8  H           1     -21.192  -5.982  -7.990  0.00  0.00     0.101 HD
ENDBRANCH   6   7
ENDBRANCH   5   6
BRANCH   5   9
HETATM    9  N           1     -24.009  -4.062  -8.092  0.00  0.00    -0.066 N 
HETATM   10  H           1     -24.285  -3.258  -7.484  0.00  0.00     0.275 HD
HETATM   11  H           1     -24.867  -4.543  -8.444  0.00  0.00     0.275 HD
HETATM   12  H           1     -23.432  -4.734  -7.539  0.00  0.00     0.275 HD
ENDBRANCH   5   9
ENDBRANCH   2   5
BRANCH   1  13
HETATM   13  C           1     -24.491  -2.880 -12.802  0.00  0.00     0.235 C 
BRANCH  13  14
HETATM   14  C           1     -23.688  -2.369 -13.972  0.00  0.00     0.191 C 
HETATM   15  O           1     -24.113  -1.409 -14.651  0.00  0.00    -0.647 OA
HETATM   16  O           1     -22.597  -2.905 -14.263  0.00  0.00    -0.647 OA
ENDBRANCH  13  14
ENDBRANCH   1  13
TORSDOF 6
ENDMDL
MODEL 2
REMARK VINA RESULT:      -5.1      1.808      1.951
REMARK  6 active torsions:
REMARK  status: ('A' for Active; 'I' for Inactive)
REMARK    1  A    between atoms: C_5  and  C_13 
REMARK    2  A    between atoms: C_5  and  N_6 
REMARK       I    between atoms: N_6  and  C_7 
REMARK    3  A    between atoms: C_7  and  C_8 
REMARK    4  A    between atoms: C_8  and  C_9 
REMARK    5  A    between atoms: C_8  and  N_11 
REMARK    6  A    between atoms: C_9  and  S_10 
ROOT
HETATM    1  N           1     -22.892  -3.004 -11.276  0.00  0.00    -0.349 N 
HETATM    2  C           1     -22.256  -3.749 -10.319  0.00  0.00     0.249 C 
HETATM    3  O           1     -21.363  -4.498 -10.632  0.00  0.00    -0.271 OA
HETATM    4  H           1     -23.641  -2.376 -11.014  0.00  0.00     0.163 HD
ENDROOT
BRANCH   2   5
HETATM    5  C           1     -22.672  -3.633  -8.874  0.00  0.00     0.283 C 
BRANCH   5   6
HETATM    6  C           1     -22.082  -4.791  -8.081  0.00  0.00     0.113 C 
BRANCH   6   7
HETATM    7  S           1     -20.824  -4.161  -6.934  0.00  0.00    -0.180 SA
HETATM    8  H           1     -20.065  -5.272  -6.934  0.00  0.00     0.101 HD
ENDBRANCH   6   7
ENDBRANCH   5   6
BRANCH   5   9
HETATM    9  N           1     -24.169  -3.674  -8.780  0.00  0.00    -0.066 N 
HETATM   10  H           1     -24.462  -3.504  -7.790  0.00  0.00     0.275 HD
HETATM   11  H           1     -24.577  -2.935  -9.395  0.00  0.00     0.275 HD
HETATM   12  H           1     -24.511  -4.613  -9.086  0.00  0.00     0.275 HD
ENDBRANCH   5   9
ENDBRANCH   2   5
BRANCH   1  13
HETATM   13  C           1     -22.493  -3.115 -12.665  0.00  0.00     0.235 C 
BRANCH  13  14
HETATM   14  C           1     -23.711  -3.013 -13.550  0.00  0.00     0.191 C 
HETATM   15  O           1     -23.585  -3.034 -14.793  0.00  0.00    -0.647 OA
HETATM   16  O           1     -24.847  -2.908 -13.039  0.00  0.00    -0.647 OA
ENDBRANCH  13  14
ENDBRANCH   1  13
TORSDOF 6
ENDMDL
MODEL 3
REMARK VINA RESULT:      -4.8      3.341      5.320
REMARK  6 active torsions:
REMARK  status: ('A' for Active; 'I' for Inactive)
REMARK    1  A    between atoms: C_5  and  C_13 
REMARK    2  A    between atoms: C_5  and  N_6 
REMARK       I    between atoms: N_6  and  C_7 
REMARK    3  A    between atoms: C_7  and  C_8 
REMARK    4  A    between atoms: C_8  and  C_9 
REMARK    5  A    between atoms: C_8  and  N_11 
REMARK    6  A    between atoms: C_9  and  S_10 
ROOT
HETATM    1  N           1     -22.645  -3.810  -9.738  0.00  0.00    -0.349 N 
HETATM    2  C           1     -23.399  -3.233 -10.723  0.00  0.00     0.249 C 
HETATM    3  O           1     -24.571  -3.013 -10.536  0.00  0.00    -0.271 OA
HETATM    4  H           1     -21.662  -3.995  -9.894  0.00  0.00     0.163 HD
ENDROOT
BRANCH   2   5
HETATM    5  C           1     -22.766  -2.874 -12.045  0.00  0.00     0.283 C 
BRANCH   5   6
HETATM    6  C           1     -23.833  -2.849 -13.130  0.00  0.00     0.113 C 
BRANCH   6   7
HETATM    7  S           1     -23.068  -2.430 -14.722  0.00  0.00    -0.180 SA
HETATM    8  H           1     -24.005  -3.019 -15.488  0.00  0.00     0.101 HD
ENDBRANCH   6   7
ENDBRANCH   5   6
BRANCH   5   9
HETATM    9  N           1     -21.723  -3.895 -12.393  0.00  0.00    -0.066 N 
HETATM   10  H           1     -21.457  -3.793 -13.399  0.00  0.00     0.275 HD
HETATM   11  H           1     -20.880  -3.749 -11.794  0.00  0.00     0.275 HD
HETATM   12  H           1     -22.106  -4.853 -12.231  0.00  0.00     0.275 HD
ENDBRANCH   5   9
ENDBRANCH   2   5
BRANCH   1  13
HETATM   13  C           1     -23.252  -4.156  -8.468  0.00  0.00     0.235 C 
BRANCH  13  14
HETATM   14  C           1     -22.188  -4.227  -7.401  0.00  0.00     0.191 C 
HETATM   15  O           1     -22.065  -5.260  -6.709  0.00  0.00    -0.647 OA
HETATM   16  O           1     -21.428  -3.253  -7.210  0.00  0.00    -0.647 OA
ENDBRANCH  13  14
ENDBRANCH   1  13
TORSDOF 6
ENDMDL
MODEL 4
REMARK VINA RESULT:      -4.7      9.576     10.324
REMARK  6 active torsions:
REMARK  status: ('A' for Active; 'I' for Inactive)
REMARK    1  A    between atoms: C_5  and  C_13 
REMARK    2  A    between atoms: C_5  and  N_6 
REMARK       I    between atoms: N_6  and  C_7 
REMARK    3  A    between atoms: C_7  and  C_8 
REMARK    4  A    between atoms: C_8  and  C_9 
REMARK    5  A    between atoms: C_8  and  N_11 
REMARK    6  A    between atoms: C_9  and  S_10 
ROOT
HETATM    1  N           1     -27.353  -6.996 -19.780  0.00  0.00    -0.349 N 
HETATM    2  C           1     -27.959  -6.529 -18.645  0.00  0.00     0.249 C 
HETATM    3  O           1     -27.327  -5.882 -17.846  0.00  0.00    -0.271 OA
HETATM    4  H           1     -27.882  -7.539 -20.451  0.00  0.00     0.163 HD
ENDROOT
BRANCH   2   5
HETATM    5  C           1     -29.417  -6.825 -18.393  0.00  0.00     0.283 C 
BRANCH   5   6
HETATM    6  C           1     -29.763  -6.483 -16.950  0.00  0.00     0.113 C 
BRANCH   6   7
HETATM    7  S           1     -31.180  -5.349 -16.920  0.00  0.00    -0.180 SA
HETATM    8  H           1     -30.723  -4.527 -17.882  0.00  0.00     0.101 HD
ENDBRANCH   6   7
ENDBRANCH   5   6
BRANCH   5   9
HETATM    9  N           1     -29.681  -8.282 -18.637  0.00  0.00    -0.066 N 
HETATM   10  H           1     -29.516  -8.819 -17.756  0.00  0.00     0.275 HD
HETATM   11  H           1     -30.672  -8.409 -18.942  0.00  0.00     0.275 HD
HETATM   12  H           1     -29.037  -8.631 -19.383  0.00  0.00     0.275 HD
ENDBRANCH   5   9
ENDBRANCH   2   5
BRANCH   1  13
HETATM   13  C           1     -25.952  -6.712 -20.024  0.00  0.00     0.235 C 
BRANCH  13  14
HETATM   14  C           1     -25.362  -7.794 -20.895  0.00  0.00     0.191 C 
HETATM   15  O           1     -24.122  -7.917 -20.983  0.00  0.00    -0.647 OA
HETATM   16  O           1     -26.114  -8.566 -21.528  0.00  0.00    -0.647 OA
ENDBRANCH  13  14
ENDBRANCH   1  13
TORSDOF 6
ENDMDL
MODEL 5
REMARK VINA RESULT:      -4.7      3.641      5.681
REMARK  6 active torsions:
REMARK  status: ('A' for Active; 'I' for Inactive)
REMARK    1  A    between atoms: C_5  and  C_13 
REMARK    2  A    between atoms: C_5  and  N_6 
REMARK       I    between atoms: N_6  and  C_7 
REMARK    3  A    between atoms: C_7  and  C_8 
REMARK    4  A    between atoms: C_8  and  C_9 
REMARK    5  A    between atoms: C_8  and  N_11 
REMARK    6  A    between atoms: C_9  and  S_10 
ROOT
HETATM    1  N           1     -22.875  -4.114  -8.180  0.00  0.00    -0.349 N 
HETATM    2  C           1     -22.744  -4.312  -9.527  0.00  0.00     0.249 C 
HETATM    3  O           1     -21.650  -4.472 -10.011  0.00  0.00    -0.271 OA
HETATM    4  H           1     -23.793  -3.979  -7.774  0.00  0.00     0.163 HD
ENDROOT
BRANCH   2   5
HETATM    5  C           1     -23.968  -4.329 -10.409  0.00  0.00     0.283 C 
BRANCH   5   6
HETATM    6  C           1     -24.016  -3.053 -11.239  0.00  0.00     0.113 C 
BRANCH   6   7
HETATM    7  S           1     -23.648  -3.445 -12.973  0.00  0.00    -0.180 SA
HETATM    8  H           1     -24.501  -2.549 -13.503  0.00  0.00     0.101 HD
ENDBRANCH   6   7
ENDBRANCH   5   6
BRANCH   5   9
HETATM    9  N           1     -25.199  -4.415  -9.555  0.00  0.00    -0.066 N 
HETATM   10  H           1     -26.021  -4.052 -10.089  0.00  0.00     0.275 HD
HETATM   11  H           1     -25.369  -5.411  -9.289  0.00  0.00     0.275 HD
HETATM   12  H           1     -25.064  -3.840  -8.693  0.00  0.00     0.275 HD
ENDBRANCH   5   9
ENDBRANCH   2   5
BRANCH   1  13
HETATM   13  C           1     -21.699  -4.097  -7.331  0.00  0.00     0.235 C 
BRANCH  13  14
HETATM   14  C           1     -21.568  -5.423  -6.624  0.00  0.00     0.191 C 
HETATM   15  O           1     -22.074  -5.581  -5.492  0.00  0.00    -0.647 OA
HETATM   16  O           1     -20.953  -6.364  -7.171  0.00  0.00    -0.647 OA
ENDBRANCH  13  14
ENDBRANCH   1  13
TORSDOF 6
ENDMDL
MODEL 6
REMARK VINA RESULT:      -4.5     10.080     10.585
REMARK  6 active torsions:
REMARK  status: ('A' for Active; 'I' for Inactive)
REMARK    1  A    between atoms: C_5  and  C_13 
REMARK    2  A    between atoms: C_5  and  N_6 
REMARK       I    between atoms: N_6  and  C_7 
REMARK    3  A    between atoms: C_7  and  C_8 
REMARK    4  A    between atoms: C_8  and  C_9 
REMARK    5  A    between atoms: C_8  and  N_11 
REMARK    6  A    between atoms: C_9  and  S_10 
ROOT
HETATM    1  N           1     -33.294  -4.436 -15.300  0.00  0.00    -0.349 N 
HETATM    2  C           1     -34.113  -3.695 -14.492  0.00  0.00     0.249 C 
HETATM    3  O           1     -34.753  -2.783 -14.955  0.00  0.00    -0.271 OA
HETATM    4  H           1     -32.757  -5.201 -14.912  0.00  0.00     0.163 HD
ENDROOT
BRANCH   2   5
HETATM    5  C           1     -34.215  -4.019 -13.022  0.00  0.00     0.283 C 
BRANCH   5   6
HETATM    6  C           1     -34.718  -2.797 -12.266  0.00  0.00     0.113 C 
BRANCH   6   7
HETATM    7  S           1     -33.615  -2.454 -10.865  0.00  0.00    -0.180 SA
HETATM    8  H           1     -34.283  -1.374 -10.421  0.00  0.00     0.101 HD
ENDBRANCH   6   7
ENDBRANCH   5   6
BRANCH   5   9
HETATM    9  N           1     -32.862  -4.407 -12.500  0.00  0.00    -0.066 N 
HETATM   10  H           1     -32.183  -3.633 -12.682  0.00  0.00     0.275 HD
HETATM   11  H           1     -32.924  -4.581 -11.472  0.00  0.00     0.275 HD
HETATM   12  H           1     -32.539  -5.274 -12.984  0.00  0.00     0.275 HD
ENDBRANCH   5   9
ENDBRANCH   2   5
BRANCH   1  13
HETATM   13  C           1     -33.195  -4.126 -16.713  0.00  0.00     0.235 C 
BRANCH  13  14
HETATM   14  C           1     -31.742  -4.022 -17.106  0.00  0.00     0.191 C 
HETATM   15  O           1     -30.968  -4.981 -16.899  0.00  0.00    -0.647 OA
HETATM   16  O           1     -31.313  -2.975 -17.639  0.00  0.00    -0.647 OA
ENDBRANCH  13  14
ENDBRANCH   1  13
TORSDOF 6
ENDMDL
MODEL 7
REMARK VINA RESULT:      -4.4      3.988      5.819
REMARK  6 active torsions:
REMARK  status: ('A' for Active; 'I' for Inactive)
REMARK    1  A    between atoms: C_5  and  C_13 
REMARK    2  A    between atoms: C_5  and  N_6 
REMARK       I    between atoms: N_6  and  C_7 
REMARK    3  A    between atoms: C_7  and  C_8 
REMARK    4  A    between atoms: C_8  and  C_9 
REMARK    5  A    between atoms: C_8  and  N_11 
REMARK    6  A    between atoms: C_9  and  S_10 
ROOT
HETATM    1  N           1     -21.679  -4.359  -9.144  0.00  0.00    -0.349 N 
HETATM    2  C           1     -21.198  -4.149 -10.408  0.00  0.00     0.249 C 
HETATM    3  O           1     -20.216  -4.741 -10.787  0.00  0.00    -0.271 OA
HETATM    4  H           1     -22.503  -3.864  -8.827  0.00  0.00     0.163 HD
ENDROOT
BRANCH   2   5
HETATM    5  C           1     -21.895  -3.177 -11.328  0.00  0.00     0.283 C 
BRANCH   5   6
HETATM    6  C           1     -23.391  -3.189 -11.041  0.00  0.00     0.113 C 
BRANCH   6   7
HETATM    7  S           1     -24.308  -3.046 -12.602  0.00  0.00    -0.180 SA
HETATM    8  H           1     -25.449  -3.595 -12.145  0.00  0.00     0.101 HD
ENDBRANCH   6   7
ENDBRANCH   5   6
BRANCH   5   9
HETATM    9  N           1     -21.657  -3.581 -12.754  0.00  0.00    -0.066 N 
HETATM   10  H           1     -22.566  -3.588 -13.271  0.00  0.00     0.275 HD
HETATM   11  H           1     -21.006  -2.899 -13.204  0.00  0.00     0.275 HD
HETATM   12  H           1     -21.236  -4.536 -12.779  0.00  0.00     0.275 HD
ENDBRANCH   5   9
ENDBRANCH   2   5
BRANCH   1  13
HETATM   13  C           1     -21.010  -5.293  -8.259  0.00  0.00     0.235 C 
BRANCH  13  14
HETATM   14  C           1     -20.122  -4.535  -7.304  0.00  0.00     0.191 C 
HETATM   15  O           1     -20.570  -4.159  -6.199  0.00  0.00    -0.647 OA
HETATM   16  O           1     -18.939  -4.282  -7.617  0.00  0.00    -0.647 OA
ENDBRANCH  13  14
ENDBRANCH   1  13
TORSDOF 6
ENDMDL
MODEL 8
REMARK VINA RESULT:      -4.3      4.208      6.331
REMARK  6 active torsions:
REMARK  status: ('A' for Active; 'I' for Inactive)
REMARK    1  A    between atoms: C_5  and  C_13 
REMARK    2  A    between atoms: C_5  and  N_6 
REMARK       I    between atoms: N_6  and  C_7 
REMARK    3  A    between atoms: C_7  and  C_8 
REMARK    4  A    between atoms: C_8  and  C_9 
REMARK    5  A    between atoms: C_8  and  N_11 
REMARK    6  A    between atoms: C_9  and  S_10 
ROOT
HETATM    1  N           1     -22.126  -4.649  -7.233  0.00  0.00    -0.349 N 
HETATM    2  C           1     -21.950  -4.558  -8.587  0.00  0.00     0.249 C 
HETATM    3  O           1     -20.845  -4.667  -9.061  0.00  0.00    -0.271 OA
HETATM    4  H           1     -23.052  -4.558  -6.835  0.00  0.00     0.163 HD
ENDROOT
BRANCH   2   5
HETATM    5  C           1     -23.137  -4.323  -9.487  0.00  0.00     0.283 C 
BRANCH   5   6
HETATM    6  C           1     -22.709  -3.485 -10.685  0.00  0.00     0.113 C 
BRANCH   6   7
HETATM    7  S           1     -24.123  -3.253 -11.799  0.00  0.00    -0.180 SA
HETATM    8  H           1     -23.474  -2.486 -12.693  0.00  0.00     0.101 HD
ENDBRANCH   6   7
ENDBRANCH   5   6
BRANCH   5   9
HETATM    9  N           1     -24.206  -3.595  -8.725  0.00  0.00    -0.066 N 
HETATM   10  H           1     -25.060  -4.195  -8.664  0.00  0.00     0.275 HD
HETATM   11  H           1     -23.862  -3.381  -7.763  0.00  0.00     0.275 HD
HETATM   12  H           1     -24.441  -2.706  -9.220  0.00  0.00     0.275 HD
ENDBRANCH   5   9
ENDBRANCH   2   5
BRANCH   1  13
HETATM   13  C           1     -20.986  -4.875  -6.366  0.00  0.00     0.235 C 
BRANCH  13  14
HETATM   14  C           1     -20.862  -6.349  -6.069  0.00  0.00     0.191 C 
HETATM   15  O           1     -19.870  -6.988  -6.479  0.00  0.00    -0.647 OA
HETATM   16  O           1     -21.753  -6.931  -5.413  0.00  0.00    -0.647 OA
ENDBRANCH  13  14
ENDBRANCH   1  13
TORSDOF 6
ENDMDL
MODEL 9
REMARK VINA RESULT:      -4.1      3.155      4.343
REMARK  6 active torsions:
REMARK  status: ('A' for Active; 'I' for Inactive)
REMARK    1  A    between atoms: C_5  and  C_13 
REMARK    2  A    between atoms: C_5  and  N_6 
REMARK       I    between atoms: N_6  and  C_7 
REMARK    3  A    between atoms: C_7  and  C_8 
REMARK    4  A    between atoms: C_8  and  C_9 
REMARK    5  A    between atoms: C_8  and  N_11 
REMARK    6  A    between atoms: C_9  and  S_10 
ROOT
HETATM    1  N           1     -22.853  -4.549  -8.186  0.00  0.00    -0.349 N 
HETATM    2  C           1     -21.530  -4.745  -7.892  0.00  0.00     0.249 C 
HETATM    3  O           1     -20.691  -4.022  -8.373  0.00  0.00    -0.271 OA
HETATM    4  H           1     -23.556  -5.154  -7.783  0.00  0.00     0.163 HD
ENDROOT
BRANCH   2   5
HETATM    5  C           1     -21.122  -5.864  -6.967  0.00  0.00     0.283 C 
BRANCH   5   6
HETATM    6  C           1     -21.113  -5.360  -5.531  0.00  0.00     0.113 C 
BRANCH   6   7
HETATM    7  S           1     -21.773  -6.646  -4.433  0.00  0.00    -0.180 SA
HETATM    8  H           1     -22.454  -7.309  -5.386  0.00  0.00     0.101 HD
ENDBRANCH   6   7
ENDBRANCH   5   6
BRANCH   5   9
HETATM    9  N           1     -19.748  -6.342  -7.337  0.00  0.00    -0.066 N 
HETATM   10  H           1     -19.718  -7.386  -7.295  0.00  0.00     0.275 HD
HETATM   11  H           1     -19.519  -6.026  -8.306  0.00  0.00     0.275 HD
HETATM   12  H           1     -19.051  -5.947  -6.666  0.00  0.00     0.275 HD
ENDBRANCH   5   9
ENDBRANCH   2   5
BRANCH   1  13
HETATM   13  C           1     -23.246  -3.473  -9.075  0.00  0.00     0.235 C 
BRANCH  13  14
HETATM   14  C           1     -24.143  -4.017 -10.160  0.00  0.00     0.191 C 
HETATM   15  O           1     -25.028  -3.292 -10.661  0.00  0.00    -0.647 OA
HETATM   16  O           1     -24.000  -5.194 -10.556  0.00  0.00    -0.647 OA
ENDBRANCH  13  14
ENDBRANCH   1  13
TORSDOF 6
ENDMDL
