MODEL 1
REMARK VINA RESULT:      -7.4      0.000      0.000
REMARK  6 active torsions:
REMARK  status: ('A' for Active; 'I' for Inactive)
REMARK    1  A    between atoms: C_2  and  C_17 
REMARK       I    between atoms: C_4  and  N_11 
REMARK    2  A    between atoms: C_4  and  C_5 
REMARK    3  A    between atoms: C_5  and  C_13 
REMARK    4  A    between atoms: C_5  and  N_19 
REMARK    5  A    between atoms: N_11  and  C_17 
REMARK    6  A    between atoms: C_13  and  C_16 
ROOT
HETATM    1  C           1     -23.478  -3.451 -10.081  0.00  0.00     0.278 C 
ENDROOT
BRANCH   1   2
HETATM    2  C           1     -24.054  -3.428 -11.475  0.00  0.00     0.249 C 
HETATM    3  N           1     -23.290  -3.829 -12.539  0.00  0.00    -0.349 N 
HETATM    4  H           1     -22.339  -4.139 -12.390  0.00  0.00     0.163 HD
HETATM    5  O           1     -25.190  -3.057 -11.654  0.00  0.00    -0.271 OA
BRANCH   3   6
HETATM    6  C           1     -23.844  -3.808 -13.879  0.00  0.00     0.235 C 
BRANCH   6   7
HETATM    7  C           1     -23.331  -2.596 -14.617  0.00  0.00     0.191 C 
HETATM    8  O           1     -23.899  -1.492 -14.477  0.00  0.00    -0.647 OA
HETATM    9  O           1     -22.337  -2.698 -15.369  0.00  0.00    -0.647 OA
ENDBRANCH   6   7
ENDBRANCH   3   6
ENDBRANCH   1   2
BRANCH   1  10
HETATM   10  C           1     -22.855  -4.813  -9.810  0.00  0.00     0.081 C 
BRANCH  10  11
HETATM   11  C           1     -21.780  -4.675  -8.779  0.00  0.00    -0.056 A 
HETATM   12  C           1     -20.489  -4.308  -9.161  0.00  0.00     0.007 A 
HETATM   13  C           1     -19.487  -4.179  -8.199  0.00  0.00     0.001 A 
HETATM   14  C           1     -19.775  -4.416  -6.855  0.00  0.00     0.000 A 
HETATM   15  C           1     -21.065  -4.783  -6.474  0.00  0.00     0.001 A 
HETATM   16  C           1     -22.067  -4.912  -7.435  0.00  0.00     0.007 A 
ENDBRANCH  10  11
ENDBRANCH   1  10
BRANCH   1  17
HETATM   17  N           1     -24.571  -3.194  -9.086  0.00  0.00    -0.066 N 
HETATM   18  H           1     -25.368  -3.844  -9.270  0.00  0.00     0.275 HD
HETATM   19  H           1     -24.899  -2.206  -9.175  0.00  0.00     0.275 HD
HETATM   20  H           1     -24.207  -3.354  -8.120  0.00  0.00     0.275 HD
ENDBRANCH   1  17
TORSDOF 6
ENDMDL
MODEL 2
REMARK VINA RESULT:      -6.6      1.515      2.236
REMARK  6 active torsions:
REMARK  status: ('A' for Active; 'I' for Inactive)
REMARK    1  A    between atoms: C_2  and  C_17 
REMARK       I    between atoms: C_4  and  N_11 
REMARK    2  A    between atoms: C_4  and  C_5 
REMARK    3  A    between atoms: C_5  and  C_13 
REMARK    4  A    between atoms: C_5  and  N_19 
REMARK    5  A    between atoms: N_11  and  C_17 
REMARK    6  A    between atoms: C_13  and  C_16 
ROOT
HETATM    1  C           1     -21.349  -4.229 -10.622  0.00  0.00     0.278 C 
ENDROOT
BRANCH   1   2
HETATM    2  C           1     -22.611  -3.848 -11.355  0.00  0.00     0.249 C 
HETATM    3  N           1     -22.582  -3.641 -12.708  0.00  0.00    -0.349 N 
HETATM    4  H           1     -21.713  -3.743 -13.217  0.00  0.00     0.163 HD
HETATM    5  O           1     -23.649  -3.726 -10.748  0.00  0.00    -0.271 OA
BRANCH   3   6
HETATM    6  C           1     -23.796  -3.275 -13.412  0.00  0.00     0.235 C 
BRANCH   6   7
HETATM    7  C           1     -23.451  -2.388 -14.583  0.00  0.00     0.191 C 
HETATM    8  O           1     -22.509  -2.696 -15.344  0.00  0.00    -0.647 OA
HETATM    9  O           1     -24.108  -1.344 -14.791  0.00  0.00    -0.647 OA
ENDBRANCH   6   7
ENDBRANCH   3   6
ENDBRANCH   1   2
BRANCH   1  10
HETATM   10  C           1     -21.238  -3.412  -9.341  0.00  0.00     0.081 C 
BRANCH  10  11
HETATM   11  C           1     -20.867  -4.313  -8.205  0.00  0.00    -0.056 A 
HETATM   12  C           1     -21.673  -5.408  -7.890  0.00  0.00     0.007 A 
HETATM   13  C           1     -21.327  -6.246  -6.831  0.00  0.00     0.001 A 
HETATM   14  C           1     -20.175  -5.992  -6.087  0.00  0.00     0.000 A 
HETATM   15  C           1     -19.370  -4.898  -6.402  0.00  0.00     0.001 A 
HETATM   16  C           1     -19.716  -4.058  -7.461  0.00  0.00     0.007 A 
ENDBRANCH  10  11
ENDBRANCH   1  10
BRANCH   1  17
HETATM   17  N           1     -20.162  -3.951 -11.495  0.00  0.00    -0.066 N 
HETATM   18  H           1     -19.386  -3.561 -10.914  0.00  0.00     0.275 HD
HETATM   19  H           1     -20.426  -3.258 -12.232  0.00  0.00     0.275 HD
HETATM   20  H           1     -19.846  -4.838 -11.948  0.00  0.00     0.275 HD
ENDBRANCH   1  17
TORSDOF 6
ENDMDL
MODEL 3
REMARK VINA RESULT:      -6.6      4.592      7.483
REMARK  6 active torsions:
REMARK  status: ('A' for Active; 'I' for Inactive)
REMARK    1  A    between atoms: C_2  and  C_17 
REMARK       I    between atoms: C_4  and  N_11 
REMARK    2  A    between atoms: C_4  and  C_5 
REMARK    3  A    between atoms: C_5  and  C_13 
REMARK    4  A    between atoms: C_5  and  N_19 
REMARK    5  A    between atoms: N_11  and  C_17 
REMARK    6  A    between atoms: C_13  and  C_16 
ROOT
HETATM    1  C           1     -21.752  -4.560  -7.783  0.00  0.00     0.278 C 
ENDROOT
BRANCH   1   2
HETATM    2  C           1     -21.152  -5.674  -6.961  0.00  0.00     0.249 C 
HETATM    3  N           1     -21.627  -5.928  -5.701  0.00  0.00    -0.349 N 
HETATM    4  H           1     -22.380  -5.369  -5.322  0.00  0.00     0.163 HD
HETATM    5  O           1     -20.252  -6.341  -7.413  0.00  0.00    -0.271 OA
BRANCH   3   6
HETATM    6  C           1     -21.050  -6.999  -4.912  0.00  0.00     0.235 C 
BRANCH   6   7
HETATM    7  C           1     -21.491  -6.859  -3.476  0.00  0.00     0.191 C 
HETATM    8  O           1     -22.360  -6.015  -3.168  0.00  0.00    -0.647 OA
HETATM    9  O           1     -20.987  -7.588  -2.594  0.00  0.00    -0.647 OA
ENDBRANCH   6   7
ENDBRANCH   3   6
ENDBRANCH   1   2
BRANCH   1  10
HETATM   10  C           1     -21.077  -4.514  -9.147  0.00  0.00     0.081 C 
BRANCH  10  11
HETATM   11  C           1     -22.032  -3.963 -10.159  0.00  0.00    -0.056 A 
HETATM   12  C           1     -23.406  -4.000  -9.914  0.00  0.00     0.007 A 
HETATM   13  C           1     -24.295  -3.488 -10.858  0.00  0.00     0.001 A 
HETATM   14  C           1     -23.813  -2.937 -12.046  0.00  0.00     0.000 A 
HETATM   15  C           1     -22.440  -2.900 -12.289  0.00  0.00     0.001 A 
HETATM   16  C           1     -21.550  -3.413 -11.346  0.00  0.00     0.007 A 
ENDBRANCH  10  11
ENDBRANCH   1  10
BRANCH   1  17
HETATM   17  N           1     -21.545  -3.252  -7.078  0.00  0.00    -0.066 N 
HETATM   18  H           1     -21.100  -2.571  -7.734  0.00  0.00     0.275 HD
HETATM   19  H           1     -20.923  -3.397  -6.251  0.00  0.00     0.275 HD
HETATM   20  H           1     -22.467  -2.877  -6.760  0.00  0.00     0.275 HD
ENDBRANCH   1  17
TORSDOF 6
ENDMDL
MODEL 4
REMARK VINA RESULT:      -6.6      5.012      7.755
REMARK  6 active torsions:
REMARK  status: ('A' for Active; 'I' for Inactive)
REMARK    1  A    between atoms: C_2  and  C_17 
REMARK       I    between atoms: C_4  and  N_11 
REMARK    2  A    between atoms: C_4  and  C_5 
REMARK    3  A    between atoms: C_5  and  C_13 
REMARK    4  A    between atoms: C_5  and  N_19 
REMARK    5  A    between atoms: N_11  and  C_17 
REMARK    6  A    between atoms: C_13  and  C_16 
ROOT
HETATM    1  C           1     -22.221  -5.131  -6.837  0.00  0.00     0.278 C 
ENDROOT
BRANCH   1   2
HETATM    2  C           1     -21.376  -5.593  -5.677  0.00  0.00     0.249 C 
HETATM    3  N           1     -21.811  -6.615  -4.875  0.00  0.00    -0.349 N 
HETATM    4  H           1     -22.700  -7.060  -5.062  0.00  0.00     0.163 HD
HETATM    5  O           1     -20.314  -5.061  -5.453  0.00  0.00    -0.271 OA
BRANCH   3   6
HETATM    6  C           1     -20.997  -7.058  -3.760  0.00  0.00     0.235 C 
BRANCH   6   7
HETATM    7  C           1     -21.775  -6.903  -2.477  0.00  0.00     0.191 C 
HETATM    8  O           1     -21.769  -7.820  -1.627  0.00  0.00    -0.647 OA
HETATM    9  O           1     -22.427  -5.857  -2.264  0.00  0.00    -0.647 OA
ENDBRANCH   6   7
ENDBRANCH   3   6
ENDBRANCH   1   2
BRANCH   1  10
HETATM   10  C           1     -21.660  -3.828  -7.389  0.00  0.00     0.081 C 
BRANCH  10  11
HETATM   11  C           1     -21.600  -3.902  -8.883  0.00  0.00    -0.056 A 
HETATM   12  C           1     -20.404  -4.238  -9.518  0.00  0.00     0.007 A 
HETATM   13  C           1     -20.350  -4.306 -10.910  0.00  0.00     0.001 A 
HETATM   14  C           1     -21.490  -4.039 -11.668  0.00  0.00     0.000 A 
HETATM   15  C           1     -22.685  -3.703 -11.032  0.00  0.00     0.001 A 
HETATM   16  C           1     -22.741  -3.634  -9.640  0.00  0.00     0.007 A 
ENDBRANCH  10  11
ENDBRANCH   1  10
BRANCH   1  17
HETATM   17  N           1     -23.630  -4.911  -6.372  0.00  0.00    -0.066 N 
HETATM   18  H           1     -24.223  -4.625  -7.183  0.00  0.00     0.275 HD
HETATM   19  H           1     -23.644  -4.159  -5.647  0.00  0.00     0.275 HD
HETATM   20  H           1     -24.005  -5.796  -5.963  0.00  0.00     0.275 HD
ENDBRANCH   1  17
TORSDOF 6
ENDMDL
MODEL 5
REMARK VINA RESULT:      -6.4      5.786      8.599
REMARK  6 active torsions:
REMARK  status: ('A' for Active; 'I' for Inactive)
REMARK    1  A    between atoms: C_2  and  C_17 
REMARK       I    between atoms: C_4  and  N_11 
REMARK    2  A    between atoms: C_4  and  C_5 
REMARK    3  A    between atoms: C_5  and  C_13 
REMARK    4  A    between atoms: C_5  and  N_19 
REMARK    5  A    between atoms: N_11  and  C_17 
REMARK    6  A    between atoms: C_13  and  C_16 
ROOT
HETATM    1  C           1     -20.467  -6.144  -5.475  0.00  0.00     0.278 C 
ENDROOT
BRANCH   1   2
HETATM    2  C           1     -21.549  -6.167  -4.424  0.00  0.00     0.249 C 
HETATM    3  N           1     -21.215  -6.156  -3.096  0.00  0.00    -0.349 N 
HETATM    4  H           1     -20.241  -6.132  -2.820  0.00  0.00     0.163 HD
HETATM    5  O           1     -22.711  -6.195  -4.754  0.00  0.00    -0.271 OA
BRANCH   3   6
HETATM    6  C           1     -22.255  -6.177  -2.087  0.00  0.00     0.235 C 
BRANCH   6   7
HETATM    7  C           1     -21.975  -7.282  -1.099  0.00  0.00     0.191 C 
HETATM    8  O           1     -20.934  -7.966  -1.205  0.00  0.00    -0.647 OA
HETATM    9  O           1     -22.784  -7.514  -0.174  0.00  0.00    -0.647 OA
ENDBRANCH   6   7
ENDBRANCH   3   6
ENDBRANCH   1   2
BRANCH   1  10
HETATM   10  C           1     -20.177  -4.703  -5.876  0.00  0.00     0.081 C 
BRANCH  10  11
HETATM   11  C           1     -20.686  -4.458  -7.262  0.00  0.00    -0.056 A 
HETATM   12  C           1     -19.843  -4.647  -8.358  0.00  0.00     0.007 A 
HETATM   13  C           1     -20.318  -4.417  -9.649  0.00  0.00     0.001 A 
HETATM   14  C           1     -21.634  -4.000  -9.846  0.00  0.00     0.000 A 
HETATM   15  C           1     -22.476  -3.811  -8.749  0.00  0.00     0.001 A 
HETATM   16  C           1     -22.002  -4.040  -7.458  0.00  0.00     0.007 A 
ENDBRANCH  10  11
ENDBRANCH   1  10
BRANCH   1  17
HETATM   17  N           1     -20.923  -6.915  -6.678  0.00  0.00    -0.066 N 
HETATM   18  H           1     -20.307  -6.688  -7.491  0.00  0.00     0.275 HD
HETATM   19  H           1     -21.909  -6.654  -6.906  0.00  0.00     0.275 HD
HETATM   20  H           1     -20.871  -7.938  -6.477  0.00  0.00     0.275 HD
ENDBRANCH   1  17
TORSDOF 6
ENDMDL
MODEL 6
REMARK VINA RESULT:      -6.2      3.465      5.256
REMARK  6 active torsions:
REMARK  status: ('A' for Active; 'I' for Inactive)
REMARK    1  A    between atoms: C_2  and  C_17 
REMARK       I    between atoms: C_4  and  N_11 
REMARK    2  A    between atoms: C_4  and  C_5 
REMARK    3  A    between atoms: C_5  and  C_13 
REMARK    4  A    between atoms: C_5  and  N_19 
REMARK    5  A    between atoms: N_11  and  C_17 
REMARK    6  A    between atoms: C_13  and  C_16 
ROOT
HETATM    1  C           1     -21.103  -5.627  -6.799  0.00  0.00     0.278 C 
ENDROOT
BRANCH   1   2
HETATM    2  C           1     -21.731  -4.444  -7.492  0.00  0.00     0.249 C 
HETATM    3  N           1     -22.519  -4.635  -8.596  0.00  0.00    -0.349 N 
HETATM    4  H           1     -22.679  -5.571  -8.947  0.00  0.00     0.163 HD
HETATM    5  O           1     -21.540  -3.326  -7.074  0.00  0.00    -0.271 OA
BRANCH   3   6
HETATM    6  C           1     -23.123  -3.498  -9.262  0.00  0.00     0.235 C 
BRANCH   6   7
HETATM    7  C           1     -24.510  -3.865  -9.728  0.00  0.00     0.191 C 
HETATM    8  O           1     -25.362  -2.972  -9.922  0.00  0.00    -0.647 OA
HETATM    9  O           1     -24.808  -5.065  -9.918  0.00  0.00    -0.647 OA
ENDBRANCH   6   7
ENDBRANCH   3   6
ENDBRANCH   1   2
BRANCH   1  10
HETATM   10  C           1     -20.707  -5.235  -5.381  0.00  0.00     0.081 C 
BRANCH  10  11
HETATM   11  C           1     -21.044  -6.349  -4.442  0.00  0.00    -0.056 A 
HETATM   12  C           1     -21.121  -7.660  -4.913  0.00  0.00     0.007 A 
HETATM   13  C           1     -21.436  -8.699  -4.037  0.00  0.00     0.001 A 
HETATM   14  C           1     -21.674  -8.428  -2.690  0.00  0.00     0.000 A 
HETATM   15  C           1     -21.598  -7.117  -2.219  0.00  0.00     0.001 A 
HETATM   16  C           1     -21.283  -6.078  -3.095  0.00  0.00     0.007 A 
ENDBRANCH  10  11
ENDBRANCH   1  10
BRANCH   1  17
HETATM   17  N           1     -19.883  -6.060  -7.556  0.00  0.00    -0.066 N 
HETATM   18  H           1     -20.086  -6.043  -8.581  0.00  0.00     0.275 HD
HETATM   19  H           1     -19.620  -7.029  -7.269  0.00  0.00     0.275 HD
HETATM   20  H           1     -19.093  -5.409  -7.347  0.00  0.00     0.275 HD
ENDBRANCH   1  17
TORSDOF 6
ENDMDL
MODEL 7
REMARK VINA RESULT:      -6.2      4.115      6.040
REMARK  6 active torsions:
REMARK  status: ('A' for Active; 'I' for Inactive)
REMARK    1  A    between atoms: C_2  and  C_17 
REMARK       I    between atoms: C_4  and  N_11 
REMARK    2  A    between atoms: C_4  and  C_5 
REMARK    3  A    between atoms: C_5  and  C_13 
REMARK    4  A    between atoms: C_5  and  N_19 
REMARK    5  A    between atoms: N_11  and  C_17 
REMARK    6  A    between atoms: C_13  and  C_16 
ROOT
HETATM    1  C           1     -21.735  -6.051  -5.681  0.00  0.00     0.278 C 
ENDROOT
BRANCH   1   2
HETATM    2  C           1     -21.774  -4.899  -6.652  0.00  0.00     0.249 C 
HETATM    3  N           1     -22.785  -4.811  -7.572  0.00  0.00    -0.349 N 
HETATM    4  H           1     -23.506  -5.521  -7.600  0.00  0.00     0.163 HD
HETATM    5  O           1     -20.913  -4.051  -6.620  0.00  0.00    -0.271 OA
BRANCH   3   6
HETATM    6  C           1     -22.822  -3.702  -8.506  0.00  0.00     0.235 C 
BRANCH   6   7
HETATM    7  C           1     -24.017  -3.851  -9.415  0.00  0.00     0.191 C 
HETATM    8  O           1     -24.863  -2.934  -9.490  0.00  0.00    -0.647 OA
HETATM    9  O           1     -24.160  -4.891 -10.094  0.00  0.00    -0.647 OA
ENDBRANCH   6   7
ENDBRANCH   3   6
ENDBRANCH   1   2
BRANCH   1  10
HETATM   10  C           1     -20.835  -5.696  -4.505  0.00  0.00     0.081 C 
BRANCH  10  11
HETATM   11  C           1     -21.208  -6.529  -3.320  0.00  0.00    -0.056 A 
HETATM   12  C           1     -22.015  -5.992  -2.315  0.00  0.00     0.007 A 
HETATM   13  C           1     -22.362  -6.770  -1.210  0.00  0.00     0.001 A 
HETATM   14  C           1     -21.904  -8.083  -1.109  0.00  0.00     0.000 A 
HETATM   15  C           1     -21.098  -8.619  -2.114  0.00  0.00     0.001 A 
HETATM   16  C           1     -20.750  -7.843  -3.218  0.00  0.00     0.007 A 
ENDBRANCH  10  11
ENDBRANCH   1  10
BRANCH   1  17
HETATM   17  N           1     -21.196  -7.269  -6.372  0.00  0.00    -0.066 N 
HETATM   18  H           1     -21.433  -7.225  -7.389  0.00  0.00     0.275 HD
HETATM   19  H           1     -21.622  -8.125  -5.952  0.00  0.00     0.275 HD
HETATM   20  H           1     -20.158  -7.304  -6.257  0.00  0.00     0.275 HD
ENDBRANCH   1  17
TORSDOF 6
ENDMDL
MODEL 8
REMARK VINA RESULT:      -6.2      6.760      9.608
REMARK  6 active torsions:
REMARK  status: ('A' for Active; 'I' for Inactive)
REMARK    1  A    between atoms: C_2  and  C_17 
REMARK       I    between atoms: C_4  and  N_11 
REMARK    2  A    between atoms: C_4  and  C_5 
REMARK    3  A    between atoms: C_5  and  C_13 
REMARK    4  A    between atoms: C_5  and  N_19 
REMARK    5  A    between atoms: N_11  and  C_17 
REMARK    6  A    between atoms: C_13  and  C_16 
ROOT
HETATM    1  C           1     -21.308  -7.116  -4.346  0.00  0.00     0.278 C 
ENDROOT
BRANCH   1   2
HETATM    2  C           1     -21.607  -6.942  -2.878  0.00  0.00     0.249 C 
HETATM    3  N           1     -21.241  -7.912  -1.984  0.00  0.00    -0.349 N 
HETATM    4  H           1     -20.770  -8.747  -2.309  0.00  0.00     0.163 HD
HETATM    5  O           1     -22.170  -5.945  -2.491  0.00  0.00    -0.271 OA
BRANCH   3   6
HETATM    6  C           1     -21.528  -7.744  -0.573  0.00  0.00     0.235 C 
BRANCH   6   7
HETATM    7  C           1     -22.704  -8.609  -0.192  0.00  0.00     0.191 C 
HETATM    8  O           1     -22.875  -9.713  -0.752  0.00  0.00    -0.647 OA
HETATM    9  O           1     -23.507  -8.221   0.684  0.00  0.00    -0.647 OA
ENDBRANCH   6   7
ENDBRANCH   3   6
ENDBRANCH   1   2
BRANCH   1  10
HETATM   10  C           1     -22.269  -6.265  -5.166  0.00  0.00     0.081 C 
BRANCH  10  11
HETATM   11  C           1     -21.497  -5.461  -6.165  0.00  0.00    -0.056 A 
HETATM   12  C           1     -22.171  -4.662  -7.089  0.00  0.00     0.007 A 
HETATM   13  C           1     -21.451  -3.914  -8.020  0.00  0.00     0.001 A 
HETATM   14  C           1     -20.057  -3.963  -8.027  0.00  0.00     0.000 A 
HETATM   15  C           1     -19.383  -4.762  -7.103  0.00  0.00     0.001 A 
HETATM   16  C           1     -20.103  -5.511  -6.172  0.00  0.00     0.007 A 
ENDBRANCH  10  11
ENDBRANCH   1  10
BRANCH   1  17
HETATM   17  N           1     -21.474  -8.559  -4.722  0.00  0.00    -0.066 N 
HETATM   18  H           1     -22.491  -8.781  -4.808  0.00  0.00     0.275 HD
HETATM   19  H           1     -21.047  -9.162  -3.983  0.00  0.00     0.275 HD
HETATM   20  H           1     -20.999  -8.739  -5.635  0.00  0.00     0.275 HD
ENDBRANCH   1  17
TORSDOF 6
ENDMDL
MODEL 9
REMARK VINA RESULT:      -6.1      6.089      8.181
REMARK  6 active torsions:
REMARK  status: ('A' for Active; 'I' for Inactive)
REMARK    1  A    between atoms: C_2  and  C_17 
REMARK       I    between atoms: C_4  and  N_11 
REMARK    2  A    between atoms: C_4  and  C_5 
REMARK    3  A    between atoms: C_5  and  C_13 
REMARK    4  A    between atoms: C_5  and  N_19 
REMARK    5  A    between atoms: N_11  and  C_17 
REMARK    6  A    between atoms: C_13  and  C_16 
ROOT
HETATM    1  C           1     -21.590  -8.184  -4.415  0.00  0.00     0.278 C 
ENDROOT
BRANCH   1   2
HETATM    2  C           1     -21.583  -6.765  -4.924  0.00  0.00     0.249 C 
HETATM    3  N           1     -20.409  -6.189  -5.334  0.00  0.00    -0.349 N 
HETATM    4  H           1     -19.546  -6.717  -5.294  0.00  0.00     0.163 HD
HETATM    5  O           1     -22.612  -6.135  -4.972  0.00  0.00    -0.271 OA
BRANCH   3   6
HETATM    6  C           1     -20.403  -4.825  -5.824  0.00  0.00     0.235 C 
BRANCH   6   7
HETATM    7  C           1     -20.144  -4.826  -7.310  0.00  0.00     0.191 C 
HETATM    8  O           1     -20.052  -3.744  -7.930  0.00  0.00    -0.647 OA
HETATM    9  O           1     -20.023  -5.909  -7.923  0.00  0.00    -0.647 OA
ENDBRANCH   6   7
ENDBRANCH   3   6
ENDBRANCH   1   2
BRANCH   1  10
HETATM   10  C           1     -20.692  -8.290  -3.189  0.00  0.00     0.081 C 
BRANCH  10  11
HETATM   11  C           1     -21.536  -8.384  -1.958  0.00  0.00    -0.056 A 
HETATM   12  C           1     -22.009  -9.625  -1.529  0.00  0.00     0.007 A 
HETATM   13  C           1     -22.797  -9.711  -0.381  0.00  0.00     0.001 A 
HETATM   14  C           1     -23.112  -8.559   0.339  0.00  0.00     0.000 A 
HETATM   15  C           1     -22.639  -7.319  -0.091  0.00  0.00     0.001 A 
HETATM   16  C           1     -21.852  -7.231  -1.238  0.00  0.00     0.007 A 
ENDBRANCH  10  11
ENDBRANCH   1  10
BRANCH   1  17
HETATM   17  N           1     -21.081  -9.102  -5.487  0.00  0.00    -0.066 N 
HETATM   18  H           1     -20.049  -8.979  -5.589  0.00  0.00     0.275 HD
HETATM   19  H           1     -21.551  -8.875  -6.392  0.00  0.00     0.275 HD
HETATM   20  H           1     -21.289 -10.092  -5.226  0.00  0.00     0.275 HD
ENDBRANCH   1  17
TORSDOF 6
ENDMDL
