MODEL 1
REMARK VINA RESULT:      -6.4      0.000      0.000
REMARK  7 active torsions:
REMARK  status: ('A' for Active; 'I' for Inactive)
REMARK       I    between atoms: C_1  and  N_7 
REMARK    1  A    between atoms: C_1  and  C_9 
REMARK    2  A    between atoms: N_7  and  C_17 
REMARK    3  A    between atoms: C_9  and  N_10 
REMARK    4  A    between atoms: C_11  and  C_17 
REMARK    5  A    between atoms: C_13  and  C_15 
REMARK    6  A    between atoms: C_15  and  C_16 
REMARK    7  A    between atoms: C_16  and  C_17 
ROOT
HETATM    1  C           1     -23.460  -2.080 -14.335  0.00  0.00     0.243 C 
HETATM    2  N           1     -23.564  -2.175 -12.973  0.00  0.00    -0.345 N 
HETATM    3  H           1     -24.048  -1.456 -12.451  0.00  0.00     0.163 HD
HETATM    4  O           1     -22.883  -2.938 -14.958  0.00  0.00    -0.272 OA
ENDROOT
BRANCH   2   5
HETATM    5  C           1     -22.980  -3.306 -12.279  0.00  0.00     0.186 C 
BRANCH   5   6
HETATM    6  C           1     -24.008  -3.913 -11.356  0.00  0.00     0.196 C 
HETATM    7  O           1     -23.911  -5.112 -11.016  0.00  0.00    -0.646 OA
HETATM    8  O           1     -24.956  -3.217 -10.931  0.00  0.00    -0.646 OA
ENDBRANCH   5   6
BRANCH   5   9
HETATM    9  C           1     -21.780  -2.836 -11.466  0.00  0.00     0.046 C 
BRANCH   9  10
HETATM   10  C           1     -20.849  -4.014 -11.208  0.00  0.00     0.116 C 
BRANCH  10  11
HETATM   11  C           1     -20.736  -4.250  -9.722  0.00  0.00     0.172 C 
HETATM   12  O           1     -21.613  -3.805  -8.950  0.00  0.00    -0.648 OA
HETATM   13  O           1     -19.766  -4.890  -9.262  0.00  0.00    -0.648 OA
ENDBRANCH  10  11
ENDBRANCH   9  10
ENDBRANCH   5   9
ENDBRANCH   2   5
BRANCH   1  14
HETATM   14  C           1     -24.067  -0.902 -15.058  0.00  0.00     0.332 C 
BRANCH  14  15
HETATM   15  N           1     -23.084  -0.365 -16.054  0.00  0.00    -0.071 N 
HETATM   16  H           1     -23.330   0.623 -16.291  0.00  0.00     0.274 HD
HETATM   17  H           1     -22.122  -0.395 -15.646  0.00  0.00     0.274 HD
HETATM   18  H           1     -23.112  -0.948 -16.921  0.00  0.00     0.274 HD
ENDBRANCH  14  15
ENDBRANCH   1  14
TORSDOF 7
ENDMDL
MODEL 2
REMARK VINA RESULT:      -6.0     12.448     14.490
REMARK  7 active torsions:
REMARK  status: ('A' for Active; 'I' for Inactive)
REMARK       I    between atoms: C_1  and  N_7 
REMARK    1  A    between atoms: C_1  and  C_9 
REMARK    2  A    between atoms: N_7  and  C_17 
REMARK    3  A    between atoms: C_9  and  N_10 
REMARK    4  A    between atoms: C_11  and  C_17 
REMARK    5  A    between atoms: C_13  and  C_15 
REMARK    6  A    between atoms: C_15  and  C_16 
REMARK    7  A    between atoms: C_16  and  C_17 
ROOT
HETATM    1  C           1     -37.239   0.081 -10.732  0.00  0.00     0.243 C 
HETATM    2  N           1     -36.060   0.208 -11.416  0.00  0.00    -0.345 N 
HETATM    3  H           1     -35.359   0.866 -11.100  0.00  0.00     0.163 HD
HETATM    4  O           1     -38.075  -0.704 -11.109  0.00  0.00    -0.272 OA
ENDROOT
BRANCH   2   5
HETATM    5  C           1     -35.817  -0.599 -12.596  0.00  0.00     0.186 C 
BRANCH   5   6
HETATM    6  C           1     -34.712  -1.588 -12.308  0.00  0.00     0.196 C 
HETATM    7  O           1     -34.021  -1.467 -11.275  0.00  0.00    -0.646 OA
HETATM    8  O           1     -34.491  -2.526 -13.104  0.00  0.00    -0.646 OA
ENDBRANCH   5   6
BRANCH   5   9
HETATM    9  C           1     -35.403   0.304 -13.751  0.00  0.00     0.046 C 
BRANCH   9  10
HETATM   10  C           1     -36.522   0.351 -14.784  0.00  0.00     0.116 C 
BRANCH  10  11
HETATM   11  C           1     -36.139  -0.489 -15.979  0.00  0.00     0.172 C 
HETATM   12  O           1     -36.965  -0.684 -16.896  0.00  0.00    -0.648 OA
HETATM   13  O           1     -34.995  -0.989 -16.050  0.00  0.00    -0.648 OA
ENDBRANCH  10  11
ENDBRANCH   9  10
ENDBRANCH   5   9
ENDBRANCH   2   5
BRANCH   1  14
HETATM   14  C           1     -37.493   0.922  -9.504  0.00  0.00     0.332 C 
BRANCH  14  15
HETATM   15  N           1     -36.200   1.152  -8.780  0.00  0.00    -0.071 N 
HETATM   16  H           1     -36.351   1.838  -8.006  0.00  0.00     0.274 HD
HETATM   17  H           1     -35.859   0.248  -8.381  0.00  0.00     0.274 HD
HETATM   18  H           1     -35.489   1.529  -9.446  0.00  0.00     0.274 HD
ENDBRANCH  14  15
ENDBRANCH   1  14
TORSDOF 7
ENDMDL
MODEL 3
REMARK VINA RESULT:      -6.0      2.965      5.819
REMARK  7 active torsions:
REMARK  status: ('A' for Active; 'I' for Inactive)
REMARK       I    between atoms: C_1  and  N_7 
REMARK    1  A    between atoms: C_1  and  C_9 
REMARK    2  A    between atoms: N_7  and  C_17 
REMARK    3  A    between atoms: C_9  and  N_10 
REMARK    4  A    between atoms: C_11  and  C_17 
REMARK    5  A    between atoms: C_13  and  C_15 
REMARK    6  A    between atoms: C_15  and  C_16 
REMARK    7  A    between atoms: C_16  and  C_17 
ROOT
HETATM    1  C           1     -21.617  -4.491  -8.076  0.00  0.00     0.243 C 
HETATM    2  N           1     -22.142  -4.799  -9.302  0.00  0.00    -0.345 N 
HETATM    3  H           1     -22.065  -5.740  -9.664  0.00  0.00     0.163 HD
HETATM    4  O           1     -21.709  -3.367  -7.644  0.00  0.00    -0.272 OA
ENDROOT
BRANCH   2   5
HETATM    5  C           1     -22.809  -3.774 -10.082  0.00  0.00     0.186 C 
BRANCH   5   6
HETATM    6  C           1     -24.295  -3.839  -9.830  0.00  0.00     0.196 C 
HETATM    7  O           1     -24.926  -2.798  -9.549  0.00  0.00    -0.646 OA
HETATM    8  O           1     -24.895  -4.933  -9.904  0.00  0.00    -0.646 OA
ENDBRANCH   5   6
BRANCH   5   9
HETATM    9  C           1     -22.533  -4.006 -11.562  0.00  0.00     0.046 C 
BRANCH   9  10
HETATM   10  C           1     -22.707  -2.697 -12.323  0.00  0.00     0.116 C 
BRANCH  10  11
HETATM   11  C           1     -23.769  -2.869 -13.382  0.00  0.00     0.172 C 
HETATM   12  O           1     -24.976  -2.900 -13.058  0.00  0.00    -0.648 OA
HETATM   13  O           1     -23.442  -2.980 -14.583  0.00  0.00    -0.648 OA
ENDBRANCH  10  11
ENDBRANCH   9  10
ENDBRANCH   5   9
ENDBRANCH   2   5
BRANCH   1  14
HETATM   14  C           1     -20.923  -5.557  -7.263  0.00  0.00     0.332 C 
BRANCH  14  15
HETATM   15  N           1     -20.278  -4.931  -6.063  0.00  0.00    -0.071 N 
HETATM   16  H           1     -20.212  -3.898  -6.201  0.00  0.00     0.274 HD
HETATM   17  H           1     -20.853  -5.133  -5.214  0.00  0.00     0.274 HD
HETATM   18  H           1     -19.319  -5.327  -5.936  0.00  0.00     0.274 HD
ENDBRANCH  14  15
ENDBRANCH   1  14
TORSDOF 7
ENDMDL
MODEL 4
REMARK VINA RESULT:      -5.7      1.668      3.046
REMARK  7 active torsions:
REMARK  status: ('A' for Active; 'I' for Inactive)
REMARK       I    between atoms: C_1  and  N_7 
REMARK    1  A    between atoms: C_1  and  C_9 
REMARK    2  A    between atoms: N_7  and  C_17 
REMARK    3  A    between atoms: C_9  and  N_10 
REMARK    4  A    between atoms: C_11  and  C_17 
REMARK    5  A    between atoms: C_13  and  C_15 
REMARK    6  A    between atoms: C_15  and  C_16 
REMARK    7  A    between atoms: C_16  and  C_17 
ROOT
HETATM    1  C           1     -23.004  -2.772 -13.601  0.00  0.00     0.243 C 
HETATM    2  N           1     -22.038  -3.427 -12.886  0.00  0.00    -0.345 N 
HETATM    3  H           1     -21.241  -3.829 -13.363  0.00  0.00     0.163 HD
HETATM    4  O           1     -23.955  -2.292 -13.032  0.00  0.00    -0.272 OA
ENDROOT
BRANCH   2   5
HETATM    5  C           1     -22.158  -3.547 -11.446  0.00  0.00     0.186 C 
BRANCH   5   6
HETATM    6  C           1     -20.803  -3.344 -10.811  0.00  0.00     0.196 C 
HETATM    7  O           1     -20.049  -2.439 -11.226  0.00  0.00    -0.646 OA
HETATM    8  O           1     -20.437  -4.081  -9.870  0.00  0.00    -0.646 OA
ENDBRANCH   5   6
BRANCH   5   9
HETATM    9  C           1     -22.681  -4.935 -11.096  0.00  0.00     0.046 C 
BRANCH   9  10
HETATM   10  C           1     -24.125  -4.828 -10.622  0.00  0.00     0.116 C 
BRANCH  10  11
HETATM   11  C           1     -24.204  -3.864  -9.464  0.00  0.00     0.172 C 
HETATM   12  O           1     -24.947  -2.861  -9.535  0.00  0.00    -0.648 OA
HETATM   13  O           1     -23.527  -4.067  -8.433  0.00  0.00    -0.648 OA
ENDBRANCH  10  11
ENDBRANCH   9  10
ENDBRANCH   5   9
ENDBRANCH   2   5
BRANCH   1  14
HETATM   14  C           1     -22.880  -2.647 -15.100  0.00  0.00     0.332 C 
BRANCH  14  15
HETATM   15  N           1     -23.237  -1.251 -15.517  0.00  0.00    -0.071 N 
HETATM   16  H           1     -22.415  -0.623 -15.373  0.00  0.00     0.274 HD
HETATM   17  H           1     -23.504  -1.247 -16.528  0.00  0.00     0.274 HD
HETATM   18  H           1     -24.041  -0.911 -14.943  0.00  0.00     0.274 HD
ENDBRANCH  14  15
ENDBRANCH   1  14
TORSDOF 7
ENDMDL
MODEL 5
REMARK VINA RESULT:      -5.6      4.184      7.134
REMARK  7 active torsions:
REMARK  status: ('A' for Active; 'I' for Inactive)
REMARK       I    between atoms: C_1  and  N_7 
REMARK    1  A    between atoms: C_1  and  C_9 
REMARK    2  A    between atoms: N_7  and  C_17 
REMARK    3  A    between atoms: C_9  and  N_10 
REMARK    4  A    between atoms: C_11  and  C_17 
REMARK    5  A    between atoms: C_13  and  C_15 
REMARK    6  A    between atoms: C_15  and  C_16 
REMARK    7  A    between atoms: C_16  and  C_17 
ROOT
HETATM    1  C           1     -21.197  -5.923  -6.220  0.00  0.00     0.243 C 
HETATM    2  N           1     -21.534  -4.784  -6.901  0.00  0.00    -0.345 N 
HETATM    3  H           1     -21.680  -3.918  -6.399  0.00  0.00     0.163 HD
HETATM    4  O           1     -21.022  -6.956  -6.820  0.00  0.00    -0.272 OA
ENDROOT
BRANCH   2   5
HETATM    5  C           1     -21.682  -4.819  -8.343  0.00  0.00     0.186 C 
BRANCH   5   6
HETATM    6  C           1     -20.389  -4.388  -8.991  0.00  0.00     0.196 C 
HETATM    7  O           1     -19.557  -3.721  -8.340  0.00  0.00    -0.646 OA
HETATM    8  O           1     -20.150  -4.699 -10.178  0.00  0.00    -0.646 OA
ENDBRANCH   5   6
BRANCH   5   9
HETATM    9  C           1     -22.800  -3.872  -8.761  0.00  0.00     0.046 C 
BRANCH   9  10
HETATM   10  C           1     -23.559  -4.470  -9.939  0.00  0.00     0.116 C 
BRANCH  10  11
HETATM   11  C           1     -24.524  -3.447 -10.486  0.00  0.00     0.172 C 
HETATM   12  O           1     -25.558  -3.156  -9.846  0.00  0.00    -0.648 OA
HETATM   13  O           1     -24.290  -2.889 -11.581  0.00  0.00    -0.648 OA
ENDBRANCH  10  11
ENDBRANCH   9  10
ENDBRANCH   5   9
ENDBRANCH   2   5
BRANCH   1  14
HETATM   14  C           1     -21.044  -5.886  -4.719  0.00  0.00     0.332 C 
BRANCH  14  15
HETATM   15  N           1     -22.335  -6.293  -4.074  0.00  0.00    -0.071 N 
HETATM   16  H           1     -22.746  -5.475  -3.571  0.00  0.00     0.274 HD
HETATM   17  H           1     -23.003  -6.620  -4.808  0.00  0.00     0.274 HD
HETATM   18  H           1     -22.158  -7.066  -3.395  0.00  0.00     0.274 HD
ENDBRANCH  14  15
ENDBRANCH   1  14
TORSDOF 7
ENDMDL
MODEL 6
REMARK VINA RESULT:      -5.2      2.190      3.324
REMARK  7 active torsions:
REMARK  status: ('A' for Active; 'I' for Inactive)
REMARK       I    between atoms: C_1  and  N_7 
REMARK    1  A    between atoms: C_1  and  C_9 
REMARK    2  A    between atoms: N_7  and  C_17 
REMARK    3  A    between atoms: C_9  and  N_10 
REMARK    4  A    between atoms: C_11  and  C_17 
REMARK    5  A    between atoms: C_13  and  C_15 
REMARK    6  A    between atoms: C_15  and  C_16 
REMARK    7  A    between atoms: C_16  and  C_17 
ROOT
HETATM    1  C           1     -22.892  -3.077 -12.641  0.00  0.00     0.243 C 
HETATM    2  N           1     -22.531  -4.180 -11.915  0.00  0.00    -0.345 N 
HETATM    3  H           1     -22.649  -5.106 -12.307  0.00  0.00     0.163 HD
HETATM    4  O           1     -22.751  -1.973 -12.173  0.00  0.00    -0.272 OA
ENDROOT
BRANCH   2   5
HETATM    5  C           1     -21.982  -4.022 -10.582  0.00  0.00     0.186 C 
BRANCH   5   6
HETATM    6  C           1     -20.507  -4.342 -10.606  0.00  0.00     0.196 C 
HETATM    7  O           1     -19.811  -4.003 -11.587  0.00  0.00    -0.646 OA
HETATM    8  O           1     -19.982  -4.944  -9.644  0.00  0.00    -0.646 OA
ENDBRANCH   5   6
BRANCH   5   9
HETATM    9  C           1     -22.693  -4.972  -9.626  0.00  0.00     0.046 C 
BRANCH   9  10
HETATM   10  C           1     -23.404  -4.167  -8.546  0.00  0.00     0.116 C 
BRANCH  10  11
HETATM   11  C           1     -22.645  -4.287  -7.247  0.00  0.00     0.172 C 
HETATM   12  O           1     -21.561  -3.684  -7.098  0.00  0.00    -0.648 OA
HETATM   13  O           1     -23.101  -4.991  -6.319  0.00  0.00    -0.648 OA
ENDBRANCH  10  11
ENDBRANCH   9  10
ENDBRANCH   5   9
ENDBRANCH   2   5
BRANCH   1  14
HETATM   14  C           1     -23.464  -3.242 -14.028  0.00  0.00     0.332 C 
BRANCH  14  15
HETATM   15  N           1     -22.402  -2.950 -15.046  0.00  0.00    -0.071 N 
HETATM   16  H           1     -22.816  -2.987 -16.004  0.00  0.00     0.274 HD
HETATM   17  H           1     -22.007  -1.998 -14.874  0.00  0.00     0.274 HD
HETATM   18  H           1     -21.640  -3.662 -14.968  0.00  0.00     0.274 HD
ENDBRANCH  14  15
ENDBRANCH   1  14
TORSDOF 7
ENDMDL
MODEL 7
REMARK VINA RESULT:      -5.1     11.976     13.697
REMARK  7 active torsions:
REMARK  status: ('A' for Active; 'I' for Inactive)
REMARK       I    between atoms: C_1  and  N_7 
REMARK    1  A    between atoms: C_1  and  C_9 
REMARK    2  A    between atoms: N_7  and  C_17 
REMARK    3  A    between atoms: C_9  and  N_10 
REMARK    4  A    between atoms: C_11  and  C_17 
REMARK    5  A    between atoms: C_13  and  C_15 
REMARK    6  A    between atoms: C_15  and  C_16 
REMARK    7  A    between atoms: C_16  and  C_17 
ROOT
HETATM    1  C           1     -36.943   0.142  -9.824  0.00  0.00     0.243 C 
HETATM    2  N           1     -36.741  -0.886 -10.704  0.00  0.00    -0.345 N 
HETATM    3  H           1     -37.350  -1.694 -10.687  0.00  0.00     0.163 HD
HETATM    4  O           1     -36.217   1.107  -9.845  0.00  0.00    -0.272 OA
ENDROOT
BRANCH   2   5
HETATM    5  C           1     -35.654  -0.818 -11.661  0.00  0.00     0.186 C 
BRANCH   5   6
HETATM    6  C           1     -36.176  -0.294 -12.977  0.00  0.00     0.196 C 
HETATM    7  O           1     -37.222  -0.769 -13.467  0.00  0.00    -0.646 OA
HETATM    8  O           1     -35.561   0.616 -13.575  0.00  0.00    -0.646 OA
ENDBRANCH   5   6
BRANCH   5   9
HETATM    9  C           1     -35.070  -2.210 -11.863  0.00  0.00     0.046 C 
BRANCH   9  10
HETATM   10  C           1     -33.816  -2.364 -11.011  0.00  0.00     0.116 C 
BRANCH  10  11
HETATM   11  C           1     -33.307  -3.781 -11.117  0.00  0.00     0.172 C 
HETATM   12  O           1     -32.387  -4.057 -11.918  0.00  0.00    -0.648 OA
HETATM   13  O           1     -33.805  -4.680 -10.404  0.00  0.00    -0.648 OA
ENDBRANCH  10  11
ENDBRANCH   9  10
ENDBRANCH   5   9
ENDBRANCH   2   5
BRANCH   1  14
HETATM   14  C           1     -38.075   0.071  -8.827  0.00  0.00     0.332 C 
BRANCH  14  15
HETATM   15  N           1     -37.554   0.382  -7.456  0.00  0.00    -0.071 N 
HETATM   16  H           1     -38.184   1.073  -6.991  0.00  0.00     0.274 HD
HETATM   17  H           1     -37.522  -0.495  -6.888  0.00  0.00     0.274 HD
HETATM   18  H           1     -36.592   0.783  -7.530  0.00  0.00     0.274 HD
ENDBRANCH  14  15
ENDBRANCH   1  14
TORSDOF 7
ENDMDL
MODEL 8
REMARK VINA RESULT:      -4.9      6.484      8.636
REMARK  7 active torsions:
REMARK  status: ('A' for Active; 'I' for Inactive)
REMARK       I    between atoms: C_1  and  N_7 
REMARK    1  A    between atoms: C_1  and  C_9 
REMARK    2  A    between atoms: N_7  and  C_17 
REMARK    3  A    between atoms: C_9  and  N_10 
REMARK    4  A    between atoms: C_11  and  C_17 
REMARK    5  A    between atoms: C_13  and  C_15 
REMARK    6  A    between atoms: C_15  and  C_16 
REMARK    7  A    between atoms: C_16  and  C_17 
ROOT
HETATM    1  C           1     -21.341  -4.704  -6.507  0.00  0.00     0.243 C 
HETATM    2  N           1     -21.957  -5.753  -5.879  0.00  0.00    -0.345 N 
HETATM    3  H           1     -22.875  -6.054  -6.180  0.00  0.00     0.163 HD
HETATM    4  O           1     -20.245  -4.345  -6.148  0.00  0.00    -0.272 OA
ENDROOT
BRANCH   2   5
HETATM    5  C           1     -21.295  -6.431  -4.782  0.00  0.00     0.186 C 
BRANCH   5   6
HETATM    6  C           1     -20.693  -7.722  -5.281  0.00  0.00     0.196 C 
HETATM    7  O           1     -21.205  -8.815  -4.959  0.00  0.00    -0.646 OA
HETATM    8  O           1     -19.682  -7.697  -6.017  0.00  0.00    -0.646 OA
ENDBRANCH   5   6
BRANCH   5   9
HETATM    9  C           1     -22.310  -6.733  -3.687  0.00  0.00     0.046 C 
BRANCH   9  10
HETATM   10  C           1     -21.840  -6.117  -2.375  0.00  0.00     0.116 C 
BRANCH  10  11
HETATM   11  C           1     -21.950  -7.141  -1.271  0.00  0.00     0.172 C 
HETATM   12  O           1     -22.888  -7.074  -0.448  0.00  0.00    -0.648 OA
HETATM   13  O           1     -21.103  -8.056  -1.180  0.00  0.00    -0.648 OA
ENDBRANCH  10  11
ENDBRANCH   9  10
ENDBRANCH   5   9
ENDBRANCH   2   5
BRANCH   1  14
HETATM   14  C           1     -22.030  -3.997  -7.649  0.00  0.00     0.332 C 
BRANCH  14  15
HETATM   15  N           1     -23.511  -4.215  -7.551  0.00  0.00    -0.071 N 
HETATM   16  H           1     -24.011  -3.329  -7.787  0.00  0.00     0.274 HD
HETATM   17  H           1     -23.797  -4.965  -8.221  0.00  0.00     0.274 HD
HETATM   18  H           1     -23.757  -4.505  -6.578  0.00  0.00     0.274 HD
ENDBRANCH  14  15
ENDBRANCH   1  14
TORSDOF 7
ENDMDL
MODEL 9
REMARK VINA RESULT:      -4.7      4.139      5.899
REMARK  7 active torsions:
REMARK  status: ('A' for Active; 'I' for Inactive)
REMARK       I    between atoms: C_1  and  N_7 
REMARK    1  A    between atoms: C_1  and  C_9 
REMARK    2  A    between atoms: N_7  and  C_17 
REMARK    3  A    between atoms: C_9  and  N_10 
REMARK    4  A    between atoms: C_11  and  C_17 
REMARK    5  A    between atoms: C_13  and  C_15 
REMARK    6  A    between atoms: C_15  and  C_16 
REMARK    7  A    between atoms: C_16  and  C_17 
ROOT
HETATM    1  C           1     -22.969  -4.170  -8.974  0.00  0.00     0.243 C 
HETATM    2  N           1     -22.143  -4.871  -8.136  0.00  0.00    -0.345 N 
HETATM    3  H           1     -22.308  -5.855  -7.968  0.00  0.00     0.163 HD
HETATM    4  O           1     -22.772  -2.996  -9.174  0.00  0.00    -0.272 OA
ENDROOT
BRANCH   2   5
HETATM    5  C           1     -21.033  -4.201  -7.487  0.00  0.00     0.186 C 
BRANCH   5   6
HETATM    6  C           1     -19.767  -4.456  -8.268  0.00  0.00     0.196 C 
HETATM    7  O           1     -19.833  -4.874  -9.444  0.00  0.00    -0.646 OA
HETATM    8  O           1     -18.653  -4.248  -7.740  0.00  0.00    -0.646 OA
ENDBRANCH   5   6
BRANCH   5   9
HETATM    9  C           1     -20.874  -4.740  -6.071  0.00  0.00     0.046 C 
BRANCH   9  10
HETATM   10  C           1     -20.946  -6.261  -6.095  0.00  0.00     0.116 C 
BRANCH  10  11
HETATM   11  C           1     -22.053  -6.727  -5.182  0.00  0.00     0.172 C 
HETATM   12  O           1     -21.897  -7.751  -4.482  0.00  0.00    -0.648 OA
HETATM   13  O           1     -23.127  -6.089  -5.125  0.00  0.00    -0.648 OA
ENDBRANCH  10  11
ENDBRANCH   9  10
ENDBRANCH   5   9
ENDBRANCH   2   5
BRANCH   1  14
HETATM   14  C           1     -24.125  -4.867  -9.649  0.00  0.00     0.332 C 
BRANCH  14  15
HETATM   15  N           1     -25.312  -3.952  -9.680  0.00  0.00    -0.071 N 
HETATM   16  H           1     -24.997  -2.978  -9.891  0.00  0.00     0.274 HD
HETATM   17  H           1     -25.979  -4.270 -10.420  0.00  0.00     0.274 HD
HETATM   18  H           1     -25.790  -3.969  -8.750  0.00  0.00     0.274 HD
ENDBRANCH  14  15
ENDBRANCH   1  14
TORSDOF 7
ENDMDL
