MODEL 1
REMARK VINA RESULT:      -7.5      0.000      0.000
REMARK  16 active torsions:
REMARK  status: ('A' for Active; 'I' for Inactive)
REMARK       I    between atoms: C_1  and  N_23 
REMARK    1  A    between atoms: C_1  and  C_21 
REMARK    2  A    between atoms: C_3  and  C_4 
REMARK    3  A    between atoms: C_4  and  C_5 
REMARK    4  A    between atoms: C_4  and  N_33 
REMARK    5  A    between atoms: C_5  and  C_6 
REMARK    6  A    between atoms: C_6  and  C_8 
REMARK    7  A    between atoms: C_13  and  C_30 
REMARK       I    between atoms: N_14  and  C_16 
REMARK       I    between atoms: N_15  and  C_16 
REMARK    8  A    between atoms: N_17  and  C_18 
REMARK    9  A    between atoms: C_18  and  C_19 
REMARK   10  A    between atoms: C_19  and  C_20 
REMARK   11  A    between atoms: C_20  and  C_21 
REMARK   12  A    between atoms: C_21  and  N_36 
REMARK   13  A    between atoms: N_23  and  C_30 
REMARK   14  A    between atoms: C_30  and  C_31 
REMARK   15  A    between atoms: C_31  and  C_32 
REMARK   16  A    between atoms: C_32  and  N_33 
ROOT
HETATM    1  C           1     -36.934  -0.270 -13.345  0.00  0.00     0.249 C 
HETATM    2  H           1     -35.341  -0.002 -12.051  0.00  0.00     0.163 HD
HETATM    3  N           1     -36.298  -0.322 -12.134  0.00  0.00    -0.345 N 
HETATM    4  O           1     -38.075  -0.653 -13.445  0.00  0.00    -0.271 OA
ENDROOT
BRANCH   1   5
HETATM    5  C           1     -36.209   0.265 -14.556  0.00  0.00     0.274 C 
BRANCH   5   6
HETATM    6  C           1     -36.554  -0.585 -15.772  0.00  0.00     0.044 C 
BRANCH   6   7
HETATM    7  C           1     -35.294  -0.839 -16.588  0.00  0.00     0.023 C 
BRANCH   7   8
HETATM    8  C           1     -35.108  -2.338 -16.783  0.00  0.00     0.138 C 
BRANCH   8   9
HETATM    9  N           1     -33.732  -2.609 -17.226  0.00  0.00    -0.227 N 
HETATM   10  C           1     -33.131  -3.647 -16.823  0.00  0.00     0.665 C 
HETATM   11  N           1     -33.729  -4.474 -16.017  0.00  0.00    -0.235 N 
HETATM   12  N           1     -31.946  -3.880 -17.203  0.00  0.00    -0.235 N 
HETATM   13  H           1     -33.232  -5.331 -15.685  0.00  0.00     0.174 HD
HETATM   14  H           1     -34.706  -4.281 -15.703  0.00  0.00     0.174 HD
HETATM   15  H           1     -31.446  -4.741 -16.869  0.00  0.00     0.174 HD
HETATM   16  H           1     -31.463  -3.212 -17.855  0.00  0.00     0.174 HD
HETATM   17  H           1     -33.249  -1.941 -17.876  0.00  0.00     0.177 HD
ENDBRANCH   8   9
ENDBRANCH   7   8
ENDBRANCH   6   7
ENDBRANCH   5   6
BRANCH   5  18
HETATM   18  N           1     -34.729   0.214 -14.315  0.00  0.00    -0.067 N 
HETATM   19  H           1     -34.403   1.139 -13.954  0.00  0.00     0.275 HD
HETATM   20  H           1     -34.238  -0.002 -15.212  0.00  0.00     0.275 HD
HETATM   21  H           1     -34.515  -0.530 -13.614  0.00  0.00     0.275 HD
ENDBRANCH   5  18
ENDBRANCH   1   5
BRANCH   3  22
HETATM   22  C           1     -36.994  -0.836 -10.971  0.00  0.00     0.187 C 
BRANCH  22  23
HETATM   23  C           1     -37.117   0.256  -9.936  0.00  0.00     0.196 C 
HETATM   24  O           1     -38.004   1.128 -10.052  0.00  0.00    -0.646 OA
HETATM   25  O           1     -36.332   0.288  -8.965  0.00  0.00    -0.646 OA
ENDBRANCH  22  23
BRANCH  22  26
HETATM   26  C           1     -36.210  -2.004 -10.386  0.00  0.00     0.066 C 
BRANCH  26  27
HETATM   27  C           1     -34.843  -2.083 -11.053  0.00  0.00     0.273 C 
BRANCH  27  28
HETATM   28  N           1     -34.116  -3.208 -10.529  0.00  0.00     0.098 N 
HETATM   29  H           1     -34.764  -3.847 -10.068  0.00  0.00     0.317 HD
BRANCH  28  30
HETATM   30  C           1     -33.488  -3.876 -11.636  0.00  0.00     0.320 C 
BRANCH  30  31
HETATM   31  C           1     -34.384  -3.790 -12.848  0.00  0.00     0.207 C 
HETATM   32  O           1     -35.032  -4.793 -13.219  0.00  0.00    -0.646 OA
HETATM   33  O           1     -34.479  -2.715 -13.480  0.00  0.00    -0.646 OA
ENDBRANCH  30  31
BRANCH  30  34
HETATM   34  C           1     -33.256  -5.338 -11.279  0.00  0.00     0.057 C 
BRANCH  34  35
HETATM   35  C           1     -34.325  -5.797 -10.296  0.00  0.00     0.116 C 
BRANCH  35  36
HETATM   36  C           1     -34.299  -7.302 -10.190  0.00  0.00     0.172 C 
HETATM   37  O           1     -33.240  -7.927 -10.419  0.00  0.00    -0.648 OA
HETATM   38  O           1     -35.336  -7.924  -9.872  0.00  0.00    -0.648 OA
ENDBRANCH  35  36
ENDBRANCH  34  35
ENDBRANCH  30  34
ENDBRANCH  28  30
ENDBRANCH  27  28
ENDBRANCH  26  27
ENDBRANCH  22  26
ENDBRANCH   3  22
TORSDOF 16
ENDMDL
MODEL 2
REMARK VINA RESULT:      -7.4     13.039     15.428
REMARK  16 active torsions:
REMARK  status: ('A' for Active; 'I' for Inactive)
REMARK       I    between atoms: C_1  and  N_23 
REMARK    1  A    between atoms: C_1  and  C_21 
REMARK    2  A    between atoms: C_3  and  C_4 
REMARK    3  A    between atoms: C_4  and  C_5 
REMARK    4  A    between atoms: C_4  and  N_33 
REMARK    5  A    between atoms: C_5  and  C_6 
REMARK    6  A    between atoms: C_6  and  C_8 
REMARK    7  A    between atoms: C_13  and  C_30 
REMARK       I    between atoms: N_14  and  C_16 
REMARK       I    between atoms: N_15  and  C_16 
REMARK    8  A    between atoms: N_17  and  C_18 
REMARK    9  A    between atoms: C_18  and  C_19 
REMARK   10  A    between atoms: C_19  and  C_20 
REMARK   11  A    between atoms: C_20  and  C_21 
REMARK   12  A    between atoms: C_21  and  N_36 
REMARK   13  A    between atoms: N_23  and  C_30 
REMARK   14  A    between atoms: C_30  and  C_31 
REMARK   15  A    between atoms: C_31  and  C_32 
REMARK   16  A    between atoms: C_32  and  N_33 
ROOT
HETATM    1  C           1     -22.366  -4.157  -8.162  0.00  0.00     0.249 C 
HETATM    2  H           1     -22.597  -5.897  -7.065  0.00  0.00     0.163 HD
HETATM    3  N           1     -22.036  -5.064  -7.191  0.00  0.00    -0.345 N 
HETATM    4  O           1     -21.697  -3.163  -8.313  0.00  0.00    -0.271 OA
ENDROOT
BRANCH   1   5
HETATM    5  C           1     -23.566  -4.400  -9.045  0.00  0.00     0.274 C 
BRANCH   5   6
HETATM    6  C           1     -23.139  -4.356 -10.506  0.00  0.00     0.044 C 
BRANCH   6   7
HETATM    7  C           1     -23.903  -3.252 -11.225  0.00  0.00     0.023 C 
BRANCH   7   8
HETATM    8  C           1     -23.650  -3.353 -12.724  0.00  0.00     0.138 C 
BRANCH   8   9
HETATM    9  N           1     -24.097  -2.116 -13.382  0.00  0.00    -0.227 N 
HETATM   10  C           1     -23.583  -1.763 -14.483  0.00  0.00     0.665 C 
HETATM   11  N           1     -22.658  -2.493 -15.033  0.00  0.00    -0.235 N 
HETATM   12  N           1     -23.968  -0.698 -15.049  0.00  0.00    -0.235 N 
HETATM   13  H           1     -22.233  -2.201 -15.941  0.00  0.00     0.174 HD
HETATM   14  H           1     -22.340  -3.371 -14.565  0.00  0.00     0.174 HD
HETATM   15  H           1     -23.541  -0.404 -15.963  0.00  0.00     0.174 HD
HETATM   16  H           1     -24.715  -0.108 -14.605  0.00  0.00     0.174 HD
HETATM   17  H           1     -24.844  -1.526 -12.938  0.00  0.00     0.177 HD
ENDBRANCH   8   9
ENDBRANCH   7   8
ENDBRANCH   6   7
ENDBRANCH   5   6
BRANCH   5  18
HETATM   18  N           1     -24.594  -3.337  -8.794  0.00  0.00    -0.067 N 
HETATM   19  H           1     -24.390  -2.862  -7.885  0.00  0.00     0.275 HD
HETATM   20  H           1     -25.543  -3.774  -8.752  0.00  0.00     0.275 HD
HETATM   21  H           1     -24.568  -2.636  -9.567  0.00  0.00     0.275 HD
ENDBRANCH   5  18
ENDBRANCH   1   5
BRANCH   3  22
HETATM   22  C           1     -20.884  -4.831  -6.342  0.00  0.00     0.187 C 
BRANCH  22  23
HETATM   23  C           1     -19.636  -5.301  -7.051  0.00  0.00     0.196 C 
HETATM   24  O           1     -19.511  -6.504  -7.365  0.00  0.00    -0.646 OA
HETATM   25  O           1     -18.729  -4.486  -7.324  0.00  0.00    -0.646 OA
ENDBRANCH  22  23
BRANCH  22  26
HETATM   26  C           1     -21.049  -5.602  -5.039  0.00  0.00     0.066 C 
BRANCH  26  27
HETATM   27  C           1     -22.058  -6.724  -5.238  0.00  0.00     0.273 C 
BRANCH  27  28
HETATM   28  N           1     -21.367  -7.983  -5.326  0.00  0.00     0.098 N 
HETATM   29  H           1     -20.885  -8.044  -6.223  0.00  0.00     0.317 HD
BRANCH  28  30
HETATM   30  C           1     -20.404  -8.027  -4.259  0.00  0.00     0.320 C 
BRANCH  30  31
HETATM   31  C           1     -19.227  -8.873  -4.680  0.00  0.00     0.207 C 
HETATM   32  O           1     -19.130  -9.263  -5.864  0.00  0.00    -0.646 OA
HETATM   33  O           1     -18.350  -9.183  -3.845  0.00  0.00    -0.646 OA
ENDBRANCH  30  31
BRANCH  30  34
HETATM   34  C           1     -21.048  -8.633  -3.020  0.00  0.00     0.057 C 
BRANCH  34  35
HETATM   35  C           1     -20.820  -7.714  -1.828  0.00  0.00     0.116 C 
BRANCH  35  36
HETATM   36  C           1     -22.076  -7.650  -0.993  0.00  0.00     0.172 C 
HETATM   37  O           1     -22.725  -6.583  -0.920  0.00  0.00    -0.648 OA
HETATM   38  O           1     -22.468  -8.663  -0.375  0.00  0.00    -0.648 OA
ENDBRANCH  35  36
ENDBRANCH  34  35
ENDBRANCH  30  34
ENDBRANCH  28  30
ENDBRANCH  27  28
ENDBRANCH  26  27
ENDBRANCH  22  26
ENDBRANCH   3  22
TORSDOF 16
ENDMDL
MODEL 3
REMARK VINA RESULT:      -7.3     13.300     16.881
REMARK  16 active torsions:
REMARK  status: ('A' for Active; 'I' for Inactive)
REMARK       I    between atoms: C_1  and  N_23 
REMARK    1  A    between atoms: C_1  and  C_21 
REMARK    2  A    between atoms: C_3  and  C_4 
REMARK    3  A    between atoms: C_4  and  C_5 
REMARK    4  A    between atoms: C_4  and  N_33 
REMARK    5  A    between atoms: C_5  and  C_6 
REMARK    6  A    between atoms: C_6  and  C_8 
REMARK    7  A    between atoms: C_13  and  C_30 
REMARK       I    between atoms: N_14  and  C_16 
REMARK       I    between atoms: N_15  and  C_16 
REMARK    8  A    between atoms: N_17  and  C_18 
REMARK    9  A    between atoms: C_18  and  C_19 
REMARK   10  A    between atoms: C_19  and  C_20 
REMARK   11  A    between atoms: C_20  and  C_21 
REMARK   12  A    between atoms: C_21  and  N_36 
REMARK   13  A    between atoms: N_23  and  C_30 
REMARK   14  A    between atoms: C_30  and  C_31 
REMARK   15  A    between atoms: C_31  and  C_32 
REMARK   16  A    between atoms: C_32  and  N_33 
ROOT
HETATM    1  C           1     -21.491  -6.303  -4.278  0.00  0.00     0.249 C 
HETATM    2  H           1     -20.201  -4.723  -4.634  0.00  0.00     0.163 HD
HETATM    3  N           1     -20.845  -5.380  -5.056  0.00  0.00    -0.345 N 
HETATM    4  O           1     -22.259  -7.086  -4.782  0.00  0.00    -0.271 OA
ENDROOT
BRANCH   1   5
HETATM    5  C           1     -21.242  -6.341  -2.790  0.00  0.00     0.274 C 
BRANCH   5   6
HETATM    6  C           1     -20.872  -7.758  -2.373  0.00  0.00     0.044 C 
BRANCH   6   7
HETATM    7  C           1     -21.108  -7.926  -0.878  0.00  0.00     0.023 C 
BRANCH   7   8
HETATM    8  C           1     -21.285  -9.403  -0.553  0.00  0.00     0.138 C 
BRANCH   8   9
HETATM    9  N           1     -22.585  -9.866  -1.060  0.00  0.00    -0.227 N 
HETATM   10  C           1     -23.078 -10.953  -0.640  0.00  0.00     0.665 C 
HETATM   11  N           1     -22.434 -11.662   0.240  0.00  0.00    -0.235 N 
HETATM   12  N           1     -24.198 -11.351  -1.076  0.00  0.00    -0.235 N 
HETATM   13  H           1     -22.841 -12.560   0.586  0.00  0.00     0.174 HD
HETATM   14  H           1     -21.511 -11.333   0.600  0.00  0.00     0.174 HD
HETATM   15  H           1     -24.607 -12.254  -0.728  0.00  0.00     0.174 HD
HETATM   16  H           1     -24.718 -10.778  -1.787  0.00  0.00     0.174 HD
HETATM   17  H           1     -23.105  -9.293  -1.771  0.00  0.00     0.177 HD
ENDBRANCH   8   9
ENDBRANCH   7   8
ENDBRANCH   6   7
ENDBRANCH   5   6
BRANCH   5  18
HETATM   18  N           1     -22.484  -5.915  -2.065  0.00  0.00    -0.067 N 
HETATM   19  H           1     -22.763  -4.960  -2.383  0.00  0.00     0.275 HD
HETATM   20  H           1     -22.298  -5.899  -1.036  0.00  0.00     0.275 HD
HETATM   21  H           1     -23.255  -6.589  -2.268  0.00  0.00     0.275 HD
ENDBRANCH   5  18
ENDBRANCH   1   5
BRANCH   3  22
HETATM   22  C           1     -21.084  -5.343  -6.486  0.00  0.00     0.187 C 
BRANCH  22  23
HETATM   23  C           1     -19.825  -5.744  -7.216  0.00  0.00     0.196 C 
HETATM   24  O           1     -19.349  -6.889  -7.057  0.00  0.00    -0.646 OA
HETATM   25  O           1     -19.259  -4.932  -7.979  0.00  0.00    -0.646 OA
ENDBRANCH  22  23
BRANCH  22  26
HETATM   26  C           1     -21.482  -3.931  -6.897  0.00  0.00     0.066 C 
BRANCH  26  27
HETATM   27  C           1     -22.667  -3.995  -7.851  0.00  0.00     0.273 C 
BRANCH  27  28
HETATM   28  N           1     -22.201  -4.305  -9.176  0.00  0.00     0.098 N 
HETATM   29  H           1     -22.352  -5.296  -9.366  0.00  0.00     0.317 HD
BRANCH  28  30
HETATM   30  C           1     -22.966  -3.516 -10.104  0.00  0.00     0.320 C 
BRANCH  30  31
HETATM   31  C           1     -24.437  -3.784  -9.896  0.00  0.00     0.207 C 
HETATM   32  O           1     -24.872  -4.955  -9.943  0.00  0.00    -0.646 OA
HETATM   33  O           1     -25.220  -2.835  -9.677  0.00  0.00    -0.646 OA
ENDBRANCH  30  31
BRANCH  30  34
HETATM   34  C           1     -22.577  -3.891 -11.527  0.00  0.00     0.057 C 
BRANCH  34  35
HETATM   35  C           1     -22.658  -2.658 -12.417  0.00  0.00     0.116 C 
BRANCH  35  36
HETATM   36  C           1     -23.731  -2.857 -13.459  0.00  0.00     0.172 C 
HETATM   37  O           1     -23.415  -3.059 -14.652  0.00  0.00    -0.648 OA
HETATM   38  O           1     -24.936  -2.819 -13.130  0.00  0.00    -0.648 OA
ENDBRANCH  35  36
ENDBRANCH  34  35
ENDBRANCH  30  34
ENDBRANCH  28  30
ENDBRANCH  27  28
ENDBRANCH  26  27
ENDBRANCH  22  26
ENDBRANCH   3  22
TORSDOF 16
ENDMDL
MODEL 4
REMARK VINA RESULT:      -6.9     13.938     16.606
REMARK  16 active torsions:
REMARK  status: ('A' for Active; 'I' for Inactive)
REMARK       I    between atoms: C_1  and  N_23 
REMARK    1  A    between atoms: C_1  and  C_21 
REMARK    2  A    between atoms: C_3  and  C_4 
REMARK    3  A    between atoms: C_4  and  C_5 
REMARK    4  A    between atoms: C_4  and  N_33 
REMARK    5  A    between atoms: C_5  and  C_6 
REMARK    6  A    between atoms: C_6  and  C_8 
REMARK    7  A    between atoms: C_13  and  C_30 
REMARK       I    between atoms: N_14  and  C_16 
REMARK       I    between atoms: N_15  and  C_16 
REMARK    8  A    between atoms: N_17  and  C_18 
REMARK    9  A    between atoms: C_18  and  C_19 
REMARK   10  A    between atoms: C_19  and  C_20 
REMARK   11  A    between atoms: C_20  and  C_21 
REMARK   12  A    between atoms: C_21  and  N_36 
REMARK   13  A    between atoms: N_23  and  C_30 
REMARK   14  A    between atoms: C_30  and  C_31 
REMARK   15  A    between atoms: C_31  and  C_32 
REMARK   16  A    between atoms: C_32  and  N_33 
ROOT
HETATM    1  C           1     -21.135  -5.121  -7.022  0.00  0.00     0.249 C 
HETATM    2  H           1     -22.147  -6.926  -6.948  0.00  0.00     0.163 HD
HETATM    3  N           1     -21.501  -6.316  -6.463  0.00  0.00    -0.345 N 
HETATM    4  O           1     -20.365  -4.393  -6.443  0.00  0.00    -0.271 OA
ENDROOT
BRANCH   1   5
HETATM    5  C           1     -21.694  -4.714  -8.364  0.00  0.00     0.274 C 
BRANCH   5   6
HETATM    6  C           1     -20.564  -4.626  -9.380  0.00  0.00     0.044 C 
BRANCH   6   7
HETATM    7  C           1     -20.909  -3.585 -10.436  0.00  0.00     0.023 C 
BRANCH   7   8
HETATM    8  C           1     -21.738  -4.234 -11.538  0.00  0.00     0.138 C 
BRANCH   8   9
HETATM    9  N           1     -22.943  -3.429 -11.785  0.00  0.00    -0.227 N 
HETATM   10  C           1     -23.167  -2.963 -12.939  0.00  0.00     0.665 C 
HETATM   11  N           1     -22.331  -3.195 -13.908  0.00  0.00    -0.235 N 
HETATM   12  N           1     -24.204  -2.269 -13.152  0.00  0.00    -0.235 N 
HETATM   13  H           1     -22.516  -2.810 -14.862  0.00  0.00     0.174 HD
HETATM   14  H           1     -21.475  -3.768 -13.733  0.00  0.00     0.174 HD
HETATM   15  H           1     -24.391  -1.882 -14.111  0.00  0.00     0.174 HD
HETATM   16  H           1     -24.880  -2.081 -12.370  0.00  0.00     0.174 HD
HETATM   17  H           1     -23.618  -3.240 -11.002  0.00  0.00     0.177 HD
ENDBRANCH   8   9
ENDBRANCH   7   8
ENDBRANCH   6   7
ENDBRANCH   5   6
BRANCH   5  18
HETATM   18  N           1     -22.360  -3.376  -8.242  0.00  0.00    -0.067 N 
HETATM   19  H           1     -21.654  -2.659  -7.959  0.00  0.00     0.275 HD
HETATM   20  H           1     -23.114  -3.427  -7.519  0.00  0.00     0.275 HD
HETATM   21  H           1     -22.778  -3.109  -9.161  0.00  0.00     0.275 HD
ENDBRANCH   5  18
ENDBRANCH   1   5
BRANCH   3  22
HETATM   22  C           1     -20.964  -6.708  -5.174  0.00  0.00     0.187 C 
BRANCH  22  23
HETATM   23  C           1     -20.577  -8.166  -5.214  0.00  0.00     0.196 C 
HETATM   24  O           1     -21.384  -9.038  -4.827  0.00  0.00    -0.646 OA
HETATM   25  O           1     -19.449  -8.501  -5.635  0.00  0.00    -0.646 OA
ENDBRANCH  22  23
BRANCH  22  26
HETATM   26  C           1     -22.021  -6.491  -4.098  0.00  0.00     0.066 C 
BRANCH  26  27
HETATM   27  C           1     -21.338  -6.217  -2.764  0.00  0.00     0.273 C 
BRANCH  27  28
HETATM   28  N           1     -22.222  -6.578  -1.689  0.00  0.00     0.098 N 
HETATM   29  H           1     -23.189  -6.465  -1.991  0.00  0.00     0.317 HD
BRANCH  28  30
HETATM   30  C           1     -21.977  -7.957  -1.366  0.00  0.00     0.320 C 
BRANCH  30  31
HETATM   31  C           1     -22.492  -8.248   0.022  0.00  0.00     0.207 C 
HETATM   32  O           1     -21.946  -7.719   1.015  0.00  0.00    -0.646 OA
HETATM   33  O           1     -23.466  -9.016   0.180  0.00  0.00    -0.646 OA
ENDBRANCH  30  31
BRANCH  30  34
HETATM   34  C           1     -20.480  -8.231  -1.420  0.00  0.00     0.057 C 
BRANCH  34  35
HETATM   35  C           1     -20.239  -9.734  -1.459  0.00  0.00     0.116 C 
BRANCH  35  36
HETATM   36  C           1     -19.112 -10.040  -2.414  0.00  0.00     0.172 C 
HETATM   37  O           1     -19.067 -11.145  -2.997  0.00  0.00    -0.648 OA
HETATM   38  O           1     -18.222  -9.187  -2.623  0.00  0.00    -0.648 OA
ENDBRANCH  35  36
ENDBRANCH  34  35
ENDBRANCH  30  34
ENDBRANCH  28  30
ENDBRANCH  27  28
ENDBRANCH  26  27
ENDBRANCH  22  26
ENDBRANCH   3  22
TORSDOF 16
ENDMDL
MODEL 5
REMARK VINA RESULT:      -6.8     13.893     16.695
REMARK  16 active torsions:
REMARK  status: ('A' for Active; 'I' for Inactive)
REMARK       I    between atoms: C_1  and  N_23 
REMARK    1  A    between atoms: C_1  and  C_21 
REMARK    2  A    between atoms: C_3  and  C_4 
REMARK    3  A    between atoms: C_4  and  C_5 
REMARK    4  A    between atoms: C_4  and  N_33 
REMARK    5  A    between atoms: C_5  and  C_6 
REMARK    6  A    between atoms: C_6  and  C_8 
REMARK    7  A    between atoms: C_13  and  C_30 
REMARK       I    between atoms: N_14  and  C_16 
REMARK       I    between atoms: N_15  and  C_16 
REMARK    8  A    between atoms: N_17  and  C_18 
REMARK    9  A    between atoms: C_18  and  C_19 
REMARK   10  A    between atoms: C_19  and  C_20 
REMARK   11  A    between atoms: C_20  and  C_21 
REMARK   12  A    between atoms: C_21  and  N_36 
REMARK   13  A    between atoms: N_23  and  C_30 
REMARK   14  A    between atoms: C_30  and  C_31 
REMARK   15  A    between atoms: C_31  and  C_32 
REMARK   16  A    between atoms: C_32  and  N_33 
ROOT
HETATM    1  C           1     -21.113  -5.486  -6.517  0.00  0.00     0.249 C 
HETATM    2  H           1     -21.610  -7.467  -6.856  0.00  0.00     0.163 HD
HETATM    3  N           1     -21.167  -6.820  -6.215  0.00  0.00    -0.345 N 
HETATM    4  O           1     -20.585  -4.714  -5.753  0.00  0.00    -0.271 OA
ENDROOT
BRANCH   1   5
HETATM    5  C           1     -21.712  -4.979  -7.806  0.00  0.00     0.274 C 
BRANCH   5   6
HETATM    6  C           1     -20.699  -4.101  -8.528  0.00  0.00     0.044 C 
BRANCH   6   7
HETATM    7  C           1     -20.167  -4.838  -9.749  0.00  0.00     0.023 C 
BRANCH   7   8
HETATM    8  C           1     -20.454  -4.020 -11.002  0.00  0.00     0.138 C 
BRANCH   8   9
HETATM    9  N           1     -21.779  -3.392 -10.884  0.00  0.00    -0.227 N 
HETATM   10  C           1     -22.452  -3.135 -11.925  0.00  0.00     0.665 C 
HETATM   11  N           1     -21.972  -3.425 -13.098  0.00  0.00    -0.235 N 
HETATM   12  N           1     -23.592  -2.594 -11.824  0.00  0.00    -0.235 N 
HETATM   13  H           1     -22.527  -3.212 -13.957  0.00  0.00     0.174 HD
HETATM   14  H           1     -21.031  -3.871 -13.181  0.00  0.00     0.174 HD
HETATM   15  H           1     -24.151  -2.381 -12.688  0.00  0.00     0.174 HD
HETATM   16  H           1     -23.981  -2.361 -10.877  0.00  0.00     0.174 HD
HETATM   17  H           1     -22.167  -3.158  -9.937  0.00  0.00     0.177 HD
ENDBRANCH   8   9
ENDBRANCH   7   8
ENDBRANCH   6   7
ENDBRANCH   5   6
BRANCH   5  18
HETATM   18  N           1     -22.942  -4.176  -7.504  0.00  0.00    -0.067 N 
HETATM   19  H           1     -22.976  -3.963  -6.481  0.00  0.00     0.275 HD
HETATM   20  H           1     -23.790  -4.723  -7.774  0.00  0.00     0.275 HD
HETATM   21  H           1     -22.918  -3.283  -8.045  0.00  0.00     0.275 HD
ENDBRANCH   5  18
ENDBRANCH   1   5
BRANCH   3  22
HETATM   22  C           1     -20.592  -7.308  -4.976  0.00  0.00     0.187 C 
BRANCH  22  23
HETATM   23  C           1     -19.998  -8.677  -5.204  0.00  0.00     0.196 C 
HETATM   24  O           1     -20.663  -9.556  -5.792  0.00  0.00    -0.646 OA
HETATM   25  O           1     -18.842  -8.930  -4.803  0.00  0.00    -0.646 OA
ENDBRANCH  22  23
BRANCH  22  26
HETATM   26  C           1     -21.678  -7.394  -3.912  0.00  0.00     0.066 C 
BRANCH  26  27
HETATM   27  C           1     -21.158  -6.807  -2.607  0.00  0.00     0.273 C 
BRANCH  27  28
HETATM   28  N           1     -20.762  -7.872  -1.725  0.00  0.00     0.098 N 
HETATM   29  H           1     -20.251  -7.484  -0.932  0.00  0.00     0.317 HD
BRANCH  28  30
HETATM   30  C           1     -21.958  -8.517  -1.255  0.00  0.00     0.320 C 
BRANCH  30  31
HETATM   31  C           1     -22.294  -8.008   0.125  0.00  0.00     0.207 C 
HETATM   32  O           1     -23.381  -7.424   0.329  0.00  0.00    -0.646 OA
HETATM   33  O           1     -21.486  -8.169   1.065  0.00  0.00    -0.646 OA
ENDBRANCH  30  31
BRANCH  30  34
HETATM   34  C           1     -21.733 -10.022  -1.201  0.00  0.00     0.057 C 
BRANCH  34  35
HETATM   35  C           1     -22.856 -10.731  -1.946  0.00  0.00     0.116 C 
BRANCH  35  36
HETATM   36  C           1     -23.757 -11.428  -0.956  0.00  0.00     0.172 C 
HETATM   37  O           1     -24.231 -10.795   0.012  0.00  0.00    -0.648 OA
HETATM   38  O           1     -24.028 -12.639  -1.104  0.00  0.00    -0.648 OA
ENDBRANCH  35  36
ENDBRANCH  34  35
ENDBRANCH  30  34
ENDBRANCH  28  30
ENDBRANCH  27  28
ENDBRANCH  26  27
ENDBRANCH  22  26
ENDBRANCH   3  22
TORSDOF 16
ENDMDL
MODEL 6
REMARK VINA RESULT:      -6.6     13.949     17.353
REMARK  16 active torsions:
REMARK  status: ('A' for Active; 'I' for Inactive)
REMARK       I    between atoms: C_1  and  N_23 
REMARK    1  A    between atoms: C_1  and  C_21 
REMARK    2  A    between atoms: C_3  and  C_4 
REMARK    3  A    between atoms: C_4  and  C_5 
REMARK    4  A    between atoms: C_4  and  N_33 
REMARK    5  A    between atoms: C_5  and  C_6 
REMARK    6  A    between atoms: C_6  and  C_8 
REMARK    7  A    between atoms: C_13  and  C_30 
REMARK       I    between atoms: N_14  and  C_16 
REMARK       I    between atoms: N_15  and  C_16 
REMARK    8  A    between atoms: N_17  and  C_18 
REMARK    9  A    between atoms: C_18  and  C_19 
REMARK   10  A    between atoms: C_19  and  C_20 
REMARK   11  A    between atoms: C_20  and  C_21 
REMARK   12  A    between atoms: C_21  and  N_36 
REMARK   13  A    between atoms: N_23  and  C_30 
REMARK   14  A    between atoms: C_30  and  C_31 
REMARK   15  A    between atoms: C_31  and  C_32 
REMARK   16  A    between atoms: C_32  and  N_33 
ROOT
HETATM    1  C           1     -21.410  -6.408  -4.166  0.00  0.00     0.249 C 
HETATM    2  H           1     -20.574  -4.538  -4.467  0.00  0.00     0.163 HD
HETATM    3  N           1     -20.994  -5.341  -4.917  0.00  0.00    -0.345 N 
HETATM    4  O           1     -21.912  -7.366  -4.702  0.00  0.00    -0.271 OA
ENDROOT
BRANCH   1   5
HETATM    5  C           1     -21.241  -6.385  -2.666  0.00  0.00     0.274 C 
BRANCH   5   6
HETATM    6  C           1     -20.983  -7.799  -2.162  0.00  0.00     0.044 C 
BRANCH   6   7
HETATM    7  C           1     -22.031  -8.166  -1.120  0.00  0.00     0.023 C 
BRANCH   7   8
HETATM    8  C           1     -21.684  -9.515  -0.504  0.00  0.00     0.138 C 
BRANCH   8   9
HETATM    9  N           1     -21.066 -10.376  -1.523  0.00  0.00    -0.227 N 
HETATM   10  C           1     -20.155 -11.191  -1.196  0.00  0.00     0.665 C 
HETATM   11  N           1     -19.765 -11.267   0.043  0.00  0.00    -0.235 N 
HETATM   12  N           1     -19.623 -11.932  -2.073  0.00  0.00    -0.235 N 
HETATM   13  H           1     -19.012 -11.940   0.313  0.00  0.00     0.174 HD
HETATM   14  H           1     -20.204 -10.655   0.767  0.00  0.00     0.174 HD
HETATM   15  H           1     -18.866 -12.609  -1.801  0.00  0.00     0.174 HD
HETATM   16  H           1     -19.938 -11.871  -3.073  0.00  0.00     0.174 HD
HETATM   17  H           1     -21.381 -10.314  -2.523  0.00  0.00     0.177 HD
ENDBRANCH   8   9
ENDBRANCH   7   8
ENDBRANCH   6   7
ENDBRANCH   5   6
BRANCH   5  18
HETATM   18  N           1     -22.490  -5.849  -2.031  0.00  0.00    -0.067 N 
HETATM   19  H           1     -22.287  -4.922  -1.592  0.00  0.00     0.275 HD
HETATM   20  H           1     -22.821  -6.516  -1.298  0.00  0.00     0.275 HD
HETATM   21  H           1     -23.230  -5.736  -2.758  0.00  0.00     0.275 HD
ENDBRANCH   5  18
ENDBRANCH   1   5
BRANCH   3  22
HETATM   22  C           1     -21.156  -5.362  -6.358  0.00  0.00     0.187 C 
BRANCH  22  23
HETATM   23  C           1     -19.828  -5.663  -7.008  0.00  0.00     0.196 C 
HETATM   24  O           1     -19.423  -6.843  -7.084  0.00  0.00    -0.646 OA
HETATM   25  O           1     -19.133  -4.733  -7.470  0.00  0.00    -0.646 OA
ENDBRANCH  22  23
BRANCH  22  26
HETATM   26  C           1     -21.659  -4.005  -6.832  0.00  0.00     0.066 C 
BRANCH  26  27
HETATM   27  C           1     -22.705  -4.202  -7.920  0.00  0.00     0.273 C 
BRANCH  27  28
HETATM   28  N           1     -22.284  -3.529  -9.119  0.00  0.00     0.098 N 
HETATM   29  H           1     -21.495  -2.919  -8.908  0.00  0.00     0.317 HD
BRANCH  28  30
HETATM   30  C           1     -21.876  -4.533 -10.063  0.00  0.00     0.320 C 
BRANCH  30  31
HETATM   31  C           1     -20.565  -4.127 -10.693  0.00  0.00     0.207 C 
HETATM   32  O           1     -19.688  -4.989 -10.921  0.00  0.00    -0.646 OA
HETATM   33  O           1     -20.357  -2.930 -10.986  0.00  0.00    -0.646 OA
ENDBRANCH  30  31
BRANCH  30  34
HETATM   34  C           1     -22.938  -4.673 -11.145  0.00  0.00     0.057 C 
BRANCH  34  35
HETATM   35  C           1     -22.889  -3.459 -12.064  0.00  0.00     0.116 C 
BRANCH  35  36
HETATM   36  C           1     -24.294  -2.988 -12.352  0.00  0.00     0.172 C 
HETATM   37  O           1     -24.558  -2.440 -13.444  0.00  0.00    -0.648 OA
HETATM   38  O           1     -25.193  -3.147 -11.498  0.00  0.00    -0.648 OA
ENDBRANCH  35  36
ENDBRANCH  34  35
ENDBRANCH  30  34
ENDBRANCH  28  30
ENDBRANCH  27  28
ENDBRANCH  26  27
ENDBRANCH  22  26
ENDBRANCH   3  22
TORSDOF 16
ENDMDL
MODEL 7
REMARK VINA RESULT:      -6.6     14.454     17.340
REMARK  16 active torsions:
REMARK  status: ('A' for Active; 'I' for Inactive)
REMARK       I    between atoms: C_1  and  N_23 
REMARK    1  A    between atoms: C_1  and  C_21 
REMARK    2  A    between atoms: C_3  and  C_4 
REMARK    3  A    between atoms: C_4  and  C_5 
REMARK    4  A    between atoms: C_4  and  N_33 
REMARK    5  A    between atoms: C_5  and  C_6 
REMARK    6  A    between atoms: C_6  and  C_8 
REMARK    7  A    between atoms: C_13  and  C_30 
REMARK       I    between atoms: N_14  and  C_16 
REMARK       I    between atoms: N_15  and  C_16 
REMARK    8  A    between atoms: N_17  and  C_18 
REMARK    9  A    between atoms: C_18  and  C_19 
REMARK   10  A    between atoms: C_19  and  C_20 
REMARK   11  A    between atoms: C_20  and  C_21 
REMARK   12  A    between atoms: C_21  and  N_36 
REMARK   13  A    between atoms: N_23  and  C_30 
REMARK   14  A    between atoms: C_30  and  C_31 
REMARK   15  A    between atoms: C_31  and  C_32 
REMARK   16  A    between atoms: C_32  and  N_33 
ROOT
HETATM    1  C           1     -21.199  -6.737  -5.198  0.00  0.00     0.249 C 
HETATM    2  H           1     -20.755  -5.583  -3.537  0.00  0.00     0.163 HD
HETATM    3  N           1     -21.089  -6.484  -3.856  0.00  0.00    -0.345 N 
HETATM    4  O           1     -21.597  -7.811  -5.579  0.00  0.00    -0.271 OA
ENDROOT
BRANCH   1   5
HETATM    5  C           1     -20.823  -5.672  -6.199  0.00  0.00     0.274 C 
BRANCH   5   6
HETATM    6  C           1     -22.085  -5.004  -6.728  0.00  0.00     0.044 C 
BRANCH   6   7
HETATM    7  C           1     -21.711  -3.733  -7.478  0.00  0.00     0.023 C 
BRANCH   7   8
HETATM    8  C           1     -22.368  -3.741  -8.852  0.00  0.00     0.138 C 
BRANCH   8   9
HETATM    9  N           1     -23.831  -3.732  -8.697  0.00  0.00    -0.227 N 
HETATM   10  C           1     -24.572  -3.516  -9.700  0.00  0.00     0.665 C 
HETATM   11  N           1     -24.041  -3.302 -10.868  0.00  0.00    -0.235 N 
HETATM   12  N           1     -25.831  -3.508  -9.567  0.00  0.00    -0.235 N 
HETATM   13  H           1     -24.653  -3.124 -11.695  0.00  0.00     0.174 HD
HETATM   14  H           1     -23.002  -3.309 -10.977  0.00  0.00     0.174 HD
HETATM   15  H           1     -26.447  -3.329 -10.399  0.00  0.00     0.174 HD
HETATM   16  H           1     -26.260  -3.682  -8.624  0.00  0.00     0.174 HD
HETATM   17  H           1     -24.259  -3.904  -7.754  0.00  0.00     0.177 HD
ENDBRANCH   8   9
ENDBRANCH   7   8
ENDBRANCH   6   7
ENDBRANCH   5   6
BRANCH   5  18
HETATM   18  N           1     -20.076  -6.299  -7.339  0.00  0.00    -0.067 N 
HETATM   19  H           1     -20.370  -7.297  -7.440  0.00  0.00     0.275 HD
HETATM   20  H           1     -19.050  -6.257  -7.147  0.00  0.00     0.275 HD
HETATM   21  H           1     -20.287  -5.782  -8.221  0.00  0.00     0.275 HD
ENDBRANCH   5  18
ENDBRANCH   1   5
BRANCH   3  22
HETATM   22  C           1     -21.450  -7.506  -2.893  0.00  0.00     0.187 C 
BRANCH  22  23
HETATM   23  C           1     -22.115  -6.861  -1.702  0.00  0.00     0.196 C 
HETATM   24  O           1     -22.354  -7.536  -0.678  0.00  0.00    -0.646 OA
HETATM   25  O           1     -22.426  -5.651  -1.740  0.00  0.00    -0.646 OA
ENDBRANCH  22  23
BRANCH  22  26
HETATM   26  C           1     -20.195  -8.240  -2.439  0.00  0.00     0.066 C 
BRANCH  26  27
HETATM   27  C           1     -20.313  -9.716  -2.794  0.00  0.00     0.273 C 
BRANCH  27  28
HETATM   28  N           1     -21.248 -10.351  -1.903  0.00  0.00     0.098 N 
HETATM   29  H           1     -21.548 -11.240  -2.303  0.00  0.00     0.317 HD
BRANCH  28  30
HETATM   30  C           1     -20.570 -10.589  -0.658  0.00  0.00     0.320 C 
BRANCH  30  31
HETATM   31  C           1     -19.673 -11.796  -0.797  0.00  0.00     0.207 C 
HETATM   32  O           1     -18.439 -11.679  -0.636  0.00  0.00    -0.646 OA
HETATM   33  O           1     -20.165 -12.912  -1.072  0.00  0.00    -0.646 OA
ENDBRANCH  30  31
BRANCH  30  34
HETATM   34  C           1     -21.597 -10.843   0.437  0.00  0.00     0.057 C 
BRANCH  34  35
HETATM   35  C           1     -22.985 -10.941  -0.182  0.00  0.00     0.116 C 
BRANCH  35  36
HETATM   36  C           1     -23.524 -12.338   0.005  0.00  0.00     0.172 C 
HETATM   37  O           1     -24.105 -12.916  -0.938  0.00  0.00    -0.648 OA
HETATM   38  O           1     -23.388 -12.918   1.105  0.00  0.00    -0.648 OA
ENDBRANCH  35  36
ENDBRANCH  34  35
ENDBRANCH  30  34
ENDBRANCH  28  30
ENDBRANCH  27  28
ENDBRANCH  26  27
ENDBRANCH  22  26
ENDBRANCH   3  22
TORSDOF 16
ENDMDL
MODEL 8
REMARK VINA RESULT:      -6.6      4.650      7.818
REMARK  16 active torsions:
REMARK  status: ('A' for Active; 'I' for Inactive)
REMARK       I    between atoms: C_1  and  N_23 
REMARK    1  A    between atoms: C_1  and  C_21 
REMARK    2  A    between atoms: C_3  and  C_4 
REMARK    3  A    between atoms: C_4  and  C_5 
REMARK    4  A    between atoms: C_4  and  N_33 
REMARK    5  A    between atoms: C_5  and  C_6 
REMARK    6  A    between atoms: C_6  and  C_8 
REMARK    7  A    between atoms: C_13  and  C_30 
REMARK       I    between atoms: N_14  and  C_16 
REMARK       I    between atoms: N_15  and  C_16 
REMARK    8  A    between atoms: N_17  and  C_18 
REMARK    9  A    between atoms: C_18  and  C_19 
REMARK   10  A    between atoms: C_19  and  C_20 
REMARK   11  A    between atoms: C_20  and  C_21 
REMARK   12  A    between atoms: C_21  and  N_36 
REMARK   13  A    between atoms: N_23  and  C_30 
REMARK   14  A    between atoms: C_30  and  C_31 
REMARK   15  A    between atoms: C_31  and  C_32 
REMARK   16  A    between atoms: C_32  and  N_33 
ROOT
HETATM    1  C           1     -33.764  -3.681 -13.416  0.00  0.00     0.249 C 
HETATM    2  H           1     -32.445  -5.000 -14.316  0.00  0.00     0.163 HD
HETATM    3  N           1     -33.282  -4.445 -14.446  0.00  0.00    -0.345 N 
HETATM    4  O           1     -34.761  -3.018 -13.571  0.00  0.00    -0.271 OA
ENDROOT
BRANCH   1   5
HETATM    5  C           1     -33.048  -3.669 -12.088  0.00  0.00     0.274 C 
BRANCH   5   6
HETATM    6  C           1     -33.241  -5.011 -11.394  0.00  0.00     0.044 C 
BRANCH   6   7
HETATM    7  C           1     -34.721  -5.225 -11.103  0.00  0.00     0.023 C 
BRANCH   7   8
HETATM    8  C           1     -34.888  -6.417 -10.170  0.00  0.00     0.138 C 
BRANCH   8   9
HETATM    9  N           1     -34.269  -7.606 -10.776  0.00  0.00    -0.227 N 
HETATM   10  C           1     -34.009  -8.617 -10.061  0.00  0.00     0.665 C 
HETATM   11  N           1     -34.290  -8.607  -8.791  0.00  0.00    -0.235 N 
HETATM   12  N           1     -33.476  -9.640 -10.582  0.00  0.00    -0.235 N 
HETATM   13  H           1     -34.075  -9.442  -8.202  0.00  0.00     0.174 HD
HETATM   14  H           1     -34.730  -7.762  -8.362  0.00  0.00     0.174 HD
HETATM   15  H           1     -33.260 -10.480  -9.990  0.00  0.00     0.174 HD
HETATM   16  H           1     -33.250  -9.650 -11.608  0.00  0.00     0.174 HD
HETATM   17  H           1     -34.042  -7.614 -11.801  0.00  0.00     0.177 HD
ENDBRANCH   8   9
ENDBRANCH   7   8
ENDBRANCH   6   7
ENDBRANCH   5   6
BRANCH   5  18
HETATM   18  N           1     -33.612  -2.578 -11.226  0.00  0.00    -0.067 N 
HETATM   19  H           1     -33.648  -1.687 -11.773  0.00  0.00     0.275 HD
HETATM   20  H           1     -33.002  -2.447 -10.388  0.00  0.00     0.275 HD
HETATM   21  H           1     -34.575  -2.838 -10.919  0.00  0.00     0.275 HD
ENDBRANCH   5  18
ENDBRANCH   1   5
BRANCH   3  22
HETATM   22  C           1     -33.968  -4.456 -15.723  0.00  0.00     0.187 C 
BRANCH  22  23
HETATM   23  C           1     -34.697  -5.768 -15.888  0.00  0.00     0.196 C 
HETATM   24  O           1     -34.209  -6.668 -16.605  0.00  0.00    -0.646 OA
HETATM   25  O           1     -35.788  -5.953 -15.308  0.00  0.00    -0.646 OA
ENDBRANCH  22  23
BRANCH  22  26
HETATM   26  C           1     -32.952  -4.294 -16.846  0.00  0.00     0.066 C 
BRANCH  26  27
HETATM   27  C           1     -31.554  -4.571 -16.311  0.00  0.00     0.273 C 
BRANCH  27  28
HETATM   28  N           1     -31.194  -5.935 -16.590  0.00  0.00     0.098 N 
HETATM   29  H           1     -31.721  -6.268 -17.397  0.00  0.00     0.317 HD
BRANCH  28  30
HETATM   30  C           1     -29.788  -5.963 -16.890  0.00  0.00     0.320 C 
BRANCH  30  31
HETATM   31  C           1     -29.526  -6.979 -17.975  0.00  0.00     0.207 C 
HETATM   32  O           1     -28.686  -6.737 -18.869  0.00  0.00    -0.646 OA
HETATM   33  O           1     -30.150  -8.062 -17.981  0.00  0.00    -0.646 OA
ENDBRANCH  30  31
BRANCH  30  34
HETATM   34  C           1     -29.011  -6.345 -15.638  0.00  0.00     0.057 C 
BRANCH  34  35
HETATM   35  C           1     -27.946  -7.373 -15.995  0.00  0.00     0.116 C 
BRANCH  35  36
HETATM   36  C           1     -26.585  -6.721 -15.964  0.00  0.00     0.172 C 
HETATM   37  O           1     -26.332  -5.764 -16.728  0.00  0.00    -0.648 OA
HETATM   38  O           1     -25.711  -7.138 -15.175  0.00  0.00    -0.648 OA
ENDBRANCH  35  36
ENDBRANCH  34  35
ENDBRANCH  30  34
ENDBRANCH  28  30
ENDBRANCH  27  28
ENDBRANCH  26  27
ENDBRANCH  22  26
ENDBRANCH   3  22
TORSDOF 16
ENDMDL
MODEL 9
REMARK VINA RESULT:      -6.5     14.603     17.944
REMARK  16 active torsions:
REMARK  status: ('A' for Active; 'I' for Inactive)
REMARK       I    between atoms: C_1  and  N_23 
REMARK    1  A    between atoms: C_1  and  C_21 
REMARK    2  A    between atoms: C_3  and  C_4 
REMARK    3  A    between atoms: C_4  and  C_5 
REMARK    4  A    between atoms: C_4  and  N_33 
REMARK    5  A    between atoms: C_5  and  C_6 
REMARK    6  A    between atoms: C_6  and  C_8 
REMARK    7  A    between atoms: C_13  and  C_30 
REMARK       I    between atoms: N_14  and  C_16 
REMARK       I    between atoms: N_15  and  C_16 
REMARK    8  A    between atoms: N_17  and  C_18 
REMARK    9  A    between atoms: C_18  and  C_19 
REMARK   10  A    between atoms: C_19  and  C_20 
REMARK   11  A    between atoms: C_20  and  C_21 
REMARK   12  A    between atoms: C_21  and  N_36 
REMARK   13  A    between atoms: N_23  and  C_30 
REMARK   14  A    between atoms: C_30  and  C_31 
REMARK   15  A    between atoms: C_31  and  C_32 
REMARK   16  A    between atoms: C_32  and  N_33 
ROOT
HETATM    1  C           1     -20.889  -7.801  -5.171  0.00  0.00     0.249 C 
HETATM    2  H           1     -22.662  -8.837  -5.430  0.00  0.00     0.163 HD
HETATM    3  N           1     -21.691  -8.910  -5.152  0.00  0.00    -0.345 N 
HETATM    4  O           1     -19.731  -7.887  -4.838  0.00  0.00    -0.271 OA
ENDROOT
BRANCH   1   5
HETATM    5  C           1     -21.452  -6.470  -5.607  0.00  0.00     0.274 C 
BRANCH   5   6
HETATM    6  C           1     -20.505  -5.355  -5.184  0.00  0.00     0.044 C 
BRANCH   6   7
HETATM    7  C           1     -20.000  -4.622  -6.419  0.00  0.00     0.023 C 
BRANCH   7   8
HETATM    8  C           1     -21.141  -3.828  -7.042  0.00  0.00     0.138 C 
BRANCH   8   9
HETATM    9  N           1     -21.299  -4.217  -8.451  0.00  0.00    -0.227 N 
HETATM   10  C           1     -22.438  -4.164  -8.998  0.00  0.00     0.665 C 
HETATM   11  N           1     -23.471  -3.766  -8.314  0.00  0.00    -0.235 N 
HETATM   12  N           1     -22.575  -4.500 -10.211  0.00  0.00    -0.235 N 
HETATM   13  H           1     -24.412  -3.723  -8.767  0.00  0.00     0.174 HD
HETATM   14  H           1     -23.358  -3.489  -7.314  0.00  0.00     0.174 HD
HETATM   15  H           1     -23.521  -4.456 -10.666  0.00  0.00     0.174 HD
HETATM   16  H           1     -21.741  -4.821 -10.764  0.00  0.00     0.174 HD
HETATM   17  H           1     -20.465  -4.539  -9.003  0.00  0.00     0.177 HD
ENDBRANCH   8   9
ENDBRANCH   7   8
ENDBRANCH   6   7
ENDBRANCH   5   6
BRANCH   5  18
HETATM   18  N           1     -22.790  -6.258  -4.963  0.00  0.00    -0.067 N 
HETATM   19  H           1     -23.026  -5.240  -4.978  0.00  0.00     0.275 HD
HETATM   20  H           1     -22.757  -6.594  -3.974  0.00  0.00     0.275 HD
HETATM   21  H           1     -23.518  -6.792  -5.488  0.00  0.00     0.275 HD
ENDBRANCH   5  18
ENDBRANCH   1   5
BRANCH   3  22
HETATM   22  C           1     -21.151 -10.189  -4.732  0.00  0.00     0.187 C 
BRANCH  22  23
HETATM   23  C           1     -20.755 -10.989  -5.949  0.00  0.00     0.196 C 
HETATM   24  O           1     -19.555 -11.049  -6.294  0.00  0.00    -0.646 OA
HETATM   25  O           1     -21.626 -11.592  -6.612  0.00  0.00    -0.646 OA
ENDBRANCH  22  23
BRANCH  22  26
HETATM   26  C           1     -22.208 -10.951  -3.944  0.00  0.00     0.066 C 
BRANCH  26  27
HETATM   27  C           1     -21.742 -11.123  -2.505  0.00  0.00     0.273 C 
BRANCH  27  28
HETATM   28  N           1     -20.353 -10.764  -2.403  0.00  0.00     0.098 N 
HETATM   29  H           1     -20.103 -10.149  -3.177  0.00  0.00     0.317 HD
BRANCH  28  30
HETATM   30  C           1     -20.173 -10.066  -1.158  0.00  0.00     0.320 C 
BRANCH  30  31
HETATM   31  C           1     -20.120 -11.064  -0.027  0.00  0.00     0.207 C 
HETATM   32  O           1     -20.928 -10.975   0.923  0.00  0.00    -0.646 OA
HETATM   33  O           1     -19.268 -11.979  -0.040  0.00  0.00    -0.646 OA
ENDBRANCH  30  31
BRANCH  30  34
HETATM   34  C           1     -21.340  -9.112  -0.940  0.00  0.00     0.057 C 
BRANCH  34  35
HETATM   35  C           1     -20.981  -7.737  -1.489  0.00  0.00     0.116 C 
BRANCH  35  36
HETATM   36  C           1     -22.170  -6.817  -1.359  0.00  0.00     0.172 C 
HETATM   37  O           1     -22.313  -5.864  -2.155  0.00  0.00    -0.648 OA
HETATM   38  O           1     -23.012  -7.008  -0.455  0.00  0.00    -0.648 OA
ENDBRANCH  35  36
ENDBRANCH  34  35
ENDBRANCH  30  34
ENDBRANCH  28  30
ENDBRANCH  27  28
ENDBRANCH  26  27
ENDBRANCH  22  26
ENDBRANCH   3  22
TORSDOF 16
ENDMDL
