MODEL 1
REMARK VINA RESULT:      -6.8      0.000      0.000
REMARK  6 active torsions:
REMARK  status: ('A' for Active; 'I' for Inactive)
REMARK    1  A    between atoms: C_2  and  C_3 
REMARK    2  A    between atoms: C_3  and  C_14 
REMARK    3  A    between atoms: C_3  and  N_13 
REMARK       I    between atoms: N_8  and  C_10 
REMARK    4  A    between atoms: C_10  and  C_17 
REMARK       I    between atoms: N_13  and  C_20 
REMARK    5  A    between atoms: C_14  and  C_17 
REMARK    6  A    between atoms: C_20  and  C_21 
ROOT
HETATM    1  C           1     -35.858  -0.816 -13.057  0.00  0.00     0.186 C 
ENDROOT
BRANCH   1   2
HETATM    2  C           1     -35.143   0.116 -14.005  0.00  0.00     0.196 C 
HETATM    3  O           1     -34.948  -0.228 -15.190  0.00  0.00    -0.646 OA
HETATM    4  O           1     -34.747   1.231 -13.605  0.00  0.00    -0.646 OA
ENDBRANCH   1   2
BRANCH   1   5
HETATM    5  C           1     -36.934  -0.045 -12.304  0.00  0.00     0.045 C 
BRANCH   5   6
HETATM    6  C           1     -37.166  -0.693 -10.945  0.00  0.00     0.105 C 
BRANCH   6   7
HETATM    7  C           1     -37.213   0.373  -9.879  0.00  0.00     0.215 C 
HETATM    8  N           1     -36.299   0.363  -8.860  0.00  0.00    -0.370 N 
HETATM    9  H           1     -36.329   1.078  -8.145  0.00  0.00     0.159 HD
HETATM   10  H           1     -35.592  -0.361  -8.822  0.00  0.00     0.159 HD
HETATM   11  O           1     -38.056   1.237  -9.925  0.00  0.00    -0.274 OA
ENDBRANCH   6   7
ENDBRANCH   5   6
ENDBRANCH   1   5
BRANCH   1  12
HETATM   12  N           1     -34.905  -1.367 -12.113  0.00  0.00    -0.345 N 
HETATM   13  H           1     -34.727  -0.892 -11.237  0.00  0.00     0.163 HD
HETATM   14  C           1     -34.246  -2.531 -12.405  0.00  0.00     0.251 C 
HETATM   15  O           1     -34.458  -3.099 -13.450  0.00  0.00    -0.271 OA
BRANCH  14  16
HETATM   16  C           1     -33.255  -3.104 -11.423  0.00  0.00     0.311 C 
HETATM   17  N           1     -33.926  -3.543 -10.203  0.00  0.00     0.097 N 
HETATM   18  C           1     -34.527  -4.830 -10.545  0.00  0.00     0.271 C 
HETATM   19  H           1     -33.255  -3.672  -9.446  0.00  0.00     0.317 HD
HETATM   20  C           1     -33.466  -5.511 -11.394  0.00  0.00     0.033 C 
HETATM   21  C           1     -32.627  -4.375 -11.967  0.00  0.00     0.047 C 
ENDBRANCH  14  16
ENDBRANCH   1  12
TORSDOF 6
ENDMDL
MODEL 2
REMARK VINA RESULT:      -6.8      2.088      3.665
REMARK  6 active torsions:
REMARK  status: ('A' for Active; 'I' for Inactive)
REMARK    1  A    between atoms: C_2  and  C_3 
REMARK    2  A    between atoms: C_3  and  C_14 
REMARK    3  A    between atoms: C_3  and  N_13 
REMARK       I    between atoms: N_8  and  C_10 
REMARK    4  A    between atoms: C_10  and  C_17 
REMARK       I    between atoms: N_13  and  C_20 
REMARK    5  A    between atoms: C_14  and  C_17 
REMARK    6  A    between atoms: C_20  and  C_21 
ROOT
HETATM    1  C           1     -35.571  -0.311 -12.320  0.00  0.00     0.186 C 
ENDROOT
BRANCH   1   2
HETATM    2  C           1     -37.016  -0.630 -12.027  0.00  0.00     0.196 C 
HETATM    3  O           1     -37.315  -1.303 -11.017  0.00  0.00    -0.646 OA
HETATM    4  O           1     -37.915  -0.221 -12.793  0.00  0.00    -0.646 OA
ENDBRANCH   1   2
BRANCH   1   5
HETATM    5  C           1     -35.484   0.519 -13.594  0.00  0.00     0.045 C 
BRANCH   5   6
HETATM    6  C           1     -35.298  -0.405 -14.790  0.00  0.00     0.105 C 
BRANCH   6   7
HETATM    7  C           1     -36.277  -0.029 -15.875  0.00  0.00     0.215 C 
HETATM    8  N           1     -37.171   0.988 -15.668  0.00  0.00    -0.370 N 
HETATM    9  H           1     -37.827   1.241 -16.395  0.00  0.00     0.159 HD
HETATM   10  H           1     -37.175   1.485 -14.786  0.00  0.00     0.159 HD
HETATM   11  O           1     -36.271  -0.622 -16.927  0.00  0.00    -0.274 OA
ENDBRANCH   6   7
ENDBRANCH   5   6
ENDBRANCH   1   5
BRANCH   1  12
HETATM   12  N           1     -34.830  -1.545 -12.494  0.00  0.00    -0.345 N 
HETATM   13  H           1     -34.864  -2.036 -13.378  0.00  0.00     0.163 HD
HETATM   14  C           1     -34.084  -2.047 -11.461  0.00  0.00     0.251 C 
HETATM   15  O           1     -34.044  -1.462 -10.405  0.00  0.00    -0.271 OA
BRANCH  14  16
HETATM   16  C           1     -33.314  -3.332 -11.642  0.00  0.00     0.311 C 
HETATM   17  N           1     -33.596  -4.265 -10.554  0.00  0.00     0.097 N 
HETATM   18  C           1     -34.895  -4.846 -10.884  0.00  0.00     0.271 C 
HETATM   19  H           1     -32.892  -5.002 -10.518  0.00  0.00     0.317 HD
HETATM   20  C           1     -34.823  -5.065 -12.386  0.00  0.00     0.033 C 
HETATM   21  C           1     -33.779  -4.072 -12.883  0.00  0.00     0.047 C 
ENDBRANCH  14  16
ENDBRANCH   1  12
TORSDOF 6
ENDMDL
MODEL 3
REMARK VINA RESULT:      -6.3      9.919     12.496
REMARK  6 active torsions:
REMARK  status: ('A' for Active; 'I' for Inactive)
REMARK    1  A    between atoms: C_2  and  C_3 
REMARK    2  A    between atoms: C_3  and  C_14 
REMARK    3  A    between atoms: C_3  and  N_13 
REMARK       I    between atoms: N_8  and  C_10 
REMARK    4  A    between atoms: C_10  and  C_17 
REMARK       I    between atoms: N_13  and  C_20 
REMARK    5  A    between atoms: C_14  and  C_17 
REMARK    6  A    between atoms: C_20  and  C_21 
ROOT
HETATM    1  C           1     -26.135  -6.771 -19.828  0.00  0.00     0.186 C 
ENDROOT
BRANCH   1   2
HETATM    2  C           1     -25.733  -7.628 -21.004  0.00  0.00     0.196 C 
HETATM    3  O           1     -24.664  -7.396 -21.609  0.00  0.00    -0.646 OA
HETATM    4  O           1     -26.468  -8.569 -21.372  0.00  0.00    -0.646 OA
ENDBRANCH   1   2
BRANCH   1   5
HETATM    5  C           1     -25.014  -6.770 -18.796  0.00  0.00     0.045 C 
BRANCH   5   6
HETATM    6  C           1     -25.583  -6.411 -17.429  0.00  0.00     0.105 C 
BRANCH   6   7
HETATM    7  C           1     -24.925  -7.262 -16.371  0.00  0.00     0.215 C 
HETATM    8  N           1     -23.893  -8.097 -16.708  0.00  0.00    -0.370 N 
HETATM    9  H           1     -23.451  -8.667 -15.998  0.00  0.00     0.159 HD
HETATM   10  H           1     -23.573  -8.143 -17.667  0.00  0.00     0.159 HD
HETATM   11  O           1     -25.308  -7.207 -15.227  0.00  0.00    -0.274 OA
ENDBRANCH   6   7
ENDBRANCH   5   6
ENDBRANCH   1   5
BRANCH   1  12
HETATM   12  N           1     -27.342  -7.308 -19.231  0.00  0.00    -0.345 N 
HETATM   13  H           1     -27.419  -8.300 -19.046  0.00  0.00     0.163 HD
HETATM   14  C           1     -28.381  -6.472 -18.917  0.00  0.00     0.251 C 
HETATM   15  O           1     -28.290  -5.288 -19.137  0.00  0.00    -0.271 OA
BRANCH  14  16
HETATM   16  C           1     -29.637  -7.030 -18.296  0.00  0.00     0.311 C 
HETATM   17  N           1     -29.315  -8.022 -17.273  0.00  0.00     0.097 N 
HETATM   18  C           1     -28.928  -7.242 -16.100  0.00  0.00     0.271 C 
HETATM   19  H           1     -30.133  -8.589 -17.050  0.00  0.00     0.317 HD
HETATM   20  C           1     -29.917  -6.089 -16.088  0.00  0.00     0.033 C 
HETATM   21  C           1     -30.387  -5.954 -17.532  0.00  0.00     0.047 C 
ENDBRANCH  14  16
ENDBRANCH   1  12
TORSDOF 6
ENDMDL
MODEL 4
REMARK VINA RESULT:      -5.8     12.383     14.790
REMARK  6 active torsions:
REMARK  status: ('A' for Active; 'I' for Inactive)
REMARK    1  A    between atoms: C_2  and  C_3 
REMARK    2  A    between atoms: C_3  and  C_14 
REMARK    3  A    between atoms: C_3  and  N_13 
REMARK       I    between atoms: N_8  and  C_10 
REMARK    4  A    between atoms: C_10  and  C_17 
REMARK       I    between atoms: N_13  and  C_20 
REMARK    5  A    between atoms: C_14  and  C_17 
REMARK    6  A    between atoms: C_20  and  C_21 
ROOT
HETATM    1  C           1     -21.829  -4.372  -8.312  0.00  0.00     0.186 C 
ENDROOT
BRANCH   1   2
HETATM    2  C           1     -23.123  -4.481  -7.541  0.00  0.00     0.196 C 
HETATM    3  O           1     -24.203  -4.171  -8.087  0.00  0.00    -0.646 OA
HETATM    4  O           1     -23.112  -4.881  -6.357  0.00  0.00    -0.646 OA
ENDBRANCH   1   2
BRANCH   1   5
HETATM    5  C           1     -20.765  -3.735  -7.428  0.00  0.00     0.045 C 
BRANCH   5   6
HETATM    6  C           1     -19.541  -4.640  -7.376  0.00  0.00     0.105 C 
BRANCH   6   7
HETATM    7  C           1     -19.836  -5.837  -6.506  0.00  0.00     0.215 C 
HETATM    8  N           1     -20.404  -5.664  -5.272  0.00  0.00    -0.370 N 
HETATM    9  H           1     -20.603  -6.466  -4.689  0.00  0.00     0.159 HD
HETATM   10  H           1     -20.626  -4.732  -4.944  0.00  0.00     0.159 HD
HETATM   11  O           1     -19.572  -6.949  -6.898  0.00  0.00    -0.274 OA
ENDBRANCH   6   7
ENDBRANCH   5   6
ENDBRANCH   1   5
BRANCH   1  12
HETATM   12  N           1     -22.038  -3.549  -9.488  0.00  0.00    -0.345 N 
HETATM   13  H           1     -22.648  -2.744  -9.441  0.00  0.00     0.163 HD
HETATM   14  C           1     -21.407  -3.863 -10.663  0.00  0.00     0.251 C 
HETATM   15  O           1     -20.679  -4.824 -10.719  0.00  0.00    -0.271 OA
BRANCH  14  16
HETATM   16  C           1     -21.624  -3.007 -11.887  0.00  0.00     0.311 C 
HETATM   17  N           1     -21.956  -3.832 -13.045  0.00  0.00     0.097 N 
HETATM   18  C           1     -23.367  -4.171 -12.874  0.00  0.00     0.271 C 
HETATM   19  H           1     -21.835  -3.306 -13.910  0.00  0.00     0.317 HD
HETATM   20  C           1     -23.989  -2.883 -12.360  0.00  0.00     0.033 C 
HETATM   21  C           1     -22.841  -2.117 -11.716  0.00  0.00     0.047 C 
ENDBRANCH  14  16
ENDBRANCH   1  12
TORSDOF 6
ENDMDL
MODEL 5
REMARK VINA RESULT:      -5.7     16.121     18.297
REMARK  6 active torsions:
REMARK  status: ('A' for Active; 'I' for Inactive)
REMARK    1  A    between atoms: C_2  and  C_3 
REMARK    2  A    between atoms: C_3  and  C_14 
REMARK    3  A    between atoms: C_3  and  N_13 
REMARK       I    between atoms: N_8  and  C_10 
REMARK    4  A    between atoms: C_10  and  C_17 
REMARK       I    between atoms: N_13  and  C_20 
REMARK    5  A    between atoms: C_14  and  C_17 
REMARK    6  A    between atoms: C_20  and  C_21 
ROOT
HETATM    1  C           1     -21.175  -7.838  -1.782  0.00  0.00     0.186 C 
ENDROOT
BRANCH   1   2
HETATM    2  C           1     -22.275  -6.904  -1.339  0.00  0.00     0.196 C 
HETATM    3  O           1     -22.510  -5.863  -1.990  0.00  0.00    -0.646 OA
HETATM    4  O           1     -22.950  -7.171  -0.322  0.00  0.00    -0.646 OA
ENDBRANCH   1   2
BRANCH   1   5
HETATM    5  C           1     -20.567  -7.325  -3.080  0.00  0.00     0.045 C 
BRANCH   5   6
HETATM    6  C           1     -21.131  -8.117  -4.253  0.00  0.00     0.105 C 
BRANCH   6   7
HETATM    7  C           1     -21.608  -7.164  -5.321  0.00  0.00     0.215 C 
HETATM    8  N           1     -22.548  -6.214  -5.021  0.00  0.00    -0.370 N 
HETATM    9  H           1     -22.868  -5.575  -5.737  0.00  0.00     0.159 HD
HETATM   10  H           1     -22.922  -6.152  -4.083  0.00  0.00     0.159 HD
HETATM   11  O           1     -21.161  -7.238  -6.441  0.00  0.00    -0.274 OA
ENDBRANCH   6   7
ENDBRANCH   5   6
ENDBRANCH   1   5
BRANCH   1  12
HETATM   12  N           1     -21.724  -9.163  -1.993  0.00  0.00    -0.345 N 
HETATM   13  H           1     -22.456  -9.305  -2.677  0.00  0.00     0.163 HD
HETATM   14  C           1     -21.250 -10.224  -1.269  0.00  0.00     0.251 C 
HETATM   15  O           1     -20.376 -10.056  -0.453  0.00  0.00    -0.271 OA
BRANCH  14  16
HETATM   16  C           1     -21.821 -11.603  -1.489  0.00  0.00     0.311 C 
HETATM   17  N           1     -22.104 -12.258  -0.215  0.00  0.00     0.097 N 
HETATM   18  C           1     -23.361 -11.670   0.241  0.00  0.00     0.271 C 
HETATM   19  H           1     -22.226 -13.263  -0.344  0.00  0.00     0.317 HD
HETATM   20  C           1     -24.192 -11.564  -1.027  0.00  0.00     0.033 C 
HETATM   21  C           1     -23.179 -11.525  -2.164  0.00  0.00     0.047 C 
ENDBRANCH  14  16
ENDBRANCH   1  12
TORSDOF 6
ENDMDL
MODEL 6
REMARK VINA RESULT:      -5.5      9.548     11.880
REMARK  6 active torsions:
REMARK  status: ('A' for Active; 'I' for Inactive)
REMARK    1  A    between atoms: C_2  and  C_3 
REMARK    2  A    between atoms: C_3  and  C_14 
REMARK    3  A    between atoms: C_3  and  N_13 
REMARK       I    between atoms: N_8  and  C_10 
REMARK    4  A    between atoms: C_10  and  C_17 
REMARK       I    between atoms: N_13  and  C_20 
REMARK    5  A    between atoms: C_14  and  C_17 
REMARK    6  A    between atoms: C_20  and  C_21 
ROOT
HETATM    1  C           1     -26.840  -6.298 -16.781  0.00  0.00     0.186 C 
ENDROOT
BRANCH   1   2
HETATM    2  C           1     -25.636  -6.481 -15.889  0.00  0.00     0.196 C 
HETATM    3  O           1     -25.006  -5.484 -15.478  0.00  0.00    -0.646 OA
HETATM    4  O           1     -25.271  -7.630 -15.562  0.00  0.00    -0.646 OA
ENDBRANCH   1   2
BRANCH   1   5
HETATM    5  C           1     -27.965  -7.210 -16.308  0.00  0.00     0.045 C 
BRANCH   5   6
HETATM    6  C           1     -29.017  -6.383 -15.581  0.00  0.00     0.105 C 
BRANCH   6   7
HETATM    7  C           1     -30.155  -6.075 -16.523  0.00  0.00     0.215 C 
HETATM    8  N           1     -30.483  -6.963 -17.513  0.00  0.00    -0.370 N 
HETATM    9  H           1     -31.246  -6.756 -18.145  0.00  0.00     0.159 HD
HETATM   10  H           1     -29.962  -7.825 -17.612  0.00  0.00     0.159 HD
HETATM   11  O           1     -30.776  -5.046 -16.405  0.00  0.00    -0.274 OA
ENDBRANCH   6   7
ENDBRANCH   5   6
ENDBRANCH   1   5
BRANCH   1  12
HETATM   12  N           1     -26.485  -6.634 -18.146  0.00  0.00    -0.345 N 
HETATM   13  H           1     -25.707  -7.254 -18.328  0.00  0.00     0.163 HD
HETATM   14  C           1     -27.204  -6.112 -19.189  0.00  0.00     0.251 C 
HETATM   15  O           1     -28.133  -5.372 -18.971  0.00  0.00    -0.271 OA
BRANCH  14  16
HETATM   16  C           1     -26.834  -6.462 -20.609  0.00  0.00     0.311 C 
HETATM   17  N           1     -25.613  -5.772 -21.013  0.00  0.00     0.097 N 
HETATM   18  C           1     -24.528  -6.538 -20.405  0.00  0.00     0.271 C 
HETATM   19  H           1     -25.510  -5.783 -22.028  0.00  0.00     0.317 HD
HETATM   20  C           1     -24.958  -7.984 -20.589  0.00  0.00     0.033 C 
HETATM   21  C           1     -26.475  -7.932 -20.728  0.00  0.00     0.047 C 
ENDBRANCH  14  16
ENDBRANCH   1  12
TORSDOF 6
ENDMDL
MODEL 7
REMARK VINA RESULT:      -5.4     15.559     17.594
REMARK  6 active torsions:
REMARK  status: ('A' for Active; 'I' for Inactive)
REMARK    1  A    between atoms: C_2  and  C_3 
REMARK    2  A    between atoms: C_3  and  C_14 
REMARK    3  A    between atoms: C_3  and  N_13 
REMARK       I    between atoms: N_8  and  C_10 
REMARK    4  A    between atoms: C_10  and  C_17 
REMARK       I    between atoms: N_13  and  C_20 
REMARK    5  A    between atoms: C_14  and  C_17 
REMARK    6  A    between atoms: C_20  and  C_21 
ROOT
HETATM    1  C           1     -21.349  -7.710  -3.309  0.00  0.00     0.186 C 
ENDROOT
BRANCH   1   2
HETATM    2  C           1     -21.963  -6.891  -2.200  0.00  0.00     0.196 C 
HETATM    3  O           1     -22.290  -7.440  -1.126  0.00  0.00    -0.646 OA
HETATM    4  O           1     -22.146  -5.665  -2.357  0.00  0.00    -0.646 OA
ENDBRANCH   1   2
BRANCH   1   5
HETATM    5  C           1     -20.381  -8.724  -2.714  0.00  0.00     0.045 C 
BRANCH   5   6
HETATM    6  C           1     -20.682 -10.106  -3.278  0.00  0.00     0.105 C 
BRANCH   6   7
HETATM    7  C           1     -22.024 -10.574  -2.774  0.00  0.00     0.215 C 
HETATM    8  N           1     -22.299 -10.548  -1.432  0.00  0.00    -0.370 N 
HETATM    9  H           1     -23.199 -10.862  -1.094  0.00  0.00     0.159 HD
HETATM   10  H           1     -21.600 -10.215  -0.780  0.00  0.00     0.159 HD
HETATM   11  O           1     -22.858 -10.971  -3.553  0.00  0.00    -0.274 OA
ENDBRANCH   6   7
ENDBRANCH   5   6
ENDBRANCH   1   5
BRANCH   1  12
HETATM   12  N           1     -20.635  -6.833  -4.217  0.00  0.00    -0.345 N 
HETATM   13  H           1     -20.111  -6.047  -3.855  0.00  0.00     0.163 HD
HETATM   14  C           1     -20.668  -7.070  -5.566  0.00  0.00     0.251 C 
HETATM   15  O           1     -21.293  -8.009  -5.999  0.00  0.00    -0.271 OA
BRANCH  14  16
HETATM   16  C           1     -19.925  -6.158  -6.511  0.00  0.00     0.311 C 
HETATM   17  N           1     -20.648  -6.014  -7.771  0.00  0.00     0.097 N 
HETATM   18  C           1     -21.718  -5.060  -7.485  0.00  0.00     0.271 C 
HETATM   19  H           1     -20.040  -5.636  -8.496  0.00  0.00     0.317 HD
HETATM   20  C           1     -21.049  -4.021  -6.600  0.00  0.00     0.033 C 
HETATM   21  C           1     -19.867  -4.743  -5.963  0.00  0.00     0.047 C 
ENDBRANCH  14  16
ENDBRANCH   1  12
TORSDOF 6
ENDMDL
MODEL 8
REMARK VINA RESULT:      -5.4      8.062     10.248
REMARK  6 active torsions:
REMARK  status: ('A' for Active; 'I' for Inactive)
REMARK    1  A    between atoms: C_2  and  C_3 
REMARK    2  A    between atoms: C_3  and  C_14 
REMARK    3  A    between atoms: C_3  and  N_13 
REMARK       I    between atoms: N_8  and  C_10 
REMARK    4  A    between atoms: C_10  and  C_17 
REMARK       I    between atoms: N_13  and  C_20 
REMARK    5  A    between atoms: C_14  and  C_17 
REMARK    6  A    between atoms: C_20  and  C_21 
ROOT
HETATM    1  C           1     -29.556  -7.445 -17.266  0.00  0.00     0.186 C 
ENDROOT
BRANCH   1   2
HETATM    2  C           1     -29.907  -8.016 -18.618  0.00  0.00     0.196 C 
HETATM    3  O           1     -29.002  -8.269 -19.443  0.00  0.00    -0.646 OA
HETATM    4  O           1     -31.101  -8.236 -18.914  0.00  0.00    -0.646 OA
ENDBRANCH   1   2
BRANCH   1   5
HETATM    5  C           1     -30.650  -6.481 -16.825  0.00  0.00     0.045 C 
BRANCH   5   6
HETATM    6  C           1     -30.596  -5.224 -17.684  0.00  0.00     0.105 C 
BRANCH   6   7
HETATM    7  C           1     -31.546  -4.192 -17.128  0.00  0.00     0.215 C 
HETATM    8  N           1     -32.468  -4.551 -16.181  0.00  0.00    -0.370 N 
HETATM    9  H           1     -33.105  -3.859 -15.807  0.00  0.00     0.159 HD
HETATM   10  H           1     -32.512  -5.508 -15.855  0.00  0.00     0.159 HD
HETATM   11  O           1     -31.493  -3.050 -17.517  0.00  0.00    -0.274 OA
ENDBRANCH   6   7
ENDBRANCH   5   6
ENDBRANCH   1   5
BRANCH   1  12
HETATM   12  N           1     -28.293  -6.738 -17.354  0.00  0.00    -0.345 N 
HETATM   13  H           1     -28.061  -6.218 -18.190  0.00  0.00     0.163 HD
HETATM   14  C           1     -27.415  -6.772 -16.303  0.00  0.00     0.251 C 
HETATM   15  O           1     -27.693  -7.393 -15.304  0.00  0.00    -0.271 OA
BRANCH  14  16
HETATM   16  C           1     -26.101  -6.037 -16.394  0.00  0.00     0.311 C 
HETATM   17  N           1     -25.144  -6.562 -15.424  0.00  0.00     0.097 N 
HETATM   18  C           1     -24.641  -7.797 -16.020  0.00  0.00     0.271 C 
HETATM   19  H           1     -24.371  -5.910 -15.290  0.00  0.00     0.317 HD
HETATM   20  C           1     -24.475  -7.449 -17.490  0.00  0.00     0.033 C 
HETATM   21  C           1     -25.432  -6.288 -17.734  0.00  0.00     0.047 C 
ENDBRANCH  14  16
ENDBRANCH   1  12
TORSDOF 6
ENDMDL
MODEL 9
REMARK VINA RESULT:      -5.3      9.244     11.222
REMARK  6 active torsions:
REMARK  status: ('A' for Active; 'I' for Inactive)
REMARK    1  A    between atoms: C_2  and  C_3 
REMARK    2  A    between atoms: C_3  and  C_14 
REMARK    3  A    between atoms: C_3  and  N_13 
REMARK       I    between atoms: N_8  and  C_10 
REMARK    4  A    between atoms: C_10  and  C_17 
REMARK       I    between atoms: N_13  and  C_20 
REMARK    5  A    between atoms: C_14  and  C_17 
REMARK    6  A    between atoms: C_20  and  C_21 
ROOT
HETATM    1  C           1     -28.998  -6.521 -18.075  0.00  0.00     0.186 C 
ENDROOT
BRANCH   1   2
HETATM    2  C           1     -29.543  -7.929 -18.046  0.00  0.00     0.196 C 
HETATM    3  O           1     -29.421  -8.624 -17.015  0.00  0.00    -0.646 OA
HETATM    4  O           1     -30.114  -8.399 -19.053  0.00  0.00    -0.646 OA
ENDBRANCH   1   2
BRANCH   1   5
HETATM    5  C           1     -30.152  -5.535 -18.200  0.00  0.00     0.045 C 
BRANCH   5   6
HETATM    6  C           1     -30.961  -5.535 -16.909  0.00  0.00     0.105 C 
BRANCH   6   7
HETATM    7  C           1     -31.877  -4.336 -16.889  0.00  0.00     0.215 C 
HETATM    8  N           1     -33.122  -4.435 -16.326  0.00  0.00    -0.370 N 
HETATM    9  H           1     -33.736  -3.631 -16.312  0.00  0.00     0.159 HD
HETATM   10  H           1     -33.426  -5.313 -15.924  0.00  0.00     0.159 HD
HETATM   11  O           1     -31.514  -3.288 -17.368  0.00  0.00    -0.274 OA
ENDBRANCH   6   7
ENDBRANCH   5   6
ENDBRANCH   1   5
BRANCH   1  12
HETATM   12  N           1     -28.109  -6.372 -19.210  0.00  0.00    -0.345 N 
HETATM   13  H           1     -28.477  -6.410 -20.152  0.00  0.00     0.163 HD
HETATM   14  C           1     -26.768  -6.177 -19.008  0.00  0.00     0.251 C 
HETATM   15  O           1     -26.327  -6.131 -17.885  0.00  0.00    -0.271 OA
BRANCH  14  16
HETATM   16  C           1     -25.842  -6.022 -20.189  0.00  0.00     0.311 C 
HETATM   17  N           1     -24.479  -6.408 -19.835  0.00  0.00     0.097 N 
HETATM   18  C           1     -24.481  -7.868 -19.865  0.00  0.00     0.271 C 
HETATM   19  H           1     -23.813  -6.054 -20.522  0.00  0.00     0.317 HD
HETATM   20  C           1     -25.323  -8.205 -21.084  0.00  0.00     0.033 C 
HETATM   21  C           1     -26.214  -6.988 -21.300  0.00  0.00     0.047 C 
ENDBRANCH  14  16
ENDBRANCH   1  12
TORSDOF 6
ENDMDL
