MODEL 1
REMARK VINA RESULT:      -6.3      0.000      0.000
REMARK  6 active torsions:
REMARK  status: ('A' for Active; 'I' for Inactive)
REMARK    1  A    between atoms: N_5  and  C_15 
REMARK       I    between atoms: N_5  and  C_17 
REMARK       I    between atoms: C_7  and  N_20 
REMARK    2  A    between atoms: C_7  and  C_12 
REMARK    3  A    between atoms: N_9  and  C_11 
REMARK    4  A    between atoms: C_11  and  C_17 
REMARK    5  A    between atoms: C_12  and  C_15 
REMARK    6  A    between atoms: C_13  and  C_15 
ROOT
HETATM    1  N           1     -35.177  -1.586 -13.567  0.00  0.00    -0.344 N 
HETATM    2  H           1     -35.271  -2.138 -14.410  0.00  0.00     0.163 HD
HETATM    3  C           1     -34.603  -2.133 -12.452  0.00  0.00     0.248 C 
HETATM    4  O           1     -34.492  -1.474 -11.445  0.00  0.00    -0.271 OA
ENDROOT
BRANCH   1   5
HETATM    5  C           1     -35.654  -0.217 -13.540  0.00  0.00     0.194 C 
BRANCH   5   6
HETATM    6  C           1     -35.462   0.414 -14.913  0.00  0.00     0.138 C 
BRANCH   6   7
HETATM    7  C           1     -35.629  -0.641 -15.980  0.00  0.00     0.217 C 
HETATM    8  O           1     -34.707  -1.369 -16.260  0.00  0.00    -0.274 OA
HETATM    9  N           1     -36.828  -0.773 -16.630  0.00  0.00    -0.370 N 
HETATM   10  H           1     -36.940  -1.480 -17.345  0.00  0.00     0.159 HD
HETATM   11  H           1     -37.600  -0.163 -16.395  0.00  0.00     0.159 HD
ENDBRANCH   6   7
ENDBRANCH   5   6
BRANCH   5  12
HETATM   12  C           1     -37.118  -0.201 -13.179  0.00  0.00     0.197 C 
HETATM   13  O           1     -37.959  -0.706 -13.954  0.00  0.00    -0.646 OA
HETATM   14  O           1     -37.492   0.317 -12.105  0.00  0.00    -0.646 OA
ENDBRANCH   5  12
ENDBRANCH   1   5
BRANCH   3  15
HETATM   15  C           1     -34.108  -3.558 -12.480  0.00  0.00     0.270 C 
HETATM   16  C           1     -32.839  -3.671 -11.645  0.00  0.00     0.050 C 
BRANCH  15  17
HETATM   17  N           1     -33.811  -3.956 -13.895  0.00  0.00    -0.067 N 
HETATM   18  H           1     -34.705  -4.029 -14.431  0.00  0.00     0.275 HD
HETATM   19  H           1     -33.324  -4.881 -13.900  0.00  0.00     0.275 HD
HETATM   20  H           1     -33.197  -3.237 -14.339  0.00  0.00     0.275 HD
ENDBRANCH  15  17
ENDBRANCH   3  15
TORSDOF 6
ENDMDL
MODEL 2
REMARK VINA RESULT:      -6.0     12.700     14.666
REMARK  6 active torsions:
REMARK  status: ('A' for Active; 'I' for Inactive)
REMARK    1  A    between atoms: N_5  and  C_15 
REMARK       I    between atoms: N_5  and  C_17 
REMARK       I    between atoms: C_7  and  N_20 
REMARK    2  A    between atoms: C_7  and  C_12 
REMARK    3  A    between atoms: N_9  and  C_11 
REMARK    4  A    between atoms: C_11  and  C_17 
REMARK    5  A    between atoms: C_12  and  C_15 
REMARK    6  A    between atoms: C_13  and  C_15 
ROOT
HETATM    1  N           1     -22.357  -4.818  -8.572  0.00  0.00    -0.344 N 
HETATM    2  H           1     -22.522  -5.810  -8.684  0.00  0.00     0.163 HD
HETATM    3  C           1     -21.742  -4.349  -7.443  0.00  0.00     0.248 C 
HETATM    4  O           1     -21.545  -3.164  -7.310  0.00  0.00    -0.271 OA
ENDROOT
BRANCH   1   5
HETATM    5  C           1     -22.773  -3.893  -9.609  0.00  0.00     0.194 C 
BRANCH   5   6
HETATM    6  C           1     -22.214  -4.349 -10.950  0.00  0.00     0.138 C 
BRANCH   6   7
HETATM    7  C           1     -20.734  -4.054 -11.005  0.00  0.00     0.217 C 
HETATM    8  O           1     -19.943  -4.851 -10.560  0.00  0.00    -0.274 OA
HETATM    9  N           1     -20.290  -2.883 -11.559  0.00  0.00    -0.370 N 
HETATM   10  H           1     -19.299  -2.685 -11.596  0.00  0.00     0.159 HD
HETATM   11  H           1     -20.954  -2.216 -11.931  0.00  0.00     0.159 HD
ENDBRANCH   6   7
ENDBRANCH   5   6
BRANCH   5  12
HETATM   12  C           1     -24.280  -3.859  -9.677  0.00  0.00     0.197 C 
HETATM   13  O           1     -24.921  -4.915  -9.871  0.00  0.00    -0.646 OA
HETATM   14  O           1     -24.888  -2.776  -9.539  0.00  0.00    -0.646 OA
ENDBRANCH   5  12
ENDBRANCH   1   5
BRANCH   3  15
HETATM   15  C           1     -21.309  -5.311  -6.365  0.00  0.00     0.270 C 
HETATM   16  C           1     -20.162  -4.701  -5.570  0.00  0.00     0.050 C 
BRANCH  15  17
HETATM   17  N           1     -20.854  -6.595  -6.993  0.00  0.00    -0.067 N 
HETATM   18  H           1     -21.565  -7.340  -6.818  0.00  0.00     0.275 HD
HETATM   19  H           1     -19.939  -6.879  -6.577  0.00  0.00     0.275 HD
HETATM   20  H           1     -20.740  -6.458  -8.023  0.00  0.00     0.275 HD
ENDBRANCH  15  17
ENDBRANCH   3  15
TORSDOF 6
ENDMDL
MODEL 3
REMARK VINA RESULT:      -5.9     10.363     12.399
REMARK  6 active torsions:
REMARK  status: ('A' for Active; 'I' for Inactive)
REMARK    1  A    between atoms: N_5  and  C_15 
REMARK       I    between atoms: N_5  and  C_17 
REMARK       I    between atoms: C_7  and  N_20 
REMARK    2  A    between atoms: C_7  and  C_12 
REMARK    3  A    between atoms: N_9  and  C_11 
REMARK    4  A    between atoms: C_11  and  C_17 
REMARK    5  A    between atoms: C_12  and  C_15 
REMARK    6  A    between atoms: C_13  and  C_15 
ROOT
HETATM    1  N           1     -27.294  -7.171 -19.139  0.00  0.00    -0.344 N 
HETATM    2  H           1     -26.990  -8.016 -18.672  0.00  0.00     0.163 HD
HETATM    3  C           1     -28.213  -6.353 -18.540  0.00  0.00     0.248 C 
HETATM    4  O           1     -28.576  -5.344 -19.097  0.00  0.00    -0.271 OA
ENDROOT
BRANCH   1   5
HETATM    5  C           1     -26.758  -6.829 -20.442  0.00  0.00     0.194 C 
BRANCH   5   6
HETATM    6  C           1     -25.401  -6.160 -20.272  0.00  0.00     0.138 C 
BRANCH   6   7
HETATM    7  C           1     -24.601  -6.901 -19.228  0.00  0.00     0.217 C 
HETATM    8  O           1     -24.766  -6.658 -18.056  0.00  0.00    -0.274 OA
HETATM    9  N           1     -23.689  -7.848 -19.610  0.00  0.00    -0.370 N 
HETATM   10  H           1     -23.152  -8.345 -18.911  0.00  0.00     0.159 HD
HETATM   11  H           1     -23.551  -8.051 -20.592  0.00  0.00     0.159 HD
ENDBRANCH   6   7
ENDBRANCH   5   6
BRANCH   5  12
HETATM   12  C           1     -26.602  -8.083 -21.266  0.00  0.00     0.197 C 
HETATM   13  O           1     -25.510  -8.335 -21.820  0.00  0.00    -0.646 OA
HETATM   14  O           1     -27.564  -8.870 -21.396  0.00  0.00    -0.646 OA
ENDBRANCH   5  12
ENDBRANCH   1   5
BRANCH   3  15
HETATM   15  C           1     -28.771  -6.709 -17.184  0.00  0.00     0.270 C 
HETATM   16  C           1     -27.661  -6.637 -16.143  0.00  0.00     0.050 C 
BRANCH  15  17
HETATM   17  N           1     -29.329  -8.101 -17.222  0.00  0.00    -0.067 N 
HETATM   18  H           1     -29.607  -8.391 -16.258  0.00  0.00     0.275 HD
HETATM   19  H           1     -28.602  -8.756 -17.589  0.00  0.00     0.275 HD
HETATM   20  H           1     -30.166  -8.124 -17.848  0.00  0.00     0.275 HD
ENDBRANCH  15  17
ENDBRANCH   3  15
TORSDOF 6
ENDMDL
MODEL 4
REMARK VINA RESULT:      -5.6     12.035     13.733
REMARK  6 active torsions:
REMARK  status: ('A' for Active; 'I' for Inactive)
REMARK    1  A    between atoms: N_5  and  C_15 
REMARK       I    between atoms: N_5  and  C_17 
REMARK       I    between atoms: C_7  and  N_20 
REMARK    2  A    between atoms: C_7  and  C_12 
REMARK    3  A    between atoms: N_9  and  C_11 
REMARK    4  A    between atoms: C_11  and  C_17 
REMARK    5  A    between atoms: C_12  and  C_15 
REMARK    6  A    between atoms: C_13  and  C_15 
ROOT
HETATM    1  N           1     -22.370  -4.638  -9.472  0.00  0.00    -0.344 N 
HETATM    2  H           1     -22.777  -5.333  -8.858  0.00  0.00     0.163 HD
HETATM    3  C           1     -21.025  -4.390  -9.429  0.00  0.00     0.248 C 
HETATM    4  O           1     -20.541  -3.561 -10.162  0.00  0.00    -0.271 OA
ENDROOT
BRANCH   1   5
HETATM    5  C           1     -23.214  -3.905 -10.396  0.00  0.00     0.194 C 
BRANCH   5   6
HETATM    6  C           1     -23.268  -4.642 -11.727  0.00  0.00     0.138 C 
BRANCH   6   7
HETATM    7  C           1     -23.436  -3.644 -12.848  0.00  0.00     0.217 C 
HETATM    8  O           1     -24.536  -3.239 -13.136  0.00  0.00    -0.274 OA
HETATM    9  N           1     -22.339  -3.200 -13.538  0.00  0.00    -0.370 N 
HETATM   10  H           1     -22.452  -2.531 -14.289  0.00  0.00     0.159 HD
HETATM   11  H           1     -21.417  -3.540 -13.297  0.00  0.00     0.159 HD
ENDBRANCH   6   7
ENDBRANCH   5   6
BRANCH   5  12
HETATM   12  C           1     -24.606  -3.793  -9.825  0.00  0.00     0.197 C 
HETATM   13  O           1     -25.092  -2.668  -9.578  0.00  0.00    -0.646 OA
HETATM   14  O           1     -25.275  -4.825  -9.600  0.00  0.00    -0.646 OA
ENDBRANCH   5  12
ENDBRANCH   1   5
BRANCH   3  15
HETATM   15  C           1     -20.148  -5.153  -8.467  0.00  0.00     0.270 C 
HETATM   16  C           1     -21.011  -5.783  -7.382  0.00  0.00     0.050 C 
BRANCH  15  17
HETATM   17  N           1     -19.161  -4.215  -7.838  0.00  0.00    -0.067 N 
HETATM   18  H           1     -19.115  -4.396  -6.810  0.00  0.00     0.275 HD
HETATM   19  H           1     -19.463  -3.229  -8.006  0.00  0.00     0.275 HD
HETATM   20  H           1     -18.217  -4.366  -8.261  0.00  0.00     0.275 HD
ENDBRANCH  15  17
ENDBRANCH   3  15
TORSDOF 6
ENDMDL
MODEL 5
REMARK VINA RESULT:      -5.4     11.997     14.381
REMARK  6 active torsions:
REMARK  status: ('A' for Active; 'I' for Inactive)
REMARK    1  A    between atoms: N_5  and  C_15 
REMARK       I    between atoms: N_5  and  C_17 
REMARK       I    between atoms: C_7  and  N_20 
REMARK    2  A    between atoms: C_7  and  C_12 
REMARK    3  A    between atoms: N_9  and  C_11 
REMARK    4  A    between atoms: C_11  and  C_17 
REMARK    5  A    between atoms: C_12  and  C_15 
REMARK    6  A    between atoms: C_13  and  C_15 
ROOT
HETATM    1  N           1     -21.843  -3.879  -9.691  0.00  0.00    -0.344 N 
HETATM    2  H           1     -22.402  -3.210  -9.178  0.00  0.00     0.163 HD
HETATM    3  C           1     -20.641  -4.296  -9.186  0.00  0.00     0.248 C 
HETATM    4  O           1     -19.973  -5.095  -9.798  0.00  0.00    -0.271 OA
ENDROOT
BRANCH   1   5
HETATM    5  C           1     -22.313  -4.395 -10.962  0.00  0.00     0.194 C 
BRANCH   5   6
HETATM    6  C           1     -23.734  -4.918 -10.803  0.00  0.00     0.138 C 
BRANCH   6   7
HETATM    7  C           1     -24.547  -3.932 -10.000  0.00  0.00     0.217 C 
HETATM    8  O           1     -25.300  -3.172 -10.560  0.00  0.00    -0.274 OA
HETATM    9  N           1     -24.430  -3.900  -8.635  0.00  0.00    -0.370 N 
HETATM   10  H           1     -24.975  -3.240  -8.097  0.00  0.00     0.159 HD
HETATM   11  H           1     -23.799  -4.537  -8.166  0.00  0.00     0.159 HD
ENDBRANCH   6   7
ENDBRANCH   5   6
BRANCH   5  12
HETATM   12  C           1     -22.295  -3.291 -11.990  0.00  0.00     0.197 C 
HETATM   13  O           1     -21.680  -2.227 -11.755  0.00  0.00    -0.646 OA
HETATM   14  O           1     -22.894  -3.438 -13.077  0.00  0.00    -0.646 OA
ENDBRANCH   5  12
ENDBRANCH   1   5
BRANCH   3  15
HETATM   15  C           1     -20.152  -3.760  -7.863  0.00  0.00     0.270 C 
HETATM   16  C           1     -19.344  -4.834  -7.146  0.00  0.00     0.050 C 
BRANCH  15  17
HETATM   17  N           1     -21.327  -3.371  -7.016  0.00  0.00    -0.067 N 
HETATM   18  H           1     -21.170  -3.693  -6.034  0.00  0.00     0.275 HD
HETATM   19  H           1     -22.192  -3.818  -7.396  0.00  0.00     0.275 HD
HETATM   20  H           1     -21.438  -2.332  -7.028  0.00  0.00     0.275 HD
ENDBRANCH  15  17
ENDBRANCH   3  15
TORSDOF 6
ENDMDL
MODEL 6
REMARK VINA RESULT:      -5.4     12.246     14.651
REMARK  6 active torsions:
REMARK  status: ('A' for Active; 'I' for Inactive)
REMARK    1  A    between atoms: N_5  and  C_15 
REMARK       I    between atoms: N_5  and  C_17 
REMARK       I    between atoms: C_7  and  N_20 
REMARK    2  A    between atoms: C_7  and  C_12 
REMARK    3  A    between atoms: N_9  and  C_11 
REMARK    4  A    between atoms: C_11  and  C_17 
REMARK    5  A    between atoms: C_12  and  C_15 
REMARK    6  A    between atoms: C_13  and  C_15 
ROOT
HETATM    1  N           1     -21.196  -4.280  -8.841  0.00  0.00    -0.344 N 
HETATM    2  H           1     -20.207  -4.120  -8.982  0.00  0.00     0.163 HD
HETATM    3  C           1     -21.685  -4.475  -7.578  0.00  0.00     0.248 C 
HETATM    4  O           1     -22.866  -4.667  -7.410  0.00  0.00    -0.271 OA
ENDROOT
BRANCH   1   5
HETATM    5  C           1     -22.095  -4.306  -9.979  0.00  0.00     0.194 C 
BRANCH   5   6
HETATM    6  C           1     -23.058  -3.129  -9.890  0.00  0.00     0.138 C 
BRANCH   6   7
HETATM    7  C           1     -24.441  -3.579 -10.292  0.00  0.00     0.217 C 
HETATM    8  O           1     -24.961  -3.124 -11.284  0.00  0.00    -0.274 OA
HETATM    9  N           1     -25.108  -4.503  -9.533  0.00  0.00    -0.370 N 
HETATM   10  H           1     -26.035  -4.805  -9.802  0.00  0.00     0.159 HD
HETATM   11  H           1     -24.673  -4.885  -8.703  0.00  0.00     0.159 HD
ENDBRANCH   6   7
ENDBRANCH   5   6
BRANCH   5  12
HETATM   12  C           1     -21.296  -4.208 -11.254  0.00  0.00     0.197 C 
HETATM   13  O           1     -21.870  -3.948 -12.334  0.00  0.00    -0.646 OA
HETATM   14  O           1     -20.059  -4.385 -11.232  0.00  0.00    -0.646 OA
ENDBRANCH   5  12
ENDBRANCH   1   5
BRANCH   3  15
HETATM   15  C           1     -20.750  -4.449  -6.394  0.00  0.00     0.270 C 
HETATM   16  C           1     -19.318  -4.645  -6.874  0.00  0.00     0.050 C 
BRANCH  15  17
HETATM   17  N           1     -21.113  -5.552  -5.445  0.00  0.00    -0.067 N 
HETATM   18  H           1     -21.417  -5.141  -4.533  0.00  0.00     0.275 HD
HETATM   19  H           1     -20.282  -6.166  -5.292  0.00  0.00     0.275 HD
HETATM   20  H           1     -21.893  -6.117  -5.849  0.00  0.00     0.275 HD
ENDBRANCH  15  17
ENDBRANCH   3  15
TORSDOF 6
ENDMDL
MODEL 7
REMARK VINA RESULT:      -5.3     12.515     15.330
REMARK  6 active torsions:
REMARK  status: ('A' for Active; 'I' for Inactive)
REMARK    1  A    between atoms: N_5  and  C_15 
REMARK       I    between atoms: N_5  and  C_17 
REMARK       I    between atoms: C_7  and  N_20 
REMARK    2  A    between atoms: C_7  and  C_12 
REMARK    3  A    between atoms: N_9  and  C_11 
REMARK    4  A    between atoms: C_11  and  C_17 
REMARK    5  A    between atoms: C_12  and  C_15 
REMARK    6  A    between atoms: C_13  and  C_15 
ROOT
HETATM    1  N           1     -21.689  -3.804 -10.015  0.00  0.00    -0.344 N 
HETATM    2  H           1     -20.964  -3.139 -10.249  0.00  0.00     0.163 HD
HETATM    3  C           1     -22.815  -3.890 -10.789  0.00  0.00     0.248 C 
HETATM    4  O           1     -23.681  -4.684 -10.510  0.00  0.00    -0.271 OA
ENDROOT
BRANCH   1   5
HETATM    5  C           1     -21.538  -4.665  -8.858  0.00  0.00     0.194 C 
BRANCH   5   6
HETATM    6  C           1     -20.057  -4.908  -8.597  0.00  0.00     0.138 C 
BRANCH   6   7
HETATM    7  C           1     -19.885  -5.561  -7.247  0.00  0.00     0.217 C 
HETATM    8  O           1     -20.136  -6.735  -7.107  0.00  0.00    -0.274 OA
HETATM    9  N           1     -19.443  -4.823  -6.182  0.00  0.00    -0.370 N 
HETATM   10  H           1     -19.327  -5.261  -5.277  0.00  0.00     0.159 HD
HETATM   11  H           1     -19.233  -3.840  -6.299  0.00  0.00     0.159 HD
ENDBRANCH   6   7
ENDBRANCH   5   6
BRANCH   5  12
HETATM   12  C           1     -22.160  -4.003  -7.654  0.00  0.00     0.197 C 
HETATM   13  O           1     -23.216  -4.460  -7.165  0.00  0.00    -0.646 OA
HETATM   14  O           1     -21.619  -2.999  -7.143  0.00  0.00    -0.646 OA
ENDBRANCH   5  12
ENDBRANCH   1   5
BRANCH   3  15
HETATM   15  C           1     -22.972  -2.993 -11.993  0.00  0.00     0.270 C 
HETATM   16  C           1     -24.408  -3.065 -12.495  0.00  0.00     0.050 C 
BRANCH  15  17
HETATM   17  N           1     -22.040  -3.445 -13.078  0.00  0.00    -0.067 N 
HETATM   18  H           1     -21.921  -2.678 -13.777  0.00  0.00     0.275 HD
HETATM   19  H           1     -22.440  -4.288 -13.550  0.00  0.00     0.275 HD
HETATM   20  H           1     -21.112  -3.686 -12.663  0.00  0.00     0.275 HD
ENDBRANCH  15  17
ENDBRANCH   3  15
TORSDOF 6
ENDMDL
MODEL 8
REMARK VINA RESULT:      -5.1      8.800     10.593
REMARK  6 active torsions:
REMARK  status: ('A' for Active; 'I' for Inactive)
REMARK    1  A    between atoms: N_5  and  C_15 
REMARK       I    between atoms: N_5  and  C_17 
REMARK       I    between atoms: C_7  and  N_20 
REMARK    2  A    between atoms: C_7  and  C_12 
REMARK    3  A    between atoms: N_9  and  C_11 
REMARK    4  A    between atoms: C_11  and  C_17 
REMARK    5  A    between atoms: C_12  and  C_15 
REMARK    6  A    between atoms: C_13  and  C_15 
ROOT
HETATM    1  N           1     -27.079  -6.799 -18.052  0.00  0.00    -0.344 N 
HETATM    2  H           1     -26.388  -7.425 -17.658  0.00  0.00     0.163 HD
HETATM    3  C           1     -26.967  -6.388 -19.352  0.00  0.00     0.248 C 
HETATM    4  O           1     -27.791  -5.640 -19.822  0.00  0.00    -0.271 OA
ENDROOT
BRANCH   1   5
HETATM    5  C           1     -28.185  -6.336 -17.237  0.00  0.00     0.194 C 
BRANCH   5   6
HETATM    6  C           1     -29.427  -7.159 -17.552  0.00  0.00     0.138 C 
BRANCH   6   7
HETATM    7  C           1     -30.650  -6.279 -17.463  0.00  0.00     0.217 C 
HETATM    8  O           1     -30.546  -5.083 -17.598  0.00  0.00    -0.274 OA
HETATM    9  N           1     -31.879  -6.837 -17.229  0.00  0.00    -0.370 N 
HETATM   10  H           1     -32.699  -6.248 -17.170  0.00  0.00     0.159 HD
HETATM   11  H           1     -31.966  -7.839 -17.116  0.00  0.00     0.159 HD
ENDBRANCH   6   7
ENDBRANCH   5   6
BRANCH   5  12
HETATM   12  C           1     -27.835  -6.491 -15.778  0.00  0.00     0.197 C 
HETATM   13  O           1     -27.093  -7.428 -15.409  0.00  0.00    -0.646 OA
HETATM   14  O           1     -28.286  -5.684 -14.937  0.00  0.00    -0.646 OA
ENDBRANCH   5  12
ENDBRANCH   1   5
BRANCH   3  15
HETATM   15  C           1     -25.815  -6.870 -20.200  0.00  0.00     0.270 C 
HETATM   16  C           1     -26.275  -8.036 -21.065  0.00  0.00     0.050 C 
BRANCH  15  17
HETATM   17  N           1     -24.694  -7.319 -19.311  0.00  0.00    -0.067 N 
HETATM   18  H           1     -24.510  -8.336 -19.469  0.00  0.00     0.275 HD
HETATM   19  H           1     -24.959  -7.164 -18.312  0.00  0.00     0.275 HD
HETATM   20  H           1     -23.832  -6.771 -19.532  0.00  0.00     0.275 HD
ENDBRANCH  15  17
ENDBRANCH   3  15
TORSDOF 6
ENDMDL
MODEL 9
REMARK VINA RESULT:      -5.0     11.880     14.221
REMARK  6 active torsions:
REMARK  status: ('A' for Active; 'I' for Inactive)
REMARK    1  A    between atoms: N_5  and  C_15 
REMARK       I    between atoms: N_5  and  C_17 
REMARK       I    between atoms: C_7  and  N_20 
REMARK    2  A    between atoms: C_7  and  C_12 
REMARK    3  A    between atoms: N_9  and  C_11 
REMARK    4  A    between atoms: C_11  and  C_17 
REMARK    5  A    between atoms: C_12  and  C_15 
REMARK    6  A    between atoms: C_13  and  C_15 
ROOT
HETATM    1  N           1     -22.302  -3.539  -9.447  0.00  0.00    -0.344 N 
HETATM    2  H           1     -22.701  -2.660  -9.141  0.00  0.00     0.163 HD
HETATM    3  C           1     -22.058  -4.533  -8.539  0.00  0.00     0.248 C 
HETATM    4  O           1     -21.582  -5.581  -8.905  0.00  0.00    -0.271 OA
ENDROOT
BRANCH   1   5
HETATM    5  C           1     -21.987  -3.743 -10.848  0.00  0.00     0.194 C 
BRANCH   5   6
HETATM    6  C           1     -22.781  -2.757 -11.695  0.00  0.00     0.138 C 
BRANCH   6   7
HETATM    7  C           1     -24.103  -3.374 -12.080  0.00  0.00     0.217 C 
HETATM    8  O           1     -25.067  -3.234 -11.364  0.00  0.00    -0.274 OA
HETATM    9  N           1     -24.211  -4.094 -13.240  0.00  0.00    -0.370 N 
HETATM   10  H           1     -25.097  -4.507 -13.498  0.00  0.00     0.159 HD
HETATM   11  H           1     -23.404  -4.211 -13.839  0.00  0.00     0.159 HD
ENDBRANCH   6   7
ENDBRANCH   5   6
BRANCH   5  12
HETATM   12  C           1     -20.512  -3.523 -11.069  0.00  0.00     0.197 C 
HETATM   13  O           1     -19.735  -4.501 -11.126  0.00  0.00    -0.646 OA
HETATM   14  O           1     -20.064  -2.363 -11.196  0.00  0.00    -0.646 OA
ENDBRANCH   5  12
ENDBRANCH   1   5
BRANCH   3  15
HETATM   15  C           1     -22.386  -4.320  -7.081  0.00  0.00     0.270 C 
HETATM   16  C           1     -21.630  -5.337  -6.237  0.00  0.00     0.050 C 
BRANCH  15  17
HETATM   17  N           1     -23.861  -4.494  -6.870  0.00  0.00    -0.067 N 
HETATM   18  H           1     -24.295  -4.877  -7.740  0.00  0.00     0.275 HD
HETATM   19  H           1     -24.290  -3.569  -6.642  0.00  0.00     0.275 HD
HETATM   20  H           1     -24.024  -5.157  -6.079  0.00  0.00     0.275 HD
ENDBRANCH  15  17
ENDBRANCH   3  15
TORSDOF 6
ENDMDL
