MODEL 1
REMARK VINA RESULT:      -7.6      0.000      0.000
REMARK  17 active torsions:
REMARK  status: ('A' for Active; 'I' for Inactive)
REMARK       I    between atoms: C_2  and  N_3 
REMARK       I    between atoms: C_2  and  N_4 
REMARK    1  A    between atoms: N_5  and  C_33 
REMARK    2  A    between atoms: O_6  and  P_37 
REMARK    3  A    between atoms: N_8  and  C_16 
REMARK    4  A    between atoms: N_8  and  C_9 
REMARK    5  A    between atoms: C_9  and  C_10 
REMARK    6  A    between atoms: C_10  and  C_19 
REMARK    7  A    between atoms: C_11  and  C_16 
REMARK    8  A    between atoms: C_12  and  C_33 
REMARK    9  A    between atoms: C_12  and  C_13 
REMARK   10  A    between atoms: C_13  and  C_14 
REMARK   11  A    between atoms: C_14  and  N_15 
REMARK   12  A    between atoms: C_16  and  C_18 
REMARK   13  A    between atoms: C_18  and  O_36 
REMARK   14  A    between atoms: C_19  and  C_20 
REMARK   15  A    between atoms: C_19  and  N_35 
REMARK   16  A    between atoms: C_33  and  C_34 
REMARK       I    between atoms: C_34  and  N_35 
REMARK   17  A    between atoms: O_36  and  P_37 
ROOT
HETATM    1  O           1     -22.091  -7.268  -5.117  0.00  0.00    -0.271 OA
HETATM    2  H           1     -20.515  -4.586  -4.715  0.00  0.00     0.163 HD
HETATM    3  C           1     -21.505  -6.394  -4.525  0.00  0.00     0.249 C 
HETATM    4  N           1     -21.007  -5.319  -5.211  0.00  0.00    -0.345 N 
ENDROOT
BRANCH   4   5
HETATM    5  C           1     -21.185  -5.229  -6.647  0.00  0.00     0.187 C 
BRANCH   5   6
HETATM    6  C           1     -21.533  -3.796  -7.026  0.00  0.00     0.066 C 
BRANCH   6   7
HETATM    7  C           1     -22.674  -3.800  -8.034  0.00  0.00     0.273 C 
BRANCH   7   8
HETATM    8  N           1     -22.143  -3.981  -9.359  0.00  0.00     0.100 N 
HETATM    9  H           1     -22.138  -4.974  -9.590  0.00  0.00     0.317 HD
BRANCH   8  10
HETATM   10  C           1     -23.000  -3.279 -10.275  0.00  0.00     0.344 C 
BRANCH  10  11
HETATM   11  C           1     -24.390  -3.864 -10.211  0.00  0.00     0.209 C 
HETATM   12  O           1     -24.551  -5.101 -10.290  0.00  0.00    -0.646 OA
HETATM   13  O           1     -25.379  -3.112 -10.080  0.00  0.00    -0.646 OA
ENDBRANCH  10  11
BRANCH  10  14
HETATM   14  C           1     -22.454  -3.419 -11.689  0.00  0.00     0.228 C 
BRANCH  14  15
HETATM   15  O           1     -22.831  -2.303 -12.449  0.00  0.00    -0.287 OA
BRANCH  15  16
HETATM   16  P           1     -23.598  -2.617 -13.835  0.00  0.00     0.406 P 
HETATM   17  O           1     -22.605  -2.802 -14.917  0.00  0.00    -0.624 OA
HETATM   18  O           1     -24.401  -3.850 -13.687  0.00  0.00    -0.624 OA
BRANCH  16  19
HETATM   19  O           1     -24.571  -1.382 -14.203  0.00  0.00    -0.300 OA
HETATM   20  H           1     -24.058  -0.825 -14.763  0.00  0.00     0.223 HD
ENDBRANCH  16  19
ENDBRANCH  15  16
ENDBRANCH  14  15
ENDBRANCH  10  14
ENDBRANCH   8  10
ENDBRANCH   7   8
ENDBRANCH   6   7
ENDBRANCH   5   6
BRANCH   5  21
HETATM   21  C           1     -19.907  -5.637  -7.338  0.00  0.00     0.196 C 
HETATM   22  O           1     -19.307  -4.824  -8.075  0.00  0.00    -0.646 OA
HETATM   23  O           1     -19.447  -6.787  -7.172  0.00  0.00    -0.646 OA
ENDBRANCH   5  21
ENDBRANCH   4   5
BRANCH   3  24
HETATM   24  C           1     -21.319  -6.486  -3.030  0.00  0.00     0.274 C 
BRANCH  24  25
HETATM   25  N           1     -22.515  -5.899  -2.341  0.00  0.00    -0.067 N 
HETATM   26  H           1     -23.331  -5.904  -2.995  0.00  0.00     0.275 HD
HETATM   27  H           1     -22.742  -6.469  -1.495  0.00  0.00     0.275 HD
HETATM   28  H           1     -22.304  -4.917  -2.054  0.00  0.00     0.257 HD
ENDBRANCH  24  25
BRANCH  24  29
HETATM   29  C           1     -21.168  -7.948  -2.627  0.00  0.00     0.044 C 
BRANCH  29  30
HETATM   30  C           1     -20.595  -8.030  -1.218  0.00  0.00     0.023 C 
BRANCH  30  31
HETATM   31  C           1     -20.933  -9.386  -0.612  0.00  0.00     0.156 C 
BRANCH  31  32
HETATM   32  N           1     -22.392  -9.554  -0.566  0.00  0.00    -0.227 N 
HETATM   33  C           1     -22.892 -10.638  -0.144  0.00  0.00     0.665 C 
HETATM   34  N           1     -24.150 -10.782  -0.104  0.00  0.00    -0.235 N 
HETATM   35  N           1     -22.115 -11.602   0.251  0.00  0.00    -0.235 N 
HETATM   36  H           1     -24.564 -11.682   0.246  0.00  0.00     0.174 HD
HETATM   37  H           1     -24.777 -10.004  -0.423  0.00  0.00     0.174 HD
HETATM   38  H           1     -22.527 -12.497   0.600  0.00  0.00     0.174 HD
HETATM   39  H           1     -21.077 -11.482   0.219  0.00  0.00     0.174 HD
HETATM   40  H           1     -23.021  -8.776  -0.885  0.00  0.00     0.177 HD
ENDBRANCH  31  32
ENDBRANCH  30  31
ENDBRANCH  29  30
ENDBRANCH  24  29
ENDBRANCH   3  24
TORSDOF 17
ENDMDL
MODEL 2
REMARK VINA RESULT:      -7.1     12.105     14.700
REMARK  17 active torsions:
REMARK  status: ('A' for Active; 'I' for Inactive)
REMARK       I    between atoms: C_2  and  N_3 
REMARK       I    between atoms: C_2  and  N_4 
REMARK    1  A    between atoms: N_5  and  C_33 
REMARK    2  A    between atoms: O_6  and  P_37 
REMARK    3  A    between atoms: N_8  and  C_16 
REMARK    4  A    between atoms: N_8  and  C_9 
REMARK    5  A    between atoms: C_9  and  C_10 
REMARK    6  A    between atoms: C_10  and  C_19 
REMARK    7  A    between atoms: C_11  and  C_16 
REMARK    8  A    between atoms: C_12  and  C_33 
REMARK    9  A    between atoms: C_12  and  C_13 
REMARK   10  A    between atoms: C_13  and  C_14 
REMARK   11  A    between atoms: C_14  and  N_15 
REMARK   12  A    between atoms: C_16  and  C_18 
REMARK   13  A    between atoms: C_18  and  O_36 
REMARK   14  A    between atoms: C_19  and  C_20 
REMARK   15  A    between atoms: C_19  and  N_35 
REMARK   16  A    between atoms: C_33  and  C_34 
REMARK       I    between atoms: C_34  and  N_35 
REMARK   17  A    between atoms: O_36  and  P_37 
ROOT
HETATM    1  O           1     -31.916  -7.170 -17.832  0.00  0.00    -0.271 OA
HETATM    2  H           1     -30.322  -5.023 -16.191  0.00  0.00     0.163 HD
HETATM    3  C           1     -30.972  -6.663 -17.272  0.00  0.00     0.249 C 
HETATM    4  N           1     -31.112  -5.447 -16.660  0.00  0.00    -0.345 N 
ENDROOT
BRANCH   4   5
HETATM    5  C           1     -32.393  -4.767 -16.682  0.00  0.00     0.187 C 
BRANCH   5   6
HETATM    6  C           1     -32.839  -4.480 -15.255  0.00  0.00     0.066 C 
BRANCH   6   7
HETATM    7  C           1     -34.280  -4.935 -15.071  0.00  0.00     0.273 C 
BRANCH   7   8
HETATM    8  N           1     -34.632  -4.862 -13.678  0.00  0.00     0.100 N 
HETATM    9  H           1     -34.349  -5.722 -13.210  0.00  0.00     0.317 HD
BRANCH   8  10
HETATM   10  C           1     -33.924  -3.749 -13.105  0.00  0.00     0.344 C 
BRANCH  10  11
HETATM   11  C           1     -33.181  -4.207 -11.875  0.00  0.00     0.209 C 
HETATM   12  O           1     -32.417  -3.419 -11.277  0.00  0.00    -0.646 OA
HETATM   13  O           1     -33.330  -5.374 -11.453  0.00  0.00    -0.646 OA
ENDBRANCH  10  11
BRANCH  10  14
HETATM   14  C           1     -34.917  -2.659 -12.724  0.00  0.00     0.228 C 
BRANCH  14  15
HETATM   15  O           1     -35.010  -1.726 -13.766  0.00  0.00    -0.287 OA
BRANCH  15  16
HETATM   16  P           1     -35.854  -0.386 -13.444  0.00  0.00     0.406 P 
HETATM   17  O           1     -35.785   0.530 -14.605  0.00  0.00    -0.624 OA
HETATM   18  O           1     -37.265  -0.744 -13.182  0.00  0.00    -0.624 OA
BRANCH  16  19
HETATM   19  O           1     -35.233   0.342 -12.144  0.00  0.00    -0.300 OA
HETATM   20  H           1     -35.710  -0.014 -11.414  0.00  0.00     0.223 HD
ENDBRANCH  16  19
ENDBRANCH  15  16
ENDBRANCH  14  15
ENDBRANCH  10  14
ENDBRANCH   8  10
ENDBRANCH   7   8
ENDBRANCH   6   7
ENDBRANCH   5   6
BRANCH   5  21
HETATM   21  C           1     -32.259  -3.469 -17.440  0.00  0.00     0.196 C 
HETATM   22  O           1     -33.274  -2.783 -17.689  0.00  0.00    -0.646 OA
HETATM   23  O           1     -31.133  -3.080 -17.818  0.00  0.00    -0.646 OA
ENDBRANCH   5  21
ENDBRANCH   4   5
BRANCH   3  24
HETATM   24  C           1     -29.639  -7.370 -17.249  0.00  0.00     0.274 C 
BRANCH  24  25
HETATM   25  N           1     -29.249  -7.745 -18.648  0.00  0.00    -0.067 N 
HETATM   26  H           1     -28.734  -6.951 -19.091  0.00  0.00     0.275 HD
HETATM   27  H           1     -28.632  -8.589 -18.622  0.00  0.00     0.275 HD
HETATM   28  H           1     -30.107  -7.957 -19.205  0.00  0.00     0.257 HD
ENDBRANCH  24  25
BRANCH  24  29
HETATM   29  C           1     -28.583  -6.444 -16.660  0.00  0.00     0.044 C 
BRANCH  29  30
HETATM   30  C           1     -27.730  -7.215 -15.661  0.00  0.00     0.023 C 
BRANCH  30  31
HETATM   31  C           1     -26.284  -6.747 -15.761  0.00  0.00     0.156 C 
BRANCH  31  32
HETATM   32  N           1     -25.862  -6.753 -17.168  0.00  0.00    -0.227 N 
HETATM   33  C           1     -24.780  -7.320 -17.502  0.00  0.00     0.665 C 
HETATM   34  N           1     -24.417  -7.326 -18.715  0.00  0.00    -0.235 N 
HETATM   35  N           1     -24.042  -7.896 -16.601  0.00  0.00    -0.235 N 
HETATM   36  H           1     -23.519  -7.795 -18.992  0.00  0.00     0.174 HD
HETATM   37  H           1     -25.012  -6.860 -19.444  0.00  0.00     0.174 HD
HETATM   38  H           1     -23.149  -8.364 -16.875  0.00  0.00     0.174 HD
HETATM   39  H           1     -24.343  -7.891 -15.599  0.00  0.00     0.174 HD
HETATM   40  H           1     -26.458  -6.288 -17.898  0.00  0.00     0.177 HD
ENDBRANCH  31  32
ENDBRANCH  30  31
ENDBRANCH  29  30
ENDBRANCH  24  29
ENDBRANCH   3  24
TORSDOF 17
ENDMDL
MODEL 3
REMARK VINA RESULT:      -7.0      1.241      2.066
REMARK  17 active torsions:
REMARK  status: ('A' for Active; 'I' for Inactive)
REMARK       I    between atoms: C_2  and  N_3 
REMARK       I    between atoms: C_2  and  N_4 
REMARK    1  A    between atoms: N_5  and  C_33 
REMARK    2  A    between atoms: O_6  and  P_37 
REMARK    3  A    between atoms: N_8  and  C_16 
REMARK    4  A    between atoms: N_8  and  C_9 
REMARK    5  A    between atoms: C_9  and  C_10 
REMARK    6  A    between atoms: C_10  and  C_19 
REMARK    7  A    between atoms: C_11  and  C_16 
REMARK    8  A    between atoms: C_12  and  C_33 
REMARK    9  A    between atoms: C_12  and  C_13 
REMARK   10  A    between atoms: C_13  and  C_14 
REMARK   11  A    between atoms: C_14  and  N_15 
REMARK   12  A    between atoms: C_16  and  C_18 
REMARK   13  A    between atoms: C_18  and  O_36 
REMARK   14  A    between atoms: C_19  and  C_20 
REMARK   15  A    between atoms: C_19  and  N_35 
REMARK   16  A    between atoms: C_33  and  C_34 
REMARK       I    between atoms: C_34  and  N_35 
REMARK   17  A    between atoms: O_36  and  P_37 
ROOT
HETATM    1  O           1     -21.742  -7.258  -4.847  0.00  0.00    -0.271 OA
HETATM    2  H           1     -20.598  -4.344  -4.648  0.00  0.00     0.163 HD
HETATM    3  C           1     -21.318  -6.256  -4.321  0.00  0.00     0.249 C 
HETATM    4  N           1     -20.953  -5.183  -5.088  0.00  0.00    -0.345 N 
ENDROOT
BRANCH   4   5
HETATM    5  C           1     -21.074  -5.248  -6.532  0.00  0.00     0.187 C 
BRANCH   5   6
HETATM    6  C           1     -21.617  -3.925  -7.055  0.00  0.00     0.066 C 
BRANCH   6   7
HETATM    7  C           1     -22.787  -4.191  -7.992  0.00  0.00     0.273 C 
BRANCH   7   8
HETATM    8  N           1     -22.530  -3.577  -9.267  0.00  0.00     0.100 N 
HETATM    9  H           1     -21.834  -2.840  -9.155  0.00  0.00     0.317 HD
BRANCH   8  10
HETATM   10  C           1     -22.017  -4.592 -10.146  0.00  0.00     0.344 C 
BRANCH  10  11
HETATM   11  C           1     -20.715  -4.124 -10.748  0.00  0.00     0.209 C 
HETATM   12  O           1     -20.636  -2.986 -11.259  0.00  0.00    -0.646 OA
HETATM   13  O           1     -19.715  -4.874 -10.734  0.00  0.00    -0.646 OA
ENDBRANCH  10  11
BRANCH  10  14
HETATM   14  C           1     -23.024  -4.857 -11.257  0.00  0.00     0.228 C 
BRANCH  14  15
HETATM   15  O           1     -23.946  -3.803 -11.314  0.00  0.00    -0.287 OA
BRANCH  15  16
HETATM   16  P           1     -24.256  -3.212 -12.785  0.00  0.00     0.406 P 
HETATM   17  O           1     -25.623  -2.644 -12.810  0.00  0.00    -0.624 OA
HETATM   18  O           1     -23.276  -2.151 -13.107  0.00  0.00    -0.624 OA
BRANCH  16  19
HETATM   19  O           1     -24.144  -4.397 -13.876  0.00  0.00    -0.300 OA
HETATM   20  H           1     -25.035  -4.628 -14.076  0.00  0.00     0.223 HD
ENDBRANCH  16  19
ENDBRANCH  15  16
ENDBRANCH  14  15
ENDBRANCH  10  14
ENDBRANCH   8  10
ENDBRANCH   7   8
ENDBRANCH   6   7
ENDBRANCH   5   6
BRANCH   5  21
HETATM   21  C           1     -19.718  -5.513  -7.138  0.00  0.00     0.196 C 
HETATM   22  O           1     -18.934  -4.563  -7.355  0.00  0.00    -0.646 OA
HETATM   23  O           1     -19.378  -6.681  -7.423  0.00  0.00    -0.646 OA
ENDBRANCH   5  21
ENDBRANCH   4   5
BRANCH   3  24
HETATM   24  C           1     -21.191  -6.187  -2.819  0.00  0.00     0.274 C 
BRANCH  24  25
HETATM   25  N           1     -22.542  -5.944  -2.214  0.00  0.00    -0.067 N 
HETATM   26  H           1     -23.060  -5.241  -2.789  0.00  0.00     0.275 HD
HETATM   27  H           1     -23.079  -6.840  -2.193  0.00  0.00     0.275 HD
HETATM   28  H           1     -22.428  -5.582  -1.240  0.00  0.00     0.257 HD
ENDBRANCH  24  25
BRANCH  24  29
HETATM   29  C           1     -20.632  -7.504  -2.296  0.00  0.00     0.044 C 
BRANCH  29  30
HETATM   30  C           1     -21.695  -8.215  -1.467  0.00  0.00     0.023 C 
BRANCH  30  31
HETATM   31  C           1     -21.423  -9.713  -1.470  0.00  0.00     0.156 C 
BRANCH  31  32
HETATM   32  N           1     -22.219 -10.359  -0.417  0.00  0.00    -0.227 N 
HETATM   33  C           1     -23.211 -11.083  -0.727  0.00  0.00     0.665 C 
HETATM   34  N           1     -23.897 -11.640   0.179  0.00  0.00    -0.235 N 
HETATM   35  N           1     -23.524 -11.255  -1.977  0.00  0.00    -0.235 N 
HETATM   36  H           1     -24.720 -12.239  -0.079  0.00  0.00     0.174 HD
HETATM   37  H           1     -23.644 -11.500   1.189  0.00  0.00     0.174 HD
HETATM   38  H           1     -24.342 -11.852  -2.234  0.00  0.00     0.174 HD
HETATM   39  H           1     -22.957 -10.795  -2.726  0.00  0.00     0.174 HD
HETATM   40  H           1     -21.967 -10.221   0.593  0.00  0.00     0.177 HD
ENDBRANCH  31  32
ENDBRANCH  30  31
ENDBRANCH  29  30
ENDBRANCH  24  29
ENDBRANCH   3  24
TORSDOF 17
ENDMDL
MODEL 4
REMARK VINA RESULT:      -7.0      1.609      2.022
REMARK  17 active torsions:
REMARK  status: ('A' for Active; 'I' for Inactive)
REMARK       I    between atoms: C_2  and  N_3 
REMARK       I    between atoms: C_2  and  N_4 
REMARK    1  A    between atoms: N_5  and  C_33 
REMARK    2  A    between atoms: O_6  and  P_37 
REMARK    3  A    between atoms: N_8  and  C_16 
REMARK    4  A    between atoms: N_8  and  C_9 
REMARK    5  A    between atoms: C_9  and  C_10 
REMARK    6  A    between atoms: C_10  and  C_19 
REMARK    7  A    between atoms: C_11  and  C_16 
REMARK    8  A    between atoms: C_12  and  C_33 
REMARK    9  A    between atoms: C_12  and  C_13 
REMARK   10  A    between atoms: C_13  and  C_14 
REMARK   11  A    between atoms: C_14  and  N_15 
REMARK   12  A    between atoms: C_16  and  C_18 
REMARK   13  A    between atoms: C_18  and  O_36 
REMARK   14  A    between atoms: C_19  and  C_20 
REMARK   15  A    between atoms: C_19  and  N_35 
REMARK   16  A    between atoms: C_33  and  C_34 
REMARK       I    between atoms: C_34  and  N_35 
REMARK   17  A    between atoms: O_36  and  P_37 
ROOT
HETATM    1  O           1     -19.809  -8.030  -6.044  0.00  0.00    -0.271 OA
HETATM    2  H           1     -22.650  -6.855  -5.421  0.00  0.00     0.163 HD
HETATM    3  C           1     -20.922  -7.984  -5.578  0.00  0.00     0.249 C 
HETATM    4  N           1     -21.717  -6.894  -5.812  0.00  0.00    -0.345 N 
ENDROOT
BRANCH   4   5
HETATM    5  C           1     -21.224  -5.796  -6.620  0.00  0.00     0.187 C 
BRANCH   5   6
HETATM    6  C           1     -22.383  -4.886  -7.001  0.00  0.00     0.066 C 
BRANCH   6   7
HETATM    7  C           1     -21.924  -3.893  -8.060  0.00  0.00     0.273 C 
BRANCH   7   8
HETATM    8  N           1     -22.032  -4.496  -9.361  0.00  0.00     0.100 N 
HETATM    9  H           1     -22.546  -5.373  -9.288  0.00  0.00     0.317 HD
BRANCH   8  10
HETATM   10  C           1     -22.754  -3.586 -10.208  0.00  0.00     0.344 C 
BRANCH  10  11
HETATM   11  C           1     -24.236  -3.769  -9.993  0.00  0.00     0.209 C 
HETATM   12  O           1     -24.957  -2.780  -9.743  0.00  0.00    -0.646 OA
HETATM   13  O           1     -24.742  -4.909 -10.066  0.00  0.00    -0.646 OA
ENDBRANCH  10  11
BRANCH  10  14
HETATM   14  C           1     -22.412  -3.869 -11.665  0.00  0.00     0.228 C 
BRANCH  14  15
HETATM   15  O           1     -22.558  -2.695 -12.416  0.00  0.00    -0.287 OA
BRANCH  15  16
HETATM   16  P           1     -23.497  -2.805 -13.726  0.00  0.00     0.406 P 
HETATM   17  O           1     -22.648  -2.919 -14.933  0.00  0.00    -0.624 OA
HETATM   18  O           1     -24.360  -4.002 -13.616  0.00  0.00    -0.624 OA
BRANCH  16  19
HETATM   19  O           1     -24.420  -1.484 -13.839  0.00  0.00    -0.300 OA
HETATM   20  H           1     -25.303  -1.808 -13.883  0.00  0.00     0.223 HD
ENDBRANCH  16  19
ENDBRANCH  15  16
ENDBRANCH  14  15
ENDBRANCH  10  14
ENDBRANCH   8  10
ENDBRANCH   7   8
ENDBRANCH   6   7
ENDBRANCH   5   6
BRANCH   5  21
HETATM   21  C           1     -20.204  -5.011  -5.832  0.00  0.00     0.196 C 
HETATM   22  O           1     -19.157  -4.612  -6.387  0.00  0.00    -0.646 OA
HETATM   23  O           1     -20.406  -4.761  -4.624  0.00  0.00    -0.646 OA
ENDBRANCH   5  21
ENDBRANCH   4   5
BRANCH   3  24
HETATM   24  C           1     -21.437  -9.126  -4.736  0.00  0.00     0.274 C 
BRANCH  24  25
HETATM   25  N           1     -20.440 -10.246  -4.752  0.00  0.00    -0.067 N 
HETATM   26  H           1     -20.498 -10.751  -5.665  0.00  0.00     0.275 HD
HETATM   27  H           1     -19.478  -9.856  -4.630  0.00  0.00     0.275 HD
HETATM   28  H           1     -20.649 -10.910  -3.973  0.00  0.00     0.257 HD
ENDBRANCH  24  25
BRANCH  24  29
HETATM   29  C           1     -21.640  -8.649  -3.303  0.00  0.00     0.044 C 
BRANCH  29  30
HETATM   30  C           1     -20.316  -8.146  -2.742  0.00  0.00     0.023 C 
BRANCH  30  31
HETATM   31  C           1     -20.472  -7.858  -1.254  0.00  0.00     0.156 C 
BRANCH  31  32
HETATM   32  N           1     -21.900  -7.777  -0.917  0.00  0.00    -0.227 N 
HETATM   33  C           1     -22.303  -8.150   0.223  0.00  0.00     0.665 C 
HETATM   34  N           1     -23.534  -8.080   0.514  0.00  0.00    -0.235 N 
HETATM   35  N           1     -21.454  -8.603   1.098  0.00  0.00    -0.235 N 
HETATM   36  H           1     -23.868  -8.390   1.461  0.00  0.00     0.174 HD
HETATM   37  H           1     -24.220  -7.715  -0.191  0.00  0.00     0.174 HD
HETATM   38  H           1     -21.786  -8.911   2.039  0.00  0.00     0.174 HD
HETATM   39  H           1     -20.438  -8.660   0.857  0.00  0.00     0.174 HD
HETATM   40  H           1     -22.587  -7.411  -1.622  0.00  0.00     0.177 HD
ENDBRANCH  31  32
ENDBRANCH  30  31
ENDBRANCH  29  30
ENDBRANCH  24  29
ENDBRANCH   3  24
TORSDOF 17
ENDMDL
MODEL 5
REMARK VINA RESULT:      -6.9      5.070     10.845
REMARK  17 active torsions:
REMARK  status: ('A' for Active; 'I' for Inactive)
REMARK       I    between atoms: C_2  and  N_3 
REMARK       I    between atoms: C_2  and  N_4 
REMARK    1  A    between atoms: N_5  and  C_33 
REMARK    2  A    between atoms: O_6  and  P_37 
REMARK    3  A    between atoms: N_8  and  C_16 
REMARK    4  A    between atoms: N_8  and  C_9 
REMARK    5  A    between atoms: C_9  and  C_10 
REMARK    6  A    between atoms: C_10  and  C_19 
REMARK    7  A    between atoms: C_11  and  C_16 
REMARK    8  A    between atoms: C_12  and  C_33 
REMARK    9  A    between atoms: C_12  and  C_13 
REMARK   10  A    between atoms: C_13  and  C_14 
REMARK   11  A    between atoms: C_14  and  N_15 
REMARK   12  A    between atoms: C_16  and  C_18 
REMARK   13  A    between atoms: C_18  and  O_36 
REMARK   14  A    between atoms: C_19  and  C_20 
REMARK   15  A    between atoms: C_19  and  N_35 
REMARK   16  A    between atoms: C_33  and  C_34 
REMARK       I    between atoms: C_34  and  N_35 
REMARK   17  A    between atoms: O_36  and  P_37 
ROOT
HETATM    1  O           1     -20.505  -4.429  -6.058  0.00  0.00    -0.271 OA
HETATM    2  H           1     -21.721  -7.179  -6.952  0.00  0.00     0.163 HD
HETATM    3  C           1     -21.079  -5.220  -6.768  0.00  0.00     0.249 C 
HETATM    4  N           1     -21.240  -6.515  -6.357  0.00  0.00    -0.345 N 
ENDROOT
BRANCH   4   5
HETATM    5  C           1     -20.723  -6.939  -5.070  0.00  0.00     0.187 C 
BRANCH   5   6
HETATM    6  C           1     -21.873  -7.066  -4.079  0.00  0.00     0.066 C 
BRANCH   6   7
HETATM    7  C           1     -21.470  -6.442  -2.750  0.00  0.00     0.273 C 
BRANCH   7   8
HETATM    8  N           1     -20.883  -7.448  -1.906  0.00  0.00     0.100 N 
HETATM    9  H           1     -20.389  -6.998  -1.136  0.00  0.00     0.317 HD
BRANCH   8  10
HETATM   10  C           1     -21.948  -8.260  -1.386  0.00  0.00     0.344 C 
BRANCH  10  11
HETATM   11  C           1     -22.286  -7.808   0.014  0.00  0.00     0.209 C 
HETATM   12  O           1     -23.448  -7.437   0.287  0.00  0.00    -0.646 OA
HETATM   13  O           1     -21.404  -7.805   0.900  0.00  0.00    -0.646 OA
ENDBRANCH  10  11
BRANCH  10  14
HETATM   14  C           1     -21.507  -9.717  -1.357  0.00  0.00     0.228 C 
BRANCH  14  15
HETATM   15  O           1     -22.569 -10.536  -1.765  0.00  0.00    -0.287 OA
BRANCH  15  16
HETATM   16  P           1     -23.260 -11.429  -0.610  0.00  0.00     0.406 P 
HETATM   17  O           1     -22.262 -11.735   0.440  0.00  0.00    -0.624 OA
HETATM   18  O           1     -24.387 -10.679  -0.015  0.00  0.00    -0.624 OA
BRANCH  16  19
HETATM   19  O           1     -23.807 -12.806  -1.251  0.00  0.00    -0.300 OA
HETATM   20  H           1     -24.115 -12.570  -2.109  0.00  0.00     0.223 HD
ENDBRANCH  16  19
ENDBRANCH  15  16
ENDBRANCH  14  15
ENDBRANCH  10  14
ENDBRANCH   8  10
ENDBRANCH   7   8
ENDBRANCH   6   7
ENDBRANCH   5   6
BRANCH   5  21
HETATM   21  C           1     -20.035  -8.273  -5.219  0.00  0.00     0.196 C 
HETATM   22  O           1     -20.413  -9.251  -4.538  0.00  0.00    -0.646 OA
HETATM   23  O           1     -19.087  -8.400  -6.024  0.00  0.00    -0.646 OA
ENDBRANCH   5  21
ENDBRANCH   4   5
BRANCH   3  24
HETATM   24  C           1     -21.617  -4.781  -8.108  0.00  0.00     0.274 C 
BRANCH  24  25
HETATM   25  N           1     -22.722  -3.788  -7.901  0.00  0.00    -0.067 N 
HETATM   26  H           1     -23.080  -3.467  -8.829  0.00  0.00     0.275 HD
HETATM   27  H           1     -23.498  -4.240  -7.365  0.00  0.00     0.275 HD
HETATM   28  H           1     -22.358  -2.969  -7.365  0.00  0.00     0.257 HD
ENDBRANCH  24  25
BRANCH  24  29
HETATM   29  C           1     -20.499  -4.133  -8.916  0.00  0.00     0.044 C 
BRANCH  29  30
HETATM   30  C           1     -20.704  -4.431 -10.396  0.00  0.00     0.023 C 
BRANCH  30  31
HETATM   31  C           1     -21.501  -3.301 -11.035  0.00  0.00     0.156 C 
BRANCH  31  32
HETATM   32  N           1     -21.741  -3.609 -12.451  0.00  0.00    -0.227 N 
HETATM   33  C           1     -22.689  -3.044 -13.071  0.00  0.00     0.665 C 
HETATM   34  N           1     -22.895  -3.309 -14.292  0.00  0.00    -0.235 N 
HETATM   35  N           1     -23.451  -2.189 -12.455  0.00  0.00    -0.235 N 
HETATM   36  H           1     -23.682  -2.840 -14.805  0.00  0.00     0.174 HD
HETATM   37  H           1     -22.281  -3.999 -14.790  0.00  0.00     0.174 HD
HETATM   38  H           1     -24.234  -1.722 -12.965  0.00  0.00     0.174 HD
HETATM   39  H           1     -23.280  -1.970 -11.447  0.00  0.00     0.174 HD
HETATM   40  H           1     -21.126  -4.299 -12.951  0.00  0.00     0.177 HD
ENDBRANCH  31  32
ENDBRANCH  30  31
ENDBRANCH  29  30
ENDBRANCH  24  29
ENDBRANCH   3  24
TORSDOF 17
ENDMDL
MODEL 6
REMARK VINA RESULT:      -6.9      5.125     10.952
REMARK  17 active torsions:
REMARK  status: ('A' for Active; 'I' for Inactive)
REMARK       I    between atoms: C_2  and  N_3 
REMARK       I    between atoms: C_2  and  N_4 
REMARK    1  A    between atoms: N_5  and  C_33 
REMARK    2  A    between atoms: O_6  and  P_37 
REMARK    3  A    between atoms: N_8  and  C_16 
REMARK    4  A    between atoms: N_8  and  C_9 
REMARK    5  A    between atoms: C_9  and  C_10 
REMARK    6  A    between atoms: C_10  and  C_19 
REMARK    7  A    between atoms: C_11  and  C_16 
REMARK    8  A    between atoms: C_12  and  C_33 
REMARK    9  A    between atoms: C_12  and  C_13 
REMARK   10  A    between atoms: C_13  and  C_14 
REMARK   11  A    between atoms: C_14  and  N_15 
REMARK   12  A    between atoms: C_16  and  C_18 
REMARK   13  A    between atoms: C_18  and  O_36 
REMARK   14  A    between atoms: C_19  and  C_20 
REMARK   15  A    between atoms: C_19  and  N_35 
REMARK   16  A    between atoms: C_33  and  C_34 
REMARK       I    between atoms: C_34  and  N_35 
REMARK   17  A    between atoms: O_36  and  P_37 
ROOT
HETATM    1  O           1     -20.399  -4.426  -6.141  0.00  0.00    -0.271 OA
HETATM    2  H           1     -21.952  -7.064  -6.827  0.00  0.00     0.163 HD
HETATM    3  C           1     -21.088  -5.184  -6.782  0.00  0.00     0.249 C 
HETATM    4  N           1     -21.375  -6.429  -6.290  0.00  0.00    -0.345 N 
ENDROOT
BRANCH   4   5
HETATM    5  C           1     -20.856  -6.837  -4.999  0.00  0.00     0.187 C 
BRANCH   5   6
HETATM    6  C           1     -21.967  -6.770  -3.961  0.00  0.00     0.066 C 
BRANCH   6   7
HETATM    7  C           1     -21.393  -6.304  -2.630  0.00  0.00     0.273 C 
BRANCH   7   8
HETATM    8  N           1     -20.855  -7.433  -1.919  0.00  0.00     0.100 N 
HETATM    9  H           1     -20.354  -7.107  -1.093  0.00  0.00     0.317 HD
BRANCH   8  10
HETATM   10  C           1     -21.957  -8.262  -1.515  0.00  0.00     0.344 C 
BRANCH  10  11
HETATM   11  C           1     -22.193  -8.098  -0.034  0.00  0.00     0.209 C 
HETATM   12  O           1     -21.226  -8.107   0.758  0.00  0.00    -0.646 OA
HETATM   13  O           1     -23.356  -7.953   0.401  0.00  0.00    -0.646 OA
ENDBRANCH  10  11
BRANCH  10  14
HETATM   14  C           1     -21.634  -9.719  -1.821  0.00  0.00     0.228 C 
BRANCH  14  15
HETATM   15  O           1     -20.332 -10.009  -1.393  0.00  0.00    -0.287 OA
BRANCH  15  16
HETATM   16  P           1     -20.149 -11.377  -0.553  0.00  0.00     0.406 P 
HETATM   17  O           1     -20.785 -12.495  -1.288  0.00  0.00    -0.624 OA
HETATM   18  O           1     -18.708 -11.660  -0.378  0.00  0.00    -0.624 OA
BRANCH  16  19
HETATM   19  O           1     -20.847 -11.217   0.894  0.00  0.00    -0.300 OA
HETATM   20  H           1     -20.878 -12.090   1.247  0.00  0.00     0.223 HD
ENDBRANCH  16  19
ENDBRANCH  15  16
ENDBRANCH  14  15
ENDBRANCH  10  14
ENDBRANCH   8  10
ENDBRANCH   7   8
ENDBRANCH   6   7
ENDBRANCH   5   6
BRANCH   5  21
HETATM   21  C           1     -20.336  -8.250  -5.092  0.00  0.00     0.196 C 
HETATM   22  O           1     -19.326  -8.589  -4.436  0.00  0.00    -0.646 OA
HETATM   23  O           1     -20.915  -9.082  -5.823  0.00  0.00    -0.646 OA
ENDBRANCH   5  21
ENDBRANCH   4   5
BRANCH   3  24
HETATM   24  C           1     -21.629  -4.761  -8.126  0.00  0.00     0.274 C 
BRANCH  24  25
HETATM   25  N           1     -22.635  -3.664  -7.936  0.00  0.00    -0.067 N 
HETATM   26  H           1     -23.273  -3.910  -7.145  0.00  0.00     0.275 HD
HETATM   27  H           1     -22.138  -2.771  -7.718  0.00  0.00     0.275 HD
HETATM   28  H           1     -23.194  -3.549  -8.811  0.00  0.00     0.257 HD
ENDBRANCH  24  25
BRANCH  24  29
HETATM   29  C           1     -20.486  -4.254  -8.996  0.00  0.00     0.044 C 
BRANCH  29  30
HETATM   30  C           1     -20.795  -4.542 -10.460  0.00  0.00     0.023 C 
BRANCH  30  31
HETATM   31  C           1     -21.289  -3.269 -11.135  0.00  0.00     0.156 C 
BRANCH  31  32
HETATM   32  N           1     -21.529  -3.530 -12.561  0.00  0.00    -0.227 N 
HETATM   33  C           1     -22.527  -3.011 -13.141  0.00  0.00     0.665 C 
HETATM   34  N           1     -22.733  -3.235 -14.370  0.00  0.00    -0.235 N 
HETATM   35  N           1     -23.340  -2.245 -12.476  0.00  0.00    -0.235 N 
HETATM   36  H           1     -23.562  -2.804 -14.850  0.00  0.00     0.174 HD
HETATM   37  H           1     -22.077  -3.853 -14.908  0.00  0.00     0.174 HD
HETATM   38  H           1     -24.164  -1.816 -12.953  0.00  0.00     0.174 HD
HETATM   39  H           1     -23.169  -2.060 -11.461  0.00  0.00     0.174 HD
HETATM   40  H           1     -20.872  -4.148 -13.100  0.00  0.00     0.177 HD
ENDBRANCH  31  32
ENDBRANCH  30  31
ENDBRANCH  29  30
ENDBRANCH  24  29
ENDBRANCH   3  24
TORSDOF 17
ENDMDL
MODEL 7
REMARK VINA RESULT:      -6.8      4.064     10.183
REMARK  17 active torsions:
REMARK  status: ('A' for Active; 'I' for Inactive)
REMARK       I    between atoms: C_2  and  N_3 
REMARK       I    between atoms: C_2  and  N_4 
REMARK    1  A    between atoms: N_5  and  C_33 
REMARK    2  A    between atoms: O_6  and  P_37 
REMARK    3  A    between atoms: N_8  and  C_16 
REMARK    4  A    between atoms: N_8  and  C_9 
REMARK    5  A    between atoms: C_9  and  C_10 
REMARK    6  A    between atoms: C_10  and  C_19 
REMARK    7  A    between atoms: C_11  and  C_16 
REMARK    8  A    between atoms: C_12  and  C_33 
REMARK    9  A    between atoms: C_12  and  C_13 
REMARK   10  A    between atoms: C_13  and  C_14 
REMARK   11  A    between atoms: C_14  and  N_15 
REMARK   12  A    between atoms: C_16  and  C_18 
REMARK   13  A    between atoms: C_18  and  O_36 
REMARK   14  A    between atoms: C_19  and  C_20 
REMARK   15  A    between atoms: C_19  and  N_35 
REMARK   16  A    between atoms: C_33  and  C_34 
REMARK       I    between atoms: C_34  and  N_35 
REMARK   17  A    between atoms: O_36  and  P_37 
ROOT
HETATM    1  O           1     -21.577  -3.149  -7.982  0.00  0.00    -0.271 OA
HETATM    2  H           1     -22.966  -5.921  -7.512  0.00  0.00     0.163 HD
HETATM    3  C           1     -22.327  -4.074  -8.189  0.00  0.00     0.249 C 
HETATM    4  N           1     -22.339  -5.146  -7.339  0.00  0.00    -0.345 N 
ENDROOT
BRANCH   4   5
HETATM    5  C           1     -21.453  -5.173  -6.191  0.00  0.00     0.187 C 
BRANCH   5   6
HETATM    6  C           1     -21.994  -6.150  -5.156  0.00  0.00     0.066 C 
BRANCH   6   7
HETATM    7  C           1     -21.165  -6.053  -3.882  0.00  0.00     0.273 C 
BRANCH   7   8
HETATM    8  N           1     -22.019  -6.235  -2.739  0.00  0.00     0.100 N 
HETATM    9  H           1     -22.985  -6.048  -3.004  0.00  0.00     0.317 HD
BRANCH   8  10
HETATM   10  C           1     -21.895  -7.603  -2.314  0.00  0.00     0.344 C 
BRANCH  10  11
HETATM   11  C           1     -22.024  -7.675  -0.812  0.00  0.00     0.209 C 
HETATM   12  O           1     -21.101  -8.170  -0.129  0.00  0.00    -0.646 OA
HETATM   13  O           1     -23.053  -7.241  -0.252  0.00  0.00    -0.646 OA
ENDBRANCH  10  11
BRANCH  10  14
HETATM   14  C           1     -20.534  -8.143  -2.734  0.00  0.00     0.228 C 
BRANCH  14  15
HETATM   15  O           1     -20.683  -9.441  -3.241  0.00  0.00    -0.287 OA
BRANCH  15  16
HETATM   16  P           1     -20.018  -9.718  -4.687  0.00  0.00     0.406 P 
HETATM   17  O           1     -19.391 -11.059  -4.693  0.00  0.00    -0.624 OA
HETATM   18  O           1     -21.064  -9.658  -5.731  0.00  0.00    -0.624 OA
BRANCH  16  19
HETATM   19  O           1     -18.895  -8.597  -4.986  0.00  0.00    -0.300 OA
HETATM   20  H           1     -18.312  -8.633  -4.247  0.00  0.00     0.223 HD
ENDBRANCH  16  19
ENDBRANCH  15  16
ENDBRANCH  14  15
ENDBRANCH  10  14
ENDBRANCH   8  10
ENDBRANCH   7   8
ENDBRANCH   6   7
ENDBRANCH   5   6
BRANCH   5  21
HETATM   21  C           1     -20.077  -5.612  -6.628  0.00  0.00     0.196 C 
HETATM   22  O           1     -19.897  -6.775  -7.052  0.00  0.00    -0.646 OA
HETATM   23  O           1     -19.118  -4.813  -6.568  0.00  0.00    -0.646 OA
ENDBRANCH   5  21
ENDBRANCH   4   5
BRANCH   3  24
HETATM   24  C           1     -23.248  -4.047  -9.383  0.00  0.00     0.274 C 
BRANCH  24  25
HETATM   25  N           1     -24.586  -3.507  -8.970  0.00  0.00    -0.067 N 
HETATM   26  H           1     -24.951  -2.873  -9.716  0.00  0.00     0.275 HD
HETATM   27  H           1     -25.251  -4.300  -8.830  0.00  0.00     0.275 HD
HETATM   28  H           1     -24.485  -2.973  -8.078  0.00  0.00     0.257 HD
ENDBRANCH  24  25
BRANCH  24  29
HETATM   29  C           1     -22.653  -3.154 -10.464  0.00  0.00     0.044 C 
BRANCH  29  30
HETATM   30  C           1     -22.464  -3.959 -11.743  0.00  0.00     0.023 C 
BRANCH  30  31
HETATM   31  C           1     -23.770  -3.979 -12.527  0.00  0.00     0.156 C 
BRANCH  31  32
HETATM   32  N           1     -24.076  -2.624 -13.007  0.00  0.00    -0.227 N 
HETATM   33  C           1     -23.526  -2.186 -14.059  0.00  0.00     0.665 C 
HETATM   34  N           1     -23.790  -1.018 -14.473  0.00  0.00    -0.235 N 
HETATM   35  N           1     -22.691  -2.934 -14.717  0.00  0.00    -0.235 N 
HETATM   36  H           1     -23.333  -0.655 -15.346  0.00  0.00     0.174 HD
HETATM   37  H           1     -24.464  -0.414 -13.942  0.00  0.00     0.174 HD
HETATM   38  H           1     -22.237  -2.573 -15.586  0.00  0.00     0.174 HD
HETATM   39  H           1     -22.474  -3.898 -14.376  0.00  0.00     0.174 HD
HETATM   40  H           1     -24.751  -2.019 -12.476  0.00  0.00     0.177 HD
ENDBRANCH  31  32
ENDBRANCH  30  31
ENDBRANCH  29  30
ENDBRANCH  24  29
ENDBRANCH   3  24
TORSDOF 17
ENDMDL
MODEL 8
REMARK VINA RESULT:      -6.6      5.354     10.278
REMARK  17 active torsions:
REMARK  status: ('A' for Active; 'I' for Inactive)
REMARK       I    between atoms: C_2  and  N_3 
REMARK       I    between atoms: C_2  and  N_4 
REMARK    1  A    between atoms: N_5  and  C_33 
REMARK    2  A    between atoms: O_6  and  P_37 
REMARK    3  A    between atoms: N_8  and  C_16 
REMARK    4  A    between atoms: N_8  and  C_9 
REMARK    5  A    between atoms: C_9  and  C_10 
REMARK    6  A    between atoms: C_10  and  C_19 
REMARK    7  A    between atoms: C_11  and  C_16 
REMARK    8  A    between atoms: C_12  and  C_33 
REMARK    9  A    between atoms: C_12  and  C_13 
REMARK   10  A    between atoms: C_13  and  C_14 
REMARK   11  A    between atoms: C_14  and  N_15 
REMARK   12  A    between atoms: C_16  and  C_18 
REMARK   13  A    between atoms: C_18  and  O_36 
REMARK   14  A    between atoms: C_19  and  C_20 
REMARK   15  A    between atoms: C_19  and  N_35 
REMARK   16  A    between atoms: C_33  and  C_34 
REMARK       I    between atoms: C_34  and  N_35 
REMARK   17  A    between atoms: O_36  and  P_37 
ROOT
HETATM    1  O           1     -22.751  -5.982  -5.320  0.00  0.00    -0.271 OA
HETATM    2  H           1     -20.106  -6.842  -3.869  0.00  0.00     0.163 HD
HETATM    3  C           1     -21.563  -6.085  -5.130  0.00  0.00     0.249 C 
HETATM    4  N           1     -21.102  -6.755  -4.029  0.00  0.00    -0.345 N 
ENDROOT
BRANCH   4   5
HETATM    5  C           1     -22.040  -7.341  -3.091  0.00  0.00     0.187 C 
BRANCH   5   6
HETATM    6  C           1     -21.526  -8.704  -2.645  0.00  0.00     0.066 C 
BRANCH   6   7
HETATM    7  C           1     -20.020  -8.634  -2.432  0.00  0.00     0.273 C 
BRANCH   7   8
HETATM    8  N           1     -19.389  -9.733  -3.111  0.00  0.00     0.100 N 
HETATM    9  H           1     -20.080 -10.227  -3.674  0.00  0.00     0.317 HD
BRANCH   8  10
HETATM   10  C           1     -18.370  -9.192  -3.968  0.00  0.00     0.344 C 
BRANCH  10  11
HETATM   11  C           1     -18.817  -9.293  -5.406  0.00  0.00     0.209 C 
HETATM   12  O           1     -20.027  -9.170  -5.694  0.00  0.00    -0.646 OA
HETATM   13  O           1     -17.977  -9.499  -6.308  0.00  0.00    -0.646 OA
ENDBRANCH  10  11
BRANCH  10  14
HETATM   14  C           1     -17.079  -9.977  -3.781  0.00  0.00     0.228 C 
BRANCH  14  15
HETATM   15  O           1     -16.769 -10.048  -2.416  0.00  0.00    -0.287 OA
BRANCH  15  16
HETATM   16  P           1     -16.604 -11.534  -1.803  0.00  0.00     0.406 P 
HETATM   17  O           1     -15.903 -12.396  -2.781  0.00  0.00    -0.624 OA
HETATM   18  O           1     -15.817 -11.467  -0.552  0.00  0.00    -0.624 OA
BRANCH  16  19
HETATM   19  O           1     -18.063 -12.150  -1.489  0.00  0.00    -0.300 OA
HETATM   20  H           1     -18.282 -11.832  -0.630  0.00  0.00     0.223 HD
ENDBRANCH  16  19
ENDBRANCH  15  16
ENDBRANCH  14  15
ENDBRANCH  10  14
ENDBRANCH   8  10
ENDBRANCH   7   8
ENDBRANCH   6   7
ENDBRANCH   5   6
BRANCH   5  21
HETATM   21  C           1     -22.181  -6.437  -1.891  0.00  0.00     0.196 C 
HETATM   22  O           1     -22.685  -6.876  -0.834  0.00  0.00    -0.646 OA
HETATM   23  O           1     -21.793  -5.251  -1.954  0.00  0.00    -0.646 OA
ENDBRANCH   5  21
ENDBRANCH   4   5
BRANCH   3  24
HETATM   24  C           1     -20.586  -5.475  -6.105  0.00  0.00     0.274 C 
BRANCH  24  25
HETATM   25  N           1     -20.269  -6.470  -7.182  0.00  0.00    -0.067 N 
HETATM   26  H           1     -19.671  -7.232  -6.788  0.00  0.00     0.275 HD
HETATM   27  H           1     -21.158  -6.879  -7.549  0.00  0.00     0.275 HD
HETATM   28  H           1     -19.757  -5.992  -7.958  0.00  0.00     0.257 HD
ENDBRANCH  24  25
BRANCH  24  29
HETATM   29  C           1     -21.203  -4.231  -6.731  0.00  0.00     0.044 C 
BRANCH  29  30
HETATM   30  C           1     -21.560  -4.517  -8.185  0.00  0.00     0.023 C 
BRANCH  30  31
HETATM   31  C           1     -23.015  -4.140  -8.433  0.00  0.00     0.156 C 
BRANCH  31  32
HETATM   32  N           1     -23.202  -3.811  -9.853  0.00  0.00    -0.227 N 
HETATM   33  C           1     -24.366  -3.618 -10.311  0.00  0.00     0.665 C 
HETATM   34  N           1     -24.526  -3.334 -11.534  0.00  0.00    -0.235 N 
HETATM   35  N           1     -25.397  -3.711  -9.525  0.00  0.00    -0.235 N 
HETATM   36  H           1     -25.493  -3.174 -11.914  0.00  0.00     0.174 HD
HETATM   37  H           1     -23.694  -3.260 -12.169  0.00  0.00     0.174 HD
HETATM   38  H           1     -26.359  -3.552  -9.902  0.00  0.00     0.174 HD
HETATM   39  H           1     -25.264  -3.945  -8.515  0.00  0.00     0.174 HD
HETATM   40  H           1     -22.369  -3.736 -10.489  0.00  0.00     0.177 HD
ENDBRANCH  31  32
ENDBRANCH  30  31
ENDBRANCH  29  30
ENDBRANCH  24  29
ENDBRANCH   3  24
TORSDOF 17
ENDMDL
MODEL 9
REMARK VINA RESULT:      -6.6      5.376     10.085
REMARK  17 active torsions:
REMARK  status: ('A' for Active; 'I' for Inactive)
REMARK       I    between atoms: C_2  and  N_3 
REMARK       I    between atoms: C_2  and  N_4 
REMARK    1  A    between atoms: N_5  and  C_33 
REMARK    2  A    between atoms: O_6  and  P_37 
REMARK    3  A    between atoms: N_8  and  C_16 
REMARK    4  A    between atoms: N_8  and  C_9 
REMARK    5  A    between atoms: C_9  and  C_10 
REMARK    6  A    between atoms: C_10  and  C_19 
REMARK    7  A    between atoms: C_11  and  C_16 
REMARK    8  A    between atoms: C_12  and  C_33 
REMARK    9  A    between atoms: C_12  and  C_13 
REMARK   10  A    between atoms: C_13  and  C_14 
REMARK   11  A    between atoms: C_14  and  N_15 
REMARK   12  A    between atoms: C_16  and  C_18 
REMARK   13  A    between atoms: C_18  and  O_36 
REMARK   14  A    between atoms: C_19  and  C_20 
REMARK   15  A    between atoms: C_19  and  N_35 
REMARK   16  A    between atoms: C_33  and  C_34 
REMARK       I    between atoms: C_34  and  N_35 
REMARK   17  A    between atoms: O_36  and  P_37 
ROOT
HETATM    1  O           1     -19.615  -7.390  -6.405  0.00  0.00    -0.271 OA
HETATM    2  H           1     -21.066  -7.919  -3.674  0.00  0.00     0.163 HD
HETATM    3  C           1     -20.390  -7.207  -5.496  0.00  0.00     0.249 C 
HETATM    4  N           1     -20.417  -8.072  -4.436  0.00  0.00    -0.345 N 
ENDROOT
BRANCH   4   5
HETATM    5  C           1     -19.514  -9.206  -4.401  0.00  0.00     0.187 C 
BRANCH   5   6
HETATM    6  C           1     -19.045  -9.437  -2.971  0.00  0.00     0.066 C 
BRANCH   6   7
HETATM    7  C           1     -19.890  -8.604  -2.018  0.00  0.00     0.273 C 
BRANCH   7   8
HETATM    8  N           1     -20.707  -9.474  -1.216  0.00  0.00     0.100 N 
HETATM    9  H           1     -20.407  -9.422  -0.243  0.00  0.00     0.317 HD
BRANCH   8  10
HETATM   10  C           1     -22.067  -9.019  -1.323  0.00  0.00     0.344 C 
BRANCH  10  11
HETATM   11  C           1     -22.221  -7.717  -0.577  0.00  0.00     0.209 C 
HETATM   12  O           1     -22.599  -6.691  -1.182  0.00  0.00    -0.646 OA
HETATM   13  O           1     -21.971  -7.664   0.647  0.00  0.00    -0.646 OA
ENDBRANCH  10  11
BRANCH  10  14
HETATM   14  C           1     -22.999 -10.063  -0.722  0.00  0.00     0.228 C 
BRANCH  14  15
HETATM   15  O           1     -23.290 -11.039  -1.684  0.00  0.00    -0.287 OA
BRANCH  15  16
HETATM   16  P           1     -22.833 -12.547  -1.326  0.00  0.00     0.406 P 
HETATM   17  O           1     -23.030 -13.416  -2.508  0.00  0.00    -0.624 OA
HETATM   18  O           1     -21.404 -12.551  -0.944  0.00  0.00    -0.624 OA
BRANCH  16  19
HETATM   19  O           1     -23.720 -13.100  -0.095  0.00  0.00    -0.300 OA
HETATM   20  H           1     -23.373 -12.670   0.668  0.00  0.00     0.223 HD
ENDBRANCH  16  19
ENDBRANCH  15  16
ENDBRANCH  14  15
ENDBRANCH  10  14
ENDBRANCH   8  10
ENDBRANCH   7   8
ENDBRANCH   6   7
ENDBRANCH   5   6
BRANCH   5  21
HETATM   21  C           1     -20.234 -10.435  -4.901  0.00  0.00     0.196 C 
HETATM   22  O           1     -20.115 -10.787  -6.095  0.00  0.00    -0.646 OA
HETATM   23  O           1     -20.948 -11.101  -4.120  0.00  0.00    -0.646 OA
ENDBRANCH   5  21
ENDBRANCH   4   5
BRANCH   3  24
HETATM   24  C           1     -21.330  -6.027  -5.531  0.00  0.00     0.274 C 
BRANCH  24  25
HETATM   25  N           1     -22.084  -5.951  -4.237  0.00  0.00    -0.067 N 
HETATM   26  H           1     -22.986  -5.446  -4.388  0.00  0.00     0.275 HD
HETATM   27  H           1     -22.280  -6.918  -3.892  0.00  0.00     0.275 HD
HETATM   28  H           1     -21.511  -5.437  -3.530  0.00  0.00     0.257 HD
ENDBRANCH  24  25
BRANCH  24  29
HETATM   29  C           1     -20.529  -4.746  -5.727  0.00  0.00     0.044 C 
BRANCH  29  30
HETATM   30  C           1     -21.171  -3.907  -6.824  0.00  0.00     0.023 C 
BRANCH  30  31
HETATM   31  C           1     -22.132  -4.773  -7.629  0.00  0.00     0.156 C 
BRANCH  31  32
HETATM   32  N           1     -23.383  -4.037  -7.857  0.00  0.00    -0.227 N 
HETATM   33  C           1     -23.830  -3.898  -9.033  0.00  0.00     0.665 C 
HETATM   34  N           1     -24.909  -3.264  -9.230  0.00  0.00    -0.235 N 
HETATM   35  N           1     -23.183  -4.406 -10.040  0.00  0.00    -0.235 N 
HETATM   36  H           1     -25.279  -3.148 -10.206  0.00  0.00     0.174 HD
HETATM   37  H           1     -25.431  -2.853  -8.418  0.00  0.00     0.174 HD
HETATM   38  H           1     -23.551  -4.292 -11.011  0.00  0.00     0.174 HD
HETATM   39  H           1     -22.293  -4.930  -9.877  0.00  0.00     0.174 HD
HETATM   40  H           1     -23.907  -3.626  -7.045  0.00  0.00     0.177 HD
ENDBRANCH  31  32
ENDBRANCH  30  31
ENDBRANCH  29  30
ENDBRANCH  24  29
ENDBRANCH   3  24
TORSDOF 17
ENDMDL
