MODEL 1
REMARK VINA RESULT:      -6.7      0.000      0.000
REMARK  10 active torsions:
REMARK  status: ('A' for Active; 'I' for Inactive)
REMARK    1  A    between atoms: C_7  and  C_19 
REMARK    2  A    between atoms: C_8  and  O_12 
REMARK    3  A    between atoms: N_9  and  C_18 
REMARK       I    between atoms: N_9  and  C_23 
REMARK    4  A    between atoms: C_10  and  C_20 
REMARK    5  A    between atoms: C_10  and  S_22 
REMARK    6  A    between atoms: C_15  and  C_23 
REMARK    7  A    between atoms: C_15  and  C_20 
REMARK    8  A    between atoms: C_15  and  N_26 
REMARK    9  A    between atoms: C_17  and  C_18 
REMARK   10  A    between atoms: C_18  and  C_19 
ROOT
HETATM    1  N           1     -36.242  -1.998 -10.912  0.00  0.00    -0.344 N 
HETATM    2  H           1     -37.078  -2.569 -10.925  0.00  0.00     0.163 HD
HETATM    3  C           1     -35.022  -2.565 -11.164  0.00  0.00     0.249 C 
HETATM    4  O           1     -34.025  -1.884 -11.147  0.00  0.00    -0.271 OA
ENDROOT
BRANCH   1   5
HETATM    5  C           1     -36.338  -0.580 -10.625  0.00  0.00     0.189 C 
BRANCH   5   6
HETATM    6  C           1     -36.617  -0.383  -9.155  0.00  0.00     0.197 C 
HETATM    7  O           1     -37.747  -0.653  -8.691  0.00  0.00    -0.646 OA
HETATM    8  O           1     -35.719   0.049  -8.400  0.00  0.00    -0.646 OA
ENDBRANCH   5   6
BRANCH   5   9
HETATM    9  C           1     -37.470   0.028 -11.443  0.00  0.00     0.074 C 
BRANCH   9  10
HETATM   10  C           1     -37.099   0.018 -12.893  0.00  0.00    -0.056 A 
HETATM   11  C           1     -38.073  -0.226 -13.860  0.00  0.00     0.010 A 
HETATM   12  C           1     -37.728  -0.236 -15.212  0.00  0.00     0.037 A 
HETATM   13  C           1     -36.408  -0.001 -15.596  0.00  0.00     0.065 A 
HETATM   14  C           1     -35.433   0.243 -14.628  0.00  0.00     0.037 A 
HETATM   15  C           1     -35.778   0.252 -13.276  0.00  0.00     0.010 A 
BRANCH  13  16
HETATM   16  O           1     -36.072  -0.010 -16.908  0.00  0.00    -0.361 OA
HETATM   17  H           1     -36.631   0.641 -17.366  0.00  0.00     0.217 HD
ENDBRANCH  13  16
ENDBRANCH   9  10
ENDBRANCH   5   9
ENDBRANCH   1   5
BRANCH   3  18
HETATM   18  C           1     -34.923  -4.041 -11.463  0.00  0.00     0.275 C 
BRANCH  18  19
HETATM   19  C           1     -33.993  -4.702 -10.454  0.00  0.00     0.053 C 
BRANCH  19  20
HETATM   20  C           1     -33.770  -6.157 -10.844  0.00  0.00     0.076 C 
BRANCH  20  21
HETATM   21  S           1     -34.945  -7.211  -9.950  0.00  0.00    -0.173 SA
HETATM   22  C           1     -33.878  -8.678  -9.872  0.00  0.00     0.089 C 
ENDBRANCH  20  21
ENDBRANCH  19  20
ENDBRANCH  18  19
BRANCH  18  23
HETATM   23  N           1     -34.378  -4.234 -12.846  0.00  0.00    -0.066 N 
HETATM   24  H           1     -35.032  -3.807 -13.541  0.00  0.00     0.275 HD
HETATM   25  H           1     -33.443  -3.775 -12.920  0.00  0.00     0.275 HD
HETATM   26  H           1     -34.281  -5.257 -13.042  0.00  0.00     0.275 HD
ENDBRANCH  18  23
ENDBRANCH   3  18
TORSDOF 10
ENDMDL
MODEL 2
REMARK VINA RESULT:      -6.4      2.956      5.973
REMARK  10 active torsions:
REMARK  status: ('A' for Active; 'I' for Inactive)
REMARK    1  A    between atoms: C_7  and  C_19 
REMARK    2  A    between atoms: C_8  and  O_12 
REMARK    3  A    between atoms: N_9  and  C_18 
REMARK       I    between atoms: N_9  and  C_23 
REMARK    4  A    between atoms: C_10  and  C_20 
REMARK    5  A    between atoms: C_10  and  S_22 
REMARK    6  A    between atoms: C_15  and  C_23 
REMARK    7  A    between atoms: C_15  and  C_20 
REMARK    8  A    between atoms: C_15  and  N_26 
REMARK    9  A    between atoms: C_17  and  C_18 
REMARK   10  A    between atoms: C_18  and  C_19 
ROOT
HETATM    1  N           1     -35.983  -0.337 -13.159  0.00  0.00    -0.344 N 
HETATM    2  H           1     -35.137   0.157 -13.411  0.00  0.00     0.163 HD
HETATM    3  C           1     -37.057  -0.333 -14.007  0.00  0.00     0.249 C 
HETATM    4  O           1     -38.067  -0.922 -13.706  0.00  0.00    -0.271 OA
ENDROOT
BRANCH   1   5
HETATM    5  C           1     -36.058  -1.049 -11.898  0.00  0.00     0.189 C 
BRANCH   5   6
HETATM    6  C           1     -36.822  -0.218 -10.896  0.00  0.00     0.197 C 
HETATM    7  O           1     -36.289   0.789 -10.383  0.00  0.00    -0.646 OA
HETATM    8  O           1     -37.988  -0.538 -10.579  0.00  0.00    -0.646 OA
ENDBRANCH   5   6
BRANCH   5   9
HETATM    9  C           1     -34.650  -1.307 -11.377  0.00  0.00     0.074 C 
BRANCH   9  10
HETATM   10  C           1     -34.421  -2.781 -11.262  0.00  0.00    -0.056 A 
HETATM   11  C           1     -33.168  -3.318 -11.556  0.00  0.00     0.010 A 
HETATM   12  C           1     -32.954  -4.692 -11.450  0.00  0.00     0.037 A 
HETATM   13  C           1     -33.995  -5.530 -11.048  0.00  0.00     0.065 A 
HETATM   14  C           1     -35.249  -4.993 -10.755  0.00  0.00     0.037 A 
HETATM   15  C           1     -35.462  -3.619 -10.861  0.00  0.00     0.010 A 
BRANCH  13  16
HETATM   16  O           1     -33.788  -6.865 -10.945  0.00  0.00    -0.361 OA
HETATM   17  H           1     -33.289  -7.153 -11.728  0.00  0.00     0.217 HD
ENDBRANCH  13  16
ENDBRANCH   9  10
ENDBRANCH   5   9
ENDBRANCH   1   5
BRANCH   3  18
HETATM   18  C           1     -36.979   0.408 -15.320  0.00  0.00     0.275 C 
BRANCH  18  19
HETATM   19  C           1     -36.784  -0.588 -16.455  0.00  0.00     0.053 C 
BRANCH  19  20
HETATM   20  C           1     -35.308  -0.944 -16.572  0.00  0.00     0.076 C 
BRANCH  20  21
HETATM   21  S           1     -35.065  -2.681 -16.108  0.00  0.00    -0.173 SA
HETATM   22  C           1     -33.699  -3.006 -17.258  0.00  0.00     0.089 C 
ENDBRANCH  20  21
ENDBRANCH  19  20
ENDBRANCH  18  19
BRANCH  18  23
HETATM   23  N           1     -35.821   1.360 -15.286  0.00  0.00    -0.066 N 
HETATM   24  H           1     -35.476   1.454 -14.305  0.00  0.00     0.275 HD
HETATM   25  H           1     -35.052   0.996 -15.893  0.00  0.00     0.275 HD
HETATM   26  H           1     -36.129   2.296 -15.638  0.00  0.00     0.275 HD
ENDBRANCH  18  23
ENDBRANCH   3  18
TORSDOF 10
ENDMDL
MODEL 3
REMARK VINA RESULT:      -6.4     14.138     16.205
REMARK  10 active torsions:
REMARK  status: ('A' for Active; 'I' for Inactive)
REMARK    1  A    between atoms: C_7  and  C_19 
REMARK    2  A    between atoms: C_8  and  O_12 
REMARK    3  A    between atoms: N_9  and  C_18 
REMARK       I    between atoms: N_9  and  C_23 
REMARK    4  A    between atoms: C_10  and  C_20 
REMARK    5  A    between atoms: C_10  and  S_22 
REMARK    6  A    between atoms: C_15  and  C_23 
REMARK    7  A    between atoms: C_15  and  C_20 
REMARK    8  A    between atoms: C_15  and  N_26 
REMARK    9  A    between atoms: C_17  and  C_18 
REMARK   10  A    between atoms: C_18  and  C_19 
ROOT
HETATM    1  N           1     -21.441  -6.564  -6.244  0.00  0.00    -0.344 N 
HETATM    2  H           1     -22.401  -6.516  -5.926  0.00  0.00     0.163 HD
HETATM    3  C           1     -20.655  -7.626  -5.890  0.00  0.00     0.249 C 
HETATM    4  O           1     -19.510  -7.683  -6.269  0.00  0.00    -0.271 OA
ENDROOT
BRANCH   1   5
HETATM    5  C           1     -20.900  -5.505  -7.074  0.00  0.00     0.189 C 
BRANCH   5   6
HETATM    6  C           1     -19.862  -4.737  -6.295  0.00  0.00     0.197 C 
HETATM    7  O           1     -20.102  -4.372  -5.123  0.00  0.00    -0.646 OA
HETATM    8  O           1     -18.760  -4.465  -6.820  0.00  0.00    -0.646 OA
ENDBRANCH   5   6
BRANCH   5   9
HETATM    9  C           1     -22.023  -4.564  -7.492  0.00  0.00     0.074 C 
BRANCH   9  10
HETATM   10  C           1     -21.952  -4.326  -8.967  0.00  0.00    -0.056 A 
HETATM   11  C           1     -23.115  -4.046  -9.685  0.00  0.00     0.010 A 
HETATM   12  C           1     -23.050  -3.824 -11.061  0.00  0.00     0.037 A 
HETATM   13  C           1     -21.821  -3.883 -11.719  0.00  0.00     0.065 A 
HETATM   14  C           1     -20.659  -4.164 -11.001  0.00  0.00     0.037 A 
HETATM   15  C           1     -20.724  -4.386  -9.626  0.00  0.00     0.010 A 
BRANCH  13  16
HETATM   16  O           1     -21.758  -3.668 -13.055  0.00  0.00    -0.361 OA
HETATM   17  H           1     -21.346  -4.447 -13.465  0.00  0.00     0.217 HD
ENDBRANCH  13  16
ENDBRANCH   9  10
ENDBRANCH   5   9
ENDBRANCH   1   5
BRANCH   3  18
HETATM   18  C           1     -21.219  -8.728  -5.026  0.00  0.00     0.275 C 
BRANCH  18  19
HETATM   19  C           1     -20.524  -8.715  -3.670  0.00  0.00     0.053 C 
BRANCH  19  20
HETATM   20  C           1     -21.280  -7.797  -2.719  0.00  0.00     0.076 C 
BRANCH  20  21
HETATM   21  S           1     -21.535  -8.642  -1.135  0.00  0.00    -0.173 SA
HETATM   22  C           1     -22.497  -7.316  -0.354  0.00  0.00     0.089 C 
ENDBRANCH  20  21
ENDBRANCH  19  20
ENDBRANCH  18  19
BRANCH  18  23
HETATM   23  N           1     -20.991 -10.051  -5.692  0.00  0.00    -0.066 N 
HETATM   24  H           1     -21.759 -10.233  -6.377  0.00  0.00     0.275 HD
HETATM   25  H           1     -20.074 -10.036  -6.193  0.00  0.00     0.275 HD
HETATM   26  H           1     -20.982 -10.808  -4.971  0.00  0.00     0.275 HD
ENDBRANCH  18  23
ENDBRANCH   3  18
TORSDOF 10
ENDMDL
MODEL 4
REMARK VINA RESULT:      -6.2     14.963     18.593
REMARK  10 active torsions:
REMARK  status: ('A' for Active; 'I' for Inactive)
REMARK    1  A    between atoms: C_7  and  C_19 
REMARK    2  A    between atoms: C_8  and  O_12 
REMARK    3  A    between atoms: N_9  and  C_18 
REMARK       I    between atoms: N_9  and  C_23 
REMARK    4  A    between atoms: C_10  and  C_20 
REMARK    5  A    between atoms: C_10  and  S_22 
REMARK    6  A    between atoms: C_15  and  C_23 
REMARK    7  A    between atoms: C_15  and  C_20 
REMARK    8  A    between atoms: C_15  and  N_26 
REMARK    9  A    between atoms: C_17  and  C_18 
REMARK   10  A    between atoms: C_18  and  C_19 
ROOT
HETATM    1  N           1     -20.626  -7.541  -5.983  0.00  0.00    -0.344 N 
HETATM    2  H           1     -20.673  -8.128  -6.806  0.00  0.00     0.163 HD
HETATM    3  C           1     -20.908  -6.205  -6.078  0.00  0.00     0.249 C 
HETATM    4  O           1     -20.852  -5.505  -5.095  0.00  0.00    -0.271 OA
ENDROOT
BRANCH   1   5
HETATM    5  C           1     -20.261  -8.117  -4.704  0.00  0.00     0.189 C 
BRANCH   5   6
HETATM    6  C           1     -18.992  -8.920  -4.859  0.00  0.00     0.197 C 
HETATM    7  O           1     -18.626  -9.298  -5.993  0.00  0.00    -0.646 OA
HETATM    8  O           1     -18.308  -9.208  -3.853  0.00  0.00    -0.646 OA
ENDBRANCH   5   6
BRANCH   5   9
HETATM    9  C           1     -21.382  -9.026  -4.217  0.00  0.00     0.074 C 
BRANCH   9  10
HETATM   10  C           1     -21.679  -8.727  -2.781  0.00  0.00    -0.056 A 
HETATM   11  C           1     -21.667  -7.409  -2.326  0.00  0.00     0.010 A 
HETATM   12  C           1     -21.944  -7.129  -0.987  0.00  0.00     0.037 A 
HETATM   13  C           1     -22.233  -8.170  -0.104  0.00  0.00     0.065 A 
HETATM   14  C           1     -22.244  -9.488  -0.559  0.00  0.00     0.037 A 
HETATM   15  C           1     -21.967  -9.767  -1.898  0.00  0.00     0.010 A 
BRANCH  13  16
HETATM   16  O           1     -22.501  -7.899   1.196  0.00  0.00    -0.361 OA
HETATM   17  H           1     -23.324  -7.382   1.232  0.00  0.00     0.217 HD
ENDBRANCH  13  16
ENDBRANCH   9  10
ENDBRANCH   5   9
ENDBRANCH   1   5
BRANCH   3  18
HETATM   18  C           1     -21.289  -5.607  -7.410  0.00  0.00     0.275 C 
BRANCH  18  19
HETATM   19  C           1     -20.027  -5.256  -8.188  0.00  0.00     0.053 C 
BRANCH  19  20
HETATM   20  C           1     -20.239  -3.947  -8.937  0.00  0.00     0.076 C 
BRANCH  20  21
HETATM   21  S           1     -20.547  -4.295 -10.691  0.00  0.00    -0.173 SA
HETATM   22  C           1     -22.225  -3.605 -10.740  0.00  0.00     0.089 C 
ENDBRANCH  20  21
ENDBRANCH  19  20
ENDBRANCH  18  19
BRANCH  18  23
HETATM   23  N           1     -22.099  -4.365  -7.186  0.00  0.00    -0.066 N 
HETATM   24  H           1     -22.361  -3.949  -8.108  0.00  0.00     0.275 HD
HETATM   25  H           1     -22.964  -4.605  -6.653  0.00  0.00     0.275 HD
HETATM   26  H           1     -21.534  -3.674  -6.641  0.00  0.00     0.275 HD
ENDBRANCH  18  23
ENDBRANCH   3  18
TORSDOF 10
ENDMDL
MODEL 5
REMARK VINA RESULT:      -6.0      3.112      5.600
REMARK  10 active torsions:
REMARK  status: ('A' for Active; 'I' for Inactive)
REMARK    1  A    between atoms: C_7  and  C_19 
REMARK    2  A    between atoms: C_8  and  O_12 
REMARK    3  A    between atoms: N_9  and  C_18 
REMARK       I    between atoms: N_9  and  C_23 
REMARK    4  A    between atoms: C_10  and  C_20 
REMARK    5  A    between atoms: C_10  and  S_22 
REMARK    6  A    between atoms: C_15  and  C_23 
REMARK    7  A    between atoms: C_15  and  C_20 
REMARK    8  A    between atoms: C_15  and  N_26 
REMARK    9  A    between atoms: C_17  and  C_18 
REMARK   10  A    between atoms: C_18  and  C_19 
ROOT
HETATM    1  N           1     -35.921   0.085 -11.431  0.00  0.00    -0.344 N 
HETATM    2  H           1     -35.002   0.503 -11.361  0.00  0.00     0.163 HD
HETATM    3  C           1     -36.525  -0.040 -12.652  0.00  0.00     0.249 C 
HETATM    4  O           1     -37.622  -0.538 -12.736  0.00  0.00    -0.271 OA
ENDROOT
BRANCH   1   5
HETATM    5  C           1     -36.597  -0.380 -10.236  0.00  0.00     0.189 C 
BRANCH   5   6
HETATM    6  C           1     -37.061   0.807  -9.427  0.00  0.00     0.197 C 
HETATM    7  O           1     -38.051   1.471  -9.802  0.00  0.00    -0.646 OA
HETATM    8  O           1     -36.455   1.125  -8.381  0.00  0.00    -0.646 OA
ENDBRANCH   5   6
BRANCH   5   9
HETATM    9  C           1     -35.636  -1.219  -9.403  0.00  0.00     0.074 C 
BRANCH   9  10
HETATM   10  C           1     -34.936  -2.202 -10.288  0.00  0.00    -0.056 A 
HETATM   11  C           1     -35.657  -3.230 -10.895  0.00  0.00     0.010 A 
HETATM   12  C           1     -35.004  -4.148 -11.720  0.00  0.00     0.037 A 
HETATM   13  C           1     -33.630  -4.036 -11.937  0.00  0.00     0.065 A 
HETATM   14  C           1     -32.910  -3.008 -11.328  0.00  0.00     0.037 A 
HETATM   15  C           1     -33.562  -2.091 -10.504  0.00  0.00     0.010 A 
BRANCH  13  16
HETATM   16  O           1     -32.997  -4.927 -12.736  0.00  0.00    -0.361 OA
HETATM   17  H           1     -32.254  -4.470 -13.166  0.00  0.00     0.217 HD
ENDBRANCH  13  16
ENDBRANCH   9  10
ENDBRANCH   5   9
ENDBRANCH   1   5
BRANCH   3  18
HETATM   18  C           1     -35.821   0.445 -13.896  0.00  0.00     0.275 C 
BRANCH  18  19
HETATM   19  C           1     -35.412  -0.750 -14.747  0.00  0.00     0.053 C 
BRANCH  19  20
HETATM   20  C           1     -35.958  -0.580 -16.158  0.00  0.00     0.076 C 
BRANCH  20  21
HETATM   21  S           1     -37.768  -0.689 -16.126  0.00  0.00    -0.173 SA
HETATM   22  C           1     -38.075   1.100 -16.091  0.00  0.00     0.089 C 
ENDBRANCH  20  21
ENDBRANCH  19  20
ENDBRANCH  18  19
BRANCH  18  23
HETATM   23  N           1     -34.599   1.222 -13.506  0.00  0.00    -0.066 N 
HETATM   24  H           1     -34.868   1.988 -12.849  0.00  0.00     0.275 HD
HETATM   25  H           1     -33.916   0.586 -13.038  0.00  0.00     0.275 HD
HETATM   26  H           1     -34.161   1.635 -14.361  0.00  0.00     0.275 HD
ENDBRANCH  18  23
ENDBRANCH   3  18
TORSDOF 10
ENDMDL
MODEL 6
REMARK VINA RESULT:      -6.0     15.374     17.277
REMARK  10 active torsions:
REMARK  status: ('A' for Active; 'I' for Inactive)
REMARK    1  A    between atoms: C_7  and  C_19 
REMARK    2  A    between atoms: C_8  and  O_12 
REMARK    3  A    between atoms: N_9  and  C_18 
REMARK       I    between atoms: N_9  and  C_23 
REMARK    4  A    between atoms: C_10  and  C_20 
REMARK    5  A    between atoms: C_10  and  S_22 
REMARK    6  A    between atoms: C_15  and  C_23 
REMARK    7  A    between atoms: C_15  and  C_20 
REMARK    8  A    between atoms: C_15  and  N_26 
REMARK    9  A    between atoms: C_17  and  C_18 
REMARK   10  A    between atoms: C_18  and  C_19 
ROOT
HETATM    1  N           1     -21.131  -7.388  -3.096  0.00  0.00    -0.344 N 
HETATM    2  H           1     -20.441  -8.096  -2.879  0.00  0.00     0.163 HD
HETATM    3  C           1     -21.916  -6.870  -2.102  0.00  0.00     0.249 C 
HETATM    4  O           1     -22.740  -6.025  -2.362  0.00  0.00    -0.271 OA
ENDROOT
BRANCH   1   5
HETATM    5  C           1     -21.288  -6.925  -4.461  0.00  0.00     0.189 C 
BRANCH   5   6
HETATM    6  C           1     -20.715  -7.951  -5.409  0.00  0.00     0.197 C 
HETATM    7  O           1     -19.478  -8.124  -5.469  0.00  0.00    -0.646 OA
HETATM    8  O           1     -21.476  -8.627  -6.133  0.00  0.00    -0.646 OA
ENDBRANCH   5   6
BRANCH   5   9
HETATM    9  C           1     -20.552  -5.603  -4.636  0.00  0.00     0.074 C 
BRANCH   9  10
HETATM   10  C           1     -20.744  -5.106  -6.034  0.00  0.00    -0.056 A 
HETATM   11  C           1     -22.029  -4.997  -6.566  0.00  0.00     0.010 A 
HETATM   12  C           1     -22.209  -4.533  -7.869  0.00  0.00     0.037 A 
HETATM   13  C           1     -21.102  -4.179  -8.642  0.00  0.00     0.065 A 
HETATM   14  C           1     -19.818  -4.289  -8.111  0.00  0.00     0.037 A 
HETATM   15  C           1     -19.638  -4.752  -6.807  0.00  0.00     0.010 A 
BRANCH  13  16
HETATM   16  O           1     -21.277  -3.730  -9.908  0.00  0.00    -0.361 OA
HETATM   17  H           1     -20.399  -3.611 -10.308  0.00  0.00     0.217 HD
ENDBRANCH  13  16
ENDBRANCH   9  10
ENDBRANCH   5   9
ENDBRANCH   1   5
BRANCH   3  18
HETATM   18  C           1     -21.752  -7.352  -0.682  0.00  0.00     0.275 C 
BRANCH  18  19
HETATM   19  C           1     -20.925  -8.632  -0.673  0.00  0.00     0.053 C 
BRANCH  19  20
HETATM   20  C           1     -21.809  -9.805  -0.272  0.00  0.00     0.076 C 
BRANCH  20  21
HETATM   21  S           1     -22.220 -10.785  -1.742  0.00  0.00    -0.173 SA
HETATM   22  C           1     -23.887 -11.263  -1.204  0.00  0.00     0.089 C 
ENDBRANCH  20  21
ENDBRANCH  19  20
ENDBRANCH  18  19
BRANCH  18  23
HETATM   23  N           1     -23.102  -7.625  -0.089  0.00  0.00    -0.066 N 
HETATM   24  H           1     -23.064  -7.478   0.945  0.00  0.00     0.275 HD
HETATM   25  H           1     -23.805  -6.977  -0.508  0.00  0.00     0.275 HD
HETATM   26  H           1     -23.377  -8.614  -0.290  0.00  0.00     0.275 HD
ENDBRANCH  18  23
ENDBRANCH   3  18
TORSDOF 10
ENDMDL
MODEL 7
REMARK VINA RESULT:      -5.9     16.509     19.543
REMARK  10 active torsions:
REMARK  status: ('A' for Active; 'I' for Inactive)
REMARK    1  A    between atoms: C_7  and  C_19 
REMARK    2  A    between atoms: C_8  and  O_12 
REMARK    3  A    between atoms: N_9  and  C_18 
REMARK       I    between atoms: N_9  and  C_23 
REMARK    4  A    between atoms: C_10  and  C_20 
REMARK    5  A    between atoms: C_10  and  S_22 
REMARK    6  A    between atoms: C_15  and  C_23 
REMARK    7  A    between atoms: C_15  and  C_20 
REMARK    8  A    between atoms: C_15  and  N_26 
REMARK    9  A    between atoms: C_17  and  C_18 
REMARK   10  A    between atoms: C_18  and  C_19 
ROOT
HETATM    1  N           1     -20.773  -7.913  -2.586  0.00  0.00    -0.344 N 
HETATM    2  H           1     -19.970  -7.343  -2.354  0.00  0.00     0.163 HD
HETATM    3  C           1     -20.934  -8.381  -3.862  0.00  0.00     0.249 C 
HETATM    4  O           1     -21.893  -9.061  -4.140  0.00  0.00    -0.271 OA
ENDROOT
BRANCH   1   5
HETATM    5  C           1     -21.753  -8.234  -1.567  0.00  0.00     0.189 C 
BRANCH   5   6
HETATM    6  C           1     -22.445  -6.969  -1.120  0.00  0.00     0.197 C 
HETATM    7  O           1     -22.482  -5.975  -1.877  0.00  0.00    -0.646 OA
HETATM    8  O           1     -22.981  -6.915   0.008  0.00  0.00    -0.646 OA
ENDBRANCH   5   6
BRANCH   5   9
HETATM    9  C           1     -21.054  -8.879  -0.377  0.00  0.00     0.074 C 
BRANCH   9  10
HETATM   10  C           1     -21.725 -10.175  -0.046  0.00  0.00    -0.056 A 
HETATM   11  C           1     -21.005 -11.195   0.576  0.00  0.00     0.010 A 
HETATM   12  C           1     -21.629 -12.403   0.884  0.00  0.00     0.037 A 
HETATM   13  C           1     -22.975 -12.593   0.569  0.00  0.00     0.065 A 
HETATM   14  C           1     -23.695 -11.574  -0.055  0.00  0.00     0.037 A 
HETATM   15  C           1     -23.071 -10.365  -0.363  0.00  0.00     0.010 A 
BRANCH  13  16
HETATM   16  O           1     -23.582 -13.767   0.867  0.00  0.00    -0.361 OA
HETATM   17  H           1     -23.938 -14.139   0.042  0.00  0.00     0.217 HD
ENDBRANCH  13  16
ENDBRANCH   9  10
ENDBRANCH   5   9
ENDBRANCH   1   5
BRANCH   3  18
HETATM   18  C           1     -19.914  -8.046  -4.923  0.00  0.00     0.275 C 
BRANCH  18  19
HETATM   19  C           1     -20.555  -7.157  -5.981  0.00  0.00     0.053 C 
BRANCH  19  20
HETATM   20  C           1     -20.423  -5.698  -5.565  0.00  0.00     0.076 C 
BRANCH  20  21
HETATM   21  S           1     -19.764  -4.730  -6.951  0.00  0.00    -0.173 SA
HETATM   22  C           1     -21.237  -3.698  -7.194  0.00  0.00     0.089 C 
ENDBRANCH  20  21
ENDBRANCH  19  20
ENDBRANCH  18  19
BRANCH  18  23
HETATM   23  N           1     -19.427  -9.312  -5.562  0.00  0.00    -0.066 N 
HETATM   24  H           1     -18.736  -9.080  -6.311  0.00  0.00     0.275 HD
HETATM   25  H           1     -18.970  -9.914  -4.841  0.00  0.00     0.275 HD
HETATM   26  H           1     -20.236  -9.824  -5.983  0.00  0.00     0.275 HD
ENDBRANCH  18  23
ENDBRANCH   3  18
TORSDOF 10
ENDMDL
MODEL 8
REMARK VINA RESULT:      -5.8     16.235     18.828
REMARK  10 active torsions:
REMARK  status: ('A' for Active; 'I' for Inactive)
REMARK    1  A    between atoms: C_7  and  C_19 
REMARK    2  A    between atoms: C_8  and  O_12 
REMARK    3  A    between atoms: N_9  and  C_18 
REMARK       I    between atoms: N_9  and  C_23 
REMARK    4  A    between atoms: C_10  and  C_20 
REMARK    5  A    between atoms: C_10  and  S_22 
REMARK    6  A    between atoms: C_15  and  C_23 
REMARK    7  A    between atoms: C_15  and  C_20 
REMARK    8  A    between atoms: C_15  and  N_26 
REMARK    9  A    between atoms: C_17  and  C_18 
REMARK   10  A    between atoms: C_18  and  C_19 
ROOT
HETATM    1  N           1     -20.745  -7.926  -4.422  0.00  0.00    -0.344 N 
HETATM    2  H           1     -21.528  -7.662  -3.838  0.00  0.00     0.163 HD
HETATM    3  C           1     -20.492  -7.238  -5.578  0.00  0.00     0.249 C 
HETATM    4  O           1     -19.558  -7.554  -6.276  0.00  0.00    -0.271 OA
ENDROOT
BRANCH   1   5
HETATM    5  C           1     -19.893  -9.033  -4.034  0.00  0.00     0.189 C 
BRANCH   5   6
HETATM    6  C           1     -20.674 -10.321  -4.120  0.00  0.00     0.197 C 
HETATM    7  O           1     -20.080 -11.419  -4.048  0.00  0.00    -0.646 OA
HETATM    8  O           1     -21.916 -10.292  -4.263  0.00  0.00    -0.646 OA
ENDBRANCH   5   6
BRANCH   5   9
HETATM    9  C           1     -19.410  -8.825  -2.605  0.00  0.00     0.074 C 
BRANCH   9  10
HETATM   10  C           1     -20.578  -8.519  -1.722  0.00  0.00    -0.056 A 
HETATM   11  C           1     -21.194  -7.269  -1.787  0.00  0.00     0.010 A 
HETATM   12  C           1     -22.283  -6.983  -0.964  0.00  0.00     0.037 A 
HETATM   13  C           1     -22.757  -7.948  -0.075  0.00  0.00     0.065 A 
HETATM   14  C           1     -22.141  -9.197  -0.009  0.00  0.00     0.037 A 
HETATM   15  C           1     -21.052  -9.483  -0.832  0.00  0.00     0.010 A 
BRANCH  13  16
HETATM   16  O           1     -23.814  -7.670   0.725  0.00  0.00    -0.361 OA
HETATM   17  H           1     -23.748  -6.739   0.998  0.00  0.00     0.217 HD
ENDBRANCH  13  16
ENDBRANCH   9  10
ENDBRANCH   5   9
ENDBRANCH   1   5
BRANCH   3  18
HETATM   18  C           1     -21.379  -6.086  -5.981  0.00  0.00     0.275 C 
BRANCH  18  19
HETATM   19  C           1     -20.628  -4.775  -5.787  0.00  0.00     0.053 C 
BRANCH  19  20
HETATM   20  C           1     -20.525  -4.046  -7.121  0.00  0.00     0.076 C 
BRANCH  20  21
HETATM   21  S           1     -21.611  -4.846  -8.334  0.00  0.00    -0.173 SA
HETATM   22  C           1     -20.654  -4.370  -9.802  0.00  0.00     0.089 C 
ENDBRANCH  20  21
ENDBRANCH  19  20
ENDBRANCH  18  19
BRANCH  18  23
HETATM   23  N           1     -22.613  -6.086  -5.129  0.00  0.00    -0.066 N 
HETATM   24  H           1     -23.426  -5.749  -5.694  0.00  0.00     0.275 HD
HETATM   25  H           1     -22.802  -7.055  -4.789  0.00  0.00     0.275 HD
HETATM   26  H           1     -22.471  -5.450  -4.311  0.00  0.00     0.275 HD
ENDBRANCH  18  23
ENDBRANCH   3  18
TORSDOF 10
ENDMDL
MODEL 9
REMARK VINA RESULT:      -5.7     18.162     20.286
REMARK  10 active torsions:
REMARK  status: ('A' for Active; 'I' for Inactive)
REMARK    1  A    between atoms: C_7  and  C_19 
REMARK    2  A    between atoms: C_8  and  O_12 
REMARK    3  A    between atoms: N_9  and  C_18 
REMARK       I    between atoms: N_9  and  C_23 
REMARK    4  A    between atoms: C_10  and  C_20 
REMARK    5  A    between atoms: C_10  and  S_22 
REMARK    6  A    between atoms: C_15  and  C_23 
REMARK    7  A    between atoms: C_15  and  C_20 
REMARK    8  A    between atoms: C_15  and  N_26 
REMARK    9  A    between atoms: C_17  and  C_18 
REMARK   10  A    between atoms: C_18  and  C_19 
ROOT
HETATM    1  N           1     -20.447  -8.320  -2.787  0.00  0.00    -0.344 N 
HETATM    2  H           1     -19.614  -7.751  -2.706  0.00  0.00     0.163 HD
HETATM    3  C           1     -20.469  -9.383  -3.649  0.00  0.00     0.249 C 
HETATM    4  O           1     -21.464 -10.061  -3.746  0.00  0.00    -0.271 OA
ENDROOT
BRANCH   1   5
HETATM    5  C           1     -21.618  -8.007  -1.991  0.00  0.00     0.189 C 
BRANCH   5   6
HETATM    6  C           1     -21.950  -6.542  -2.141  0.00  0.00     0.197 C 
HETATM    7  O           1     -21.850  -5.989  -3.258  0.00  0.00    -0.646 OA
HETATM    8  O           1     -22.325  -5.881  -1.148  0.00  0.00    -0.646 OA
ENDBRANCH   5   6
BRANCH   5   9
HETATM    9  C           1     -21.333  -8.316  -0.527  0.00  0.00     0.074 C 
BRANCH   9  10
HETATM   10  C           1     -21.895  -9.659  -0.182  0.00  0.00    -0.056 A 
HETATM   11  C           1     -21.067 -10.645   0.356  0.00  0.00     0.010 A 
HETATM   12  C           1     -21.590 -11.897   0.678  0.00  0.00     0.037 A 
HETATM   13  C           1     -22.942 -12.164   0.461  0.00  0.00     0.065 A 
HETATM   14  C           1     -23.770 -11.179  -0.077  0.00  0.00     0.037 A 
HETATM   15  C           1     -23.247  -9.927  -0.399  0.00  0.00     0.010 A 
BRANCH  13  16
HETATM   16  O           1     -23.450 -13.381   0.773  0.00  0.00    -0.361 OA
HETATM   17  H           1     -24.158 -13.582   0.138  0.00  0.00     0.217 HD
ENDBRANCH  13  16
ENDBRANCH   9  10
ENDBRANCH   5   9
ENDBRANCH   1   5
BRANCH   3  18
HETATM   18  C           1     -19.251  -9.709  -4.477  0.00  0.00     0.275 C 
BRANCH  18  19
HETATM   19  C           1     -17.999  -9.548  -3.624  0.00  0.00     0.053 C 
BRANCH  19  20
HETATM   20  C           1     -17.496 -10.920  -3.195  0.00  0.00     0.076 C 
BRANCH  20  21
HETATM   21  S           1     -15.796 -10.777  -2.580  0.00  0.00    -0.173 SA
HETATM   22  C           1     -16.099 -11.558  -0.970  0.00  0.00     0.089 C 
ENDBRANCH  20  21
ENDBRANCH  19  20
ENDBRANCH  18  19
BRANCH  18  23
HETATM   23  N           1     -19.181  -8.775  -5.649  0.00  0.00    -0.066 N 
HETATM   24  H           1     -18.667  -7.909  -5.373  0.00  0.00     0.275 HD
HETATM   25  H           1     -18.679  -9.242  -6.437  0.00  0.00     0.275 HD
HETATM   26  H           1     -20.149  -8.524  -5.952  0.00  0.00     0.275 HD
ENDBRANCH  18  23
ENDBRANCH   3  18
TORSDOF 10
ENDMDL
