MODEL 1
REMARK VINA RESULT:      -8.5      0.000      0.000
REMARK  7 active torsions:
REMARK  status: ('A' for Active; 'I' for Inactive)
REMARK       I    between atoms: C_6  and  N_11 
REMARK    1  A    between atoms: C_6  and  C_7 
REMARK    2  A    between atoms: C_7  and  C_20 
REMARK    3  A    between atoms: C_7  and  N_24 
REMARK    4  A    between atoms: N_11  and  C_21 
REMARK    5  A    between atoms: C_14  and  C_21 
REMARK    6  A    between atoms: C_15  and  C_21 
REMARK    7  A    between atoms: C_18  and  C_20 
ROOT
HETATM    1  C           1     -21.032  -5.400  -6.555  0.00  0.00     0.278 C 
ENDROOT
BRANCH   1   2
HETATM    2  C           1     -21.556  -4.364  -7.519  0.00  0.00     0.249 C 
HETATM    3  O           1     -21.516  -3.192  -7.227  0.00  0.00    -0.271 OA
HETATM    4  N           1     -22.077  -4.751  -8.724  0.00  0.00    -0.344 N 
HETATM    5  H           1     -22.112  -5.733  -8.969  0.00  0.00     0.163 HD
BRANCH   4   6
HETATM    6  C           1     -22.581  -3.756  -9.651  0.00  0.00     0.189 C 
BRANCH   6   7
HETATM    7  C           1     -21.998  -4.010 -11.035  0.00  0.00     0.010 C 
HETATM    8  C           1     -20.480  -4.101 -10.939  0.00  0.00     0.012 C 
HETATM    9  C           1     -22.379  -2.865 -11.963  0.00  0.00     0.012 C 
ENDBRANCH   6   7
BRANCH   6  10
HETATM   10  C           1     -24.085  -3.845  -9.716  0.00  0.00     0.197 C 
HETATM   11  O           1     -24.784  -2.853  -9.414  0.00  0.00    -0.646 OA
HETATM   12  O           1     -24.633  -4.911 -10.071  0.00  0.00    -0.646 OA
ENDBRANCH   6  10
ENDBRANCH   4   6
ENDBRANCH   1   2
BRANCH   1  13
HETATM   13  C           1     -22.173  -5.901  -5.678  0.00  0.00     0.083 C 
BRANCH  13  14
HETATM   14  C           1     -21.686  -7.029  -4.823  0.00  0.00    -0.028 A 
HETATM   15  C           1     -21.752  -7.093  -3.403  0.00  0.00    -0.002 A 
HETATM   16  C           1     -21.189  -8.311  -3.021  0.00  0.00     0.042 A 
HETATM   17  C           1     -22.238  -6.227  -2.404  0.00  0.00     0.014 A 
HETATM   18  N           1     -20.799  -8.956  -4.173  0.00  0.00    -0.365 N 
HETATM   19  C           1     -21.088  -8.710  -1.682  0.00  0.00     0.030 A 
HETATM   20  C           1     -21.095  -8.189  -5.268  0.00  0.00     0.096 A 
HETATM   21  H           1     -20.341  -9.900  -4.207  0.00  0.00     0.165 HD
HETATM   22  C           1     -21.578  -7.833  -0.708  0.00  0.00     0.002 A 
HETATM   23  C           1     -22.144  -6.610  -1.061  0.00  0.00     0.001 A 
ENDBRANCH  13  14
ENDBRANCH   1  13
BRANCH   1  24
HETATM   24  N           1     -19.970  -4.787  -5.693  0.00  0.00    -0.066 N 
HETATM   25  H           1     -20.368  -4.570  -4.751  0.00  0.00     0.275 HD
HETATM   26  H           1     -19.625  -3.907  -6.138  0.00  0.00     0.275 HD
HETATM   27  H           1     -19.175  -5.458  -5.588  0.00  0.00     0.275 HD
ENDBRANCH   1  24
TORSDOF 7
ENDMDL
MODEL 2
REMARK VINA RESULT:      -7.9      2.372      8.063
REMARK  7 active torsions:
REMARK  status: ('A' for Active; 'I' for Inactive)
REMARK       I    between atoms: C_6  and  N_11 
REMARK    1  A    between atoms: C_6  and  C_7 
REMARK    2  A    between atoms: C_7  and  C_20 
REMARK    3  A    between atoms: C_7  and  N_24 
REMARK    4  A    between atoms: N_11  and  C_21 
REMARK    5  A    between atoms: C_14  and  C_21 
REMARK    6  A    between atoms: C_15  and  C_21 
REMARK    7  A    between atoms: C_18  and  C_20 
ROOT
HETATM    1  C           1     -21.935  -4.437  -7.134  0.00  0.00     0.278 C 
ENDROOT
BRANCH   1   2
HETATM    2  C           1     -21.032  -5.285  -6.273  0.00  0.00     0.249 C 
HETATM    3  O           1     -19.835  -5.122  -6.309  0.00  0.00    -0.271 OA
HETATM    4  N           1     -21.568  -6.239  -5.451  0.00  0.00    -0.344 N 
HETATM    5  H           1     -22.570  -6.377  -5.421  0.00  0.00     0.163 HD
BRANCH   4   6
HETATM    6  C           1     -20.700  -7.054  -4.623  0.00  0.00     0.189 C 
BRANCH   6   7
HETATM    7  C           1     -21.427  -7.424  -3.336  0.00  0.00     0.010 C 
HETATM    8  C           1     -21.861  -6.154  -2.615  0.00  0.00     0.012 C 
HETATM    9  C           1     -20.492  -8.223  -2.438  0.00  0.00     0.012 C 
ENDBRANCH   6   7
BRANCH   6  10
HETATM   10  C           1     -20.329  -8.312  -5.369  0.00  0.00     0.197 C 
HETATM   11  O           1     -21.216  -9.127  -5.703  0.00  0.00    -0.646 OA
HETATM   12  O           1     -19.133  -8.539  -5.654  0.00  0.00    -0.646 OA
ENDBRANCH   6  10
ENDBRANCH   4   6
ENDBRANCH   1   2
BRANCH   1  13
HETATM   13  C           1     -21.799  -4.866  -8.590  0.00  0.00     0.083 C 
BRANCH  13  14
HETATM   14  C           1     -22.970  -4.358  -9.372  0.00  0.00    -0.028 A 
HETATM   15  C           1     -22.942  -3.887 -10.714  0.00  0.00    -0.002 A 
HETATM   16  C           1     -24.244  -3.513 -11.046  0.00  0.00     0.042 A 
HETATM   17  C           1     -21.927  -3.742 -11.680  0.00  0.00     0.014 A 
HETATM   18  N           1     -25.028  -3.753  -9.939  0.00  0.00    -0.365 N 
HETATM   19  C           1     -24.586  -3.000 -12.303  0.00  0.00     0.030 A 
HETATM   20  C           1     -24.267  -4.263  -8.921  0.00  0.00     0.096 A 
HETATM   21  H           1     -26.060  -3.570  -9.884  0.00  0.00     0.165 HD
HETATM   22  C           1     -23.562  -2.866 -13.246  0.00  0.00     0.002 A 
HETATM   23  C           1     -22.252  -3.231 -12.942  0.00  0.00     0.001 A 
ENDBRANCH  13  14
ENDBRANCH   1  13
BRANCH   1  24
HETATM   24  N           1     -21.545  -2.996  -6.999  0.00  0.00    -0.066 N 
HETATM   25  H           1     -22.334  -2.458  -6.575  0.00  0.00     0.275 HD
HETATM   26  H           1     -21.323  -2.606  -7.943  0.00  0.00     0.275 HD
HETATM   27  H           1     -20.702  -2.919  -6.386  0.00  0.00     0.275 HD
ENDBRANCH   1  24
TORSDOF 7
ENDMDL
MODEL 3
REMARK VINA RESULT:      -7.9      2.495      7.816
REMARK  7 active torsions:
REMARK  status: ('A' for Active; 'I' for Inactive)
REMARK       I    between atoms: C_6  and  N_11 
REMARK    1  A    between atoms: C_6  and  C_7 
REMARK    2  A    between atoms: C_7  and  C_20 
REMARK    3  A    between atoms: C_7  and  N_24 
REMARK    4  A    between atoms: N_11  and  C_21 
REMARK    5  A    between atoms: C_14  and  C_21 
REMARK    6  A    between atoms: C_15  and  C_21 
REMARK    7  A    between atoms: C_18  and  C_20 
ROOT
HETATM    1  C           1     -21.159  -4.852  -6.298  0.00  0.00     0.278 C 
ENDROOT
BRANCH   1   2
HETATM    2  C           1     -21.757  -5.871  -5.358  0.00  0.00     0.249 C 
HETATM    3  O           1     -22.953  -6.031  -5.324  0.00  0.00    -0.271 OA
HETATM    4  N           1     -20.943  -6.613  -4.546  0.00  0.00    -0.344 N 
HETATM    5  H           1     -19.940  -6.478  -4.575  0.00  0.00     0.163 HD
BRANCH   4   6
HETATM    6  C           1     -21.516  -7.592  -3.644  0.00  0.00     0.189 C 
BRANCH   6   7
HETATM    7  C           1     -20.644  -8.841  -3.629  0.00  0.00     0.010 C 
HETATM    8  C           1     -19.516  -8.685  -4.641  0.00  0.00     0.012 C 
HETATM    9  C           1     -21.490 -10.053  -3.996  0.00  0.00     0.012 C 
ENDBRANCH   6   7
BRANCH   6  10
HETATM   10  C           1     -21.586  -7.013  -2.253  0.00  0.00     0.197 C 
HETATM   11  O           1     -20.949  -7.548  -1.319  0.00  0.00    -0.646 OA
HETATM   12  O           1     -22.281  -5.998  -2.033  0.00  0.00    -0.646 OA
ENDBRANCH   6  10
ENDBRANCH   4   6
ENDBRANCH   1   2
BRANCH   1  13
HETATM   13  C           1     -21.236  -5.373  -7.728  0.00  0.00     0.083 C 
BRANCH  13  14
HETATM   14  C           1     -22.288  -4.617  -8.478  0.00  0.00    -0.028 A 
HETATM   15  C           1     -22.211  -4.198  -9.836  0.00  0.00    -0.002 A 
HETATM   16  C           1     -23.400  -3.530 -10.127  0.00  0.00     0.042 A 
HETATM   17  C           1     -21.238  -4.323 -10.846  0.00  0.00     0.014 A 
HETATM   18  N           1     -24.165  -3.548  -8.983  0.00  0.00    -0.365 N 
HETATM   19  C           1     -23.668  -2.978 -11.386  0.00  0.00     0.030 A 
HETATM   20  C           1     -23.502  -4.203  -7.980  0.00  0.00     0.096 A 
HETATM   21  H           1     -25.120  -3.121  -8.892  0.00  0.00     0.165 HD
HETATM   22  C           1     -22.687  -3.116 -12.374  0.00  0.00     0.002 A 
HETATM   23  C           1     -21.490  -3.778 -12.111  0.00  0.00     0.001 A 
ENDBRANCH  13  14
ENDBRANCH   1  13
BRANCH   1  24
HETATM   24  N           1     -19.725  -4.614  -5.930  0.00  0.00    -0.066 N 
HETATM   25  H           1     -19.529  -5.042  -4.998  0.00  0.00     0.275 HD
HETATM   26  H           1     -19.543  -3.586  -5.889  0.00  0.00     0.275 HD
HETATM   27  H           1     -19.104  -5.048  -6.650  0.00  0.00     0.275 HD
ENDBRANCH   1  24
TORSDOF 7
ENDMDL
MODEL 4
REMARK VINA RESULT:      -7.8      2.803      7.814
REMARK  7 active torsions:
REMARK  status: ('A' for Active; 'I' for Inactive)
REMARK       I    between atoms: C_6  and  N_11 
REMARK    1  A    between atoms: C_6  and  C_7 
REMARK    2  A    between atoms: C_7  and  C_20 
REMARK    3  A    between atoms: C_7  and  N_24 
REMARK    4  A    between atoms: N_11  and  C_21 
REMARK    5  A    between atoms: C_14  and  C_21 
REMARK    6  A    between atoms: C_15  and  C_21 
REMARK    7  A    between atoms: C_18  and  C_20 
ROOT
HETATM    1  C           1     -20.797  -5.519  -6.065  0.00  0.00     0.278 C 
ENDROOT
BRANCH   1   2
HETATM    2  C           1     -20.233  -6.895  -5.810  0.00  0.00     0.249 C 
HETATM    3  O           1     -19.388  -7.347  -6.545  0.00  0.00    -0.271 OA
HETATM    4  N           1     -20.677  -7.631  -4.745  0.00  0.00    -0.344 N 
HETATM    5  H           1     -21.386  -7.252  -4.128  0.00  0.00     0.163 HD
BRANCH   4   6
HETATM    6  C           1     -20.135  -8.953  -4.499  0.00  0.00     0.189 C 
BRANCH   6   7
HETATM    7  C           1     -19.928  -9.146  -3.002  0.00  0.00     0.010 C 
HETATM    8  C           1     -20.474  -7.937  -2.253  0.00  0.00     0.012 C 
HETATM    9  C           1     -18.441  -9.295  -2.711  0.00  0.00     0.012 C 
ENDBRANCH   6   7
BRANCH   6  10
HETATM   10  C           1     -21.098  -9.994  -5.011  0.00  0.00     0.197 C 
HETATM   11  O           1     -21.949 -10.493  -4.242  0.00  0.00    -0.646 OA
HETATM   12  O           1     -21.046 -10.360  -6.206  0.00  0.00    -0.646 OA
ENDBRANCH   6  10
ENDBRANCH   4   6
ENDBRANCH   1   2
BRANCH   1  13
HETATM   13  C           1     -20.570  -5.139  -7.523  0.00  0.00     0.083 C 
BRANCH  13  14
HETATM   14  C           1     -21.840  -4.598  -8.102  0.00  0.00    -0.028 A 
HETATM   15  C           1     -22.025  -4.142  -9.436  0.00  0.00    -0.002 A 
HETATM   16  C           1     -23.352  -3.726  -9.548  0.00  0.00     0.042 A 
HETATM   17  C           1     -21.186  -4.042 -10.563  0.00  0.00     0.014 A 
HETATM   18  N           1     -23.943  -3.927  -8.321  0.00  0.00    -0.365 N 
HETATM   19  C           1     -23.886  -3.213 -10.736  0.00  0.00     0.030 A 
HETATM   20  C           1     -23.038  -4.454  -7.439  0.00  0.00     0.096 A 
HETATM   21  H           1     -24.945  -3.708  -8.093  0.00  0.00     0.165 HD
HETATM   22  C           1     -23.034  -3.124 -11.842  0.00  0.00     0.002 A 
HETATM   23  C           1     -21.704  -3.532 -11.759  0.00  0.00     0.001 A 
ENDBRANCH  13  14
ENDBRANCH   1  13
BRANCH   1  24
HETATM   24  N           1     -20.111  -4.525  -5.177  0.00  0.00    -0.066 N 
HETATM   25  H           1     -20.792  -4.153  -4.477  0.00  0.00     0.275 HD
HETATM   26  H           1     -19.740  -3.739  -5.756  0.00  0.00     0.275 HD
HETATM   27  H           1     -19.319  -4.991  -4.678  0.00  0.00     0.275 HD
ENDBRANCH   1  24
TORSDOF 7
ENDMDL
MODEL 5
REMARK VINA RESULT:      -7.7      2.476      7.890
REMARK  7 active torsions:
REMARK  status: ('A' for Active; 'I' for Inactive)
REMARK       I    between atoms: C_6  and  N_11 
REMARK    1  A    between atoms: C_6  and  C_7 
REMARK    2  A    between atoms: C_7  and  C_20 
REMARK    3  A    between atoms: C_7  and  N_24 
REMARK    4  A    between atoms: N_11  and  C_21 
REMARK    5  A    between atoms: C_14  and  C_21 
REMARK    6  A    between atoms: C_15  and  C_21 
REMARK    7  A    between atoms: C_18  and  C_20 
ROOT
HETATM    1  C           1     -22.282  -5.091  -6.987  0.00  0.00     0.278 C 
ENDROOT
BRANCH   1   2
HETATM    2  C           1     -21.307  -5.655  -5.983  0.00  0.00     0.249 C 
HETATM    3  O           1     -20.232  -5.127  -5.822  0.00  0.00    -0.271 OA
HETATM    4  N           1     -21.639  -6.765  -5.254  0.00  0.00    -0.344 N 
HETATM    5  H           1     -22.539  -7.208  -5.389  0.00  0.00     0.163 HD
BRANCH   4   6
HETATM    6  C           1     -20.702  -7.307  -4.290  0.00  0.00     0.189 C 
BRANCH   6   7
HETATM    7  C           1     -21.427  -7.588  -2.980  0.00  0.00     0.010 C 
HETATM    8  C           1     -22.023  -6.293  -2.441  0.00  0.00     0.012 C 
HETATM    9  C           1     -20.442  -8.153  -1.966  0.00  0.00     0.012 C 
ENDBRANCH   6   7
BRANCH   6  10
HETATM   10  C           1     -20.116  -8.590  -4.824  0.00  0.00     0.197 C 
HETATM   11  O           1     -20.843  -9.403  -5.435  0.00  0.00    -0.646 OA
HETATM   12  O           1     -18.903  -8.841  -4.655  0.00  0.00    -0.646 OA
ENDBRANCH   6  10
ENDBRANCH   4   6
ENDBRANCH   1   2
BRANCH   1  13
HETATM   13  C           1     -21.767  -3.752  -7.500  0.00  0.00     0.083 C 
BRANCH  13  14
HETATM   14  C           1     -21.464  -3.862  -8.962  0.00  0.00    -0.028 A 
HETATM   15  C           1     -22.390  -3.676 -10.026  0.00  0.00    -0.002 A 
HETATM   16  C           1     -21.691  -3.870 -11.217  0.00  0.00     0.042 A 
HETATM   17  C           1     -23.761  -3.361 -10.087  0.00  0.00     0.014 A 
HETATM   18  N           1     -20.389  -4.162 -10.879  0.00  0.00    -0.365 N 
HETATM   19  C           1     -22.298  -3.763 -12.475  0.00  0.00     0.030 A 
HETATM   20  C           1     -20.241  -4.160  -9.518  0.00  0.00     0.096 A 
HETATM   21  H           1     -19.620  -4.359 -11.566  0.00  0.00     0.165 HD
HETATM   22  C           1     -23.660  -3.449 -12.511  0.00  0.00     0.002 A 
HETATM   23  C           1     -24.383  -3.250 -11.336  0.00  0.00     0.001 A 
ENDBRANCH  13  14
ENDBRANCH   1  13
BRANCH   1  24
HETATM   24  N           1     -23.616  -4.893  -6.330  0.00  0.00    -0.066 N 
HETATM   25  H           1     -23.677  -3.922  -5.950  0.00  0.00     0.275 HD
HETATM   26  H           1     -23.725  -5.581  -5.551  0.00  0.00     0.275 HD
HETATM   27  H           1     -24.376  -5.041  -7.032  0.00  0.00     0.275 HD
ENDBRANCH   1  24
TORSDOF 7
ENDMDL
MODEL 6
REMARK VINA RESULT:      -7.3      1.268      2.115
REMARK  7 active torsions:
REMARK  status: ('A' for Active; 'I' for Inactive)
REMARK       I    between atoms: C_6  and  N_11 
REMARK    1  A    between atoms: C_6  and  C_7 
REMARK    2  A    between atoms: C_7  and  C_20 
REMARK    3  A    between atoms: C_7  and  N_24 
REMARK    4  A    between atoms: N_11  and  C_21 
REMARK    5  A    between atoms: C_14  and  C_21 
REMARK    6  A    between atoms: C_15  and  C_21 
REMARK    7  A    between atoms: C_18  and  C_20 
ROOT
HETATM    1  C           1     -21.049  -5.778  -6.853  0.00  0.00     0.278 C 
ENDROOT
BRANCH   1   2
HETATM    2  C           1     -21.616  -4.631  -7.653  0.00  0.00     0.249 C 
HETATM    3  O           1     -21.638  -3.519  -7.182  0.00  0.00    -0.271 OA
HETATM    4  N           1     -22.105  -4.850  -8.912  0.00  0.00    -0.344 N 
HETATM    5  H           1     -22.087  -5.782  -9.308  0.00  0.00     0.163 HD
BRANCH   4   6
HETATM    6  C           1     -22.650  -3.748  -9.681  0.00  0.00     0.189 C 
BRANCH   6   7
HETATM    7  C           1     -22.117  -3.811 -11.107  0.00  0.00     0.010 C 
HETATM    8  C           1     -20.594  -3.776 -11.083  0.00  0.00     0.012 C 
HETATM    9  C           1     -22.640  -2.619 -11.897  0.00  0.00     0.012 C 
ENDBRANCH   6   7
BRANCH   6  10
HETATM   10  C           1     -24.155  -3.845  -9.702  0.00  0.00     0.197 C 
HETATM   11  O           1     -24.850  -2.841  -9.433  0.00  0.00    -0.646 OA
HETATM   12  O           1     -24.707  -4.929  -9.989  0.00  0.00    -0.646 OA
ENDBRANCH   6  10
ENDBRANCH   4   6
ENDBRANCH   1   2
BRANCH   1  13
HETATM   13  C           1     -20.632  -5.280  -5.475  0.00  0.00     0.083 C 
BRANCH  13  14
HETATM   14  C           1     -20.984  -6.307  -4.445  0.00  0.00    -0.028 A 
HETATM   15  C           1     -20.442  -7.619  -4.351  0.00  0.00    -0.002 A 
HETATM   16  C           1     -21.043  -8.234  -3.253  0.00  0.00     0.042 A 
HETATM   17  C           1     -19.493  -8.344  -5.099  0.00  0.00     0.014 A 
HETATM   18  N           1     -21.917  -7.322  -2.707  0.00  0.00    -0.365 N 
HETATM   19  C           1     -20.743  -9.545  -2.862  0.00  0.00     0.030 A 
HETATM   20  C           1     -21.889  -6.153  -3.420  0.00  0.00     0.096 A 
HETATM   21  H           1     -22.519  -7.496  -1.864  0.00  0.00     0.165 HD
HETATM   22  C           1     -19.798 -10.244  -3.620  0.00  0.00     0.002 A 
HETATM   23  C           1     -19.181  -9.655  -4.722  0.00  0.00     0.001 A 
ENDBRANCH  13  14
ENDBRANCH   1  13
BRANCH   1  24
HETATM   24  N           1     -19.854  -6.340  -7.564  0.00  0.00    -0.066 N 
HETATM   25  H           1     -20.070  -7.305  -7.901  0.00  0.00     0.275 HD
HETATM   26  H           1     -19.042  -6.372  -6.907  0.00  0.00     0.275 HD
HETATM   27  H           1     -19.617  -5.732  -8.380  0.00  0.00     0.275 HD
ENDBRANCH   1  24
TORSDOF 7
ENDMDL
MODEL 7
REMARK VINA RESULT:      -7.2     13.023     14.880
REMARK  7 active torsions:
REMARK  status: ('A' for Active; 'I' for Inactive)
REMARK       I    between atoms: C_6  and  N_11 
REMARK    1  A    between atoms: C_6  and  C_7 
REMARK    2  A    between atoms: C_7  and  C_20 
REMARK    3  A    between atoms: C_7  and  N_24 
REMARK    4  A    between atoms: N_11  and  C_21 
REMARK    5  A    between atoms: C_14  and  C_21 
REMARK    6  A    between atoms: C_15  and  C_21 
REMARK    7  A    between atoms: C_18  and  C_20 
ROOT
HETATM    1  C           1     -35.318  -1.591 -11.136  0.00  0.00     0.278 C 
ENDROOT
BRANCH   1   2
HETATM    2  C           1     -35.908  -1.072 -12.424  0.00  0.00     0.249 C 
HETATM    3  O           1     -37.080  -0.783 -12.478  0.00  0.00    -0.271 OA
HETATM    4  N           1     -35.117  -0.928 -13.531  0.00  0.00    -0.344 N 
HETATM    5  H           1     -34.135  -1.171 -13.487  0.00  0.00     0.163 HD
BRANCH   4   6
HETATM    6  C           1     -35.683  -0.430 -14.769  0.00  0.00     0.189 C 
BRANCH   6   7
HETATM    7  C           1     -35.031   0.900 -15.127  0.00  0.00     0.010 C 
HETATM    8  C           1     -34.445   1.533 -13.871  0.00  0.00     0.012 C 
HETATM    9  C           1     -36.077   1.833 -15.723  0.00  0.00     0.012 C 
ENDBRANCH   6   7
BRANCH   6  10
HETATM   10  C           1     -35.432  -1.425 -15.874  0.00  0.00     0.197 C 
HETATM   11  O           1     -35.822  -1.181 -17.037  0.00  0.00    -0.646 OA
HETATM   12  O           1     -34.834  -2.495 -15.628  0.00  0.00    -0.646 OA
ENDBRANCH   6  10
ENDBRANCH   4   6
ENDBRANCH   1   2
BRANCH   1  13
HETATM   13  C           1     -35.791  -3.020 -10.899  0.00  0.00     0.083 C 
BRANCH  13  14
HETATM   14  C           1     -34.659  -3.968 -11.145  0.00  0.00    -0.028 A 
HETATM   15  C           1     -34.568  -5.306 -10.671  0.00  0.00    -0.002 A 
HETATM   16  C           1     -33.356  -5.823 -11.129  0.00  0.00     0.042 A 
HETATM   17  C           1     -35.406  -6.128  -9.892  0.00  0.00     0.014 A 
HETATM   18  N           1     -32.740  -4.827 -11.854  0.00  0.00    -0.365 N 
HETATM   19  C           1     -32.937  -7.128 -10.847  0.00  0.00     0.030 A 
HETATM   20  C           1     -33.520  -3.701 -11.870  0.00  0.00     0.096 A 
HETATM   21  H           1     -31.808  -4.918 -12.327  0.00  0.00     0.165 HD
HETATM   22  C           1     -33.785  -7.927 -10.072  0.00  0.00     0.002 A 
HETATM   23  C           1     -35.001  -7.437  -9.601  0.00  0.00     0.001 A 
ENDBRANCH  13  14
ENDBRANCH   1  13
BRANCH   1  24
HETATM   24  N           1     -35.763  -0.723  -9.998  0.00  0.00    -0.066 N 
HETATM   25  H           1     -35.759   0.278 -10.299  0.00  0.00     0.275 HD
HETATM   26  H           1     -35.111  -0.847  -9.190  0.00  0.00     0.275 HD
HETATM   27  H           1     -36.730  -0.995  -9.708  0.00  0.00     0.275 HD
ENDBRANCH   1  24
TORSDOF 7
ENDMDL
MODEL 8
REMARK VINA RESULT:      -7.1      3.609      7.963
REMARK  7 active torsions:
REMARK  status: ('A' for Active; 'I' for Inactive)
REMARK       I    between atoms: C_6  and  N_11 
REMARK    1  A    between atoms: C_6  and  C_7 
REMARK    2  A    between atoms: C_7  and  C_20 
REMARK    3  A    between atoms: C_7  and  N_24 
REMARK    4  A    between atoms: N_11  and  C_21 
REMARK    5  A    between atoms: C_14  and  C_21 
REMARK    6  A    between atoms: C_15  and  C_21 
REMARK    7  A    between atoms: C_18  and  C_20 
ROOT
HETATM    1  C           1     -20.327  -7.593  -5.093  0.00  0.00     0.278 C 
ENDROOT
BRANCH   1   2
HETATM    2  C           1     -20.302  -8.205  -3.714  0.00  0.00     0.249 C 
HETATM    3  O           1     -19.269  -8.642  -3.266  0.00  0.00    -0.271 OA
HETATM    4  N           1     -21.450  -8.264  -2.970  0.00  0.00    -0.344 N 
HETATM    5  H           1     -22.316  -7.898  -3.346  0.00  0.00     0.163 HD
BRANCH   4   6
HETATM    6  C           1     -21.427  -8.852  -1.645  0.00  0.00     0.189 C 
BRANCH   6   7
HETATM    7  C           1     -22.322  -8.043  -0.715  0.00  0.00     0.010 C 
HETATM    8  C           1     -22.309  -6.581  -1.142  0.00  0.00     0.012 C 
HETATM    9  C           1     -21.805  -8.159   0.713  0.00  0.00     0.012 C 
ENDBRANCH   6   7
BRANCH   6  10
HETATM   10  C           1     -21.930 -10.272  -1.716  0.00  0.00     0.197 C 
HETATM   11  O           1     -21.130 -11.210  -1.926  0.00  0.00    -0.646 OA
HETATM   12  O           1     -23.148 -10.512  -1.566  0.00  0.00    -0.646 OA
ENDBRANCH   6  10
ENDBRANCH   4   6
ENDBRANCH   1   2
BRANCH   1  13
HETATM   13  C           1     -20.824  -6.155  -5.002  0.00  0.00     0.083 C 
BRANCH  13  14
HETATM   14  C           1     -20.535  -5.445  -6.287  0.00  0.00    -0.028 A 
HETATM   15  C           1     -21.499  -4.889  -7.173  0.00  0.00    -0.002 A 
HETATM   16  C           1     -20.800  -4.326  -8.241  0.00  0.00     0.042 A 
HETATM   17  C           1     -22.906  -4.814  -7.168  0.00  0.00     0.014 A 
HETATM   18  N           1     -19.461  -4.536  -8.003  0.00  0.00    -0.365 N 
HETATM   19  C           1     -21.440  -3.686  -9.309  0.00  0.00     0.030 A 
HETATM   20  C           1     -19.289  -5.212  -6.824  0.00  0.00     0.096 A 
HETATM   21  H           1     -18.683  -4.223  -8.634  0.00  0.00     0.165 HD
HETATM   22  C           1     -22.837  -3.622  -9.281  0.00  0.00     0.002 A 
HETATM   23  C           1     -23.561  -4.177  -8.228  0.00  0.00     0.001 A 
ENDBRANCH  13  14
ENDBRANCH   1  13
BRANCH   1  24
HETATM   24  N           1     -21.247  -8.384  -5.974  0.00  0.00    -0.066 N 
HETATM   25  H           1     -21.179  -8.031  -6.955  0.00  0.00     0.275 HD
HETATM   26  H           1     -22.229  -8.281  -5.632  0.00  0.00     0.275 HD
HETATM   27  H           1     -20.974  -9.392  -5.947  0.00  0.00     0.275 HD
ENDBRANCH   1  24
TORSDOF 7
ENDMDL
MODEL 9
REMARK VINA RESULT:      -7.0      4.315      7.938
REMARK  7 active torsions:
REMARK  status: ('A' for Active; 'I' for Inactive)
REMARK       I    between atoms: C_6  and  N_11 
REMARK    1  A    between atoms: C_6  and  C_7 
REMARK    2  A    between atoms: C_7  and  C_20 
REMARK    3  A    between atoms: C_7  and  N_24 
REMARK    4  A    between atoms: N_11  and  C_21 
REMARK    5  A    between atoms: C_14  and  C_21 
REMARK    6  A    between atoms: C_15  and  C_21 
REMARK    7  A    between atoms: C_18  and  C_20 
ROOT
HETATM    1  C           1     -19.750  -8.380  -4.250  0.00  0.00     0.278 C 
ENDROOT
BRANCH   1   2
HETATM    2  C           1     -20.128  -8.909  -2.888  0.00  0.00     0.249 C 
HETATM    3  O           1     -19.301  -9.465  -2.205  0.00  0.00    -0.271 OA
HETATM    4  N           1     -21.408  -8.760  -2.427  0.00  0.00    -0.344 N 
HETATM    5  H           1     -22.102  -8.295  -2.999  0.00  0.00     0.163 HD
BRANCH   4   6
HETATM    6  C           1     -21.772  -9.268  -1.118  0.00  0.00     0.189 C 
BRANCH   6   7
HETATM    7  C           1     -22.462  -8.169  -0.320  0.00  0.00     0.010 C 
HETATM    8  C           1     -22.334  -6.845  -1.063  0.00  0.00     0.012 C 
HETATM    9  C           1     -21.806  -8.048   1.048  0.00  0.00     0.012 C 
ENDBRANCH   6   7
BRANCH   6  10
HETATM   10  C           1     -22.710 -10.439  -1.277  0.00  0.00     0.197 C 
HETATM   11  O           1     -22.443 -11.349  -2.090  0.00  0.00    -0.646 OA
HETATM   12  O           1     -23.755 -10.498  -0.594  0.00  0.00    -0.646 OA
ENDBRANCH   6  10
ENDBRANCH   4   6
ENDBRANCH   1   2
BRANCH   1  13
HETATM   13  C           1     -20.928  -8.541  -5.203  0.00  0.00     0.083 C 
BRANCH  13  14
HETATM   14  C           1     -21.491  -7.194  -5.532  0.00  0.00    -0.028 A 
HETATM   15  C           1     -20.870  -6.199  -6.337  0.00  0.00    -0.002 A 
HETATM   16  C           1     -21.736  -5.107  -6.382  0.00  0.00     0.042 A 
HETATM   17  C           1     -19.649  -6.125  -7.034  0.00  0.00     0.014 A 
HETATM   18  N           1     -22.841  -5.435  -5.628  0.00  0.00    -0.365 N 
HETATM   19  C           1     -21.441  -3.937  -7.093  0.00  0.00     0.030 A 
HETATM   20  C           1     -22.703  -6.695  -5.109  0.00  0.00     0.096 A 
HETATM   21  H           1     -23.669  -4.810  -5.473  0.00  0.00     0.165 HD
HETATM   22  C           1     -20.223  -3.887  -7.778  0.00  0.00     0.002 A 
HETATM   23  C           1     -19.338  -4.963  -7.750  0.00  0.00     0.001 A 
ENDBRANCH  13  14
ENDBRANCH   1  13
BRANCH   1  24
HETATM   24  N           1     -18.575  -9.148  -4.775  0.00  0.00    -0.066 N 
HETATM   25  H           1     -17.691  -8.654  -4.517  0.00  0.00     0.275 HD
HETATM   26  H           1     -18.643  -9.221  -5.815  0.00  0.00     0.275 HD
HETATM   27  H           1     -18.571 -10.107  -4.360  0.00  0.00     0.275 HD
ENDBRANCH   1  24
TORSDOF 7
ENDMDL
