MODEL 1
REMARK VINA RESULT:      -7.2      0.000      0.000
REMARK  6 active torsions:
REMARK  status: ('A' for Active; 'I' for Inactive)
REMARK    1  A    between atoms: C_2  and  C_4 
REMARK    2  A    between atoms: C_4  and  C_22 
REMARK    3  A    between atoms: C_4  and  N_12 
REMARK    4  A    between atoms: N_5  and  C_8 
REMARK    5  A    between atoms: C_8  and  C_9 
REMARK       I    between atoms: C_9  and  N_12 
REMARK    6  A    between atoms: C_21  and  C_22 
ROOT
HETATM    1  C           1     -21.540  -5.126  -7.432  0.00  0.00     0.190 C 
ENDROOT
BRANCH   1   2
HETATM    2  C           1     -20.066  -5.428  -7.318  0.00  0.00     0.197 C 
HETATM    3  O           1     -19.661  -6.606  -7.412  0.00  0.00    -0.646 OA
HETATM    4  O           1     -19.251  -4.499  -7.128  0.00  0.00    -0.646 OA
ENDBRANCH   1   2
BRANCH   1   5
HETATM    5  C           1     -21.731  -3.737  -8.027  0.00  0.00     0.077 C 
BRANCH   5   6
HETATM    6  C           1     -22.891  -3.754  -8.974  0.00  0.00    -0.028 A 
HETATM    7  C           1     -24.203  -4.012  -8.646  0.00  0.00     0.096 A 
HETATM    8  N           1     -24.945  -3.930  -9.794  0.00  0.00    -0.365 N 
HETATM    9  H           1     -25.982  -4.081  -9.851  0.00  0.00     0.165 HD
HETATM   10  C           1     -24.135  -3.621 -10.864  0.00  0.00     0.042 A 
HETATM   11  C           1     -24.452  -3.437 -12.215  0.00  0.00     0.030 A 
HETATM   12  C           1     -22.834  -3.504 -10.372  0.00  0.00    -0.002 A 
HETATM   13  C           1     -23.404  -3.125 -13.087  0.00  0.00     0.002 A 
HETATM   14  C           1     -22.096  -3.002 -12.625  0.00  0.00     0.001 A 
HETATM   15  C           1     -21.797  -3.189 -11.271  0.00  0.00     0.014 A 
ENDBRANCH   5   6
ENDBRANCH   1   5
BRANCH   1  16
HETATM   16  N           1     -22.146  -5.175  -6.116  0.00  0.00    -0.345 N 
HETATM   17  H           1     -22.955  -4.604  -5.909  0.00  0.00     0.163 HD
HETATM   18  C           1     -21.623  -5.995  -5.151  0.00  0.00     0.243 C 
HETATM   19  O           1     -20.765  -5.582  -4.408  0.00  0.00    -0.272 OA
BRANCH  18  20
HETATM   20  C           1     -22.120  -7.413  -5.017  0.00  0.00     0.332 C 
BRANCH  20  21
HETATM   21  N           1     -21.105  -8.356  -5.593  0.00  0.00    -0.071 N 
HETATM   22  H           1     -21.502  -8.819  -6.442  0.00  0.00     0.274 HD
HETATM   23  H           1     -20.247  -7.822  -5.859  0.00  0.00     0.274 HD
HETATM   24  H           1     -20.860  -9.081  -4.882  0.00  0.00     0.274 HD
ENDBRANCH  20  21
ENDBRANCH  18  20
ENDBRANCH   1  16
TORSDOF 6
ENDMDL
MODEL 2
REMARK VINA RESULT:      -7.2      3.391      6.886
REMARK  6 active torsions:
REMARK  status: ('A' for Active; 'I' for Inactive)
REMARK    1  A    between atoms: C_2  and  C_4 
REMARK    2  A    between atoms: C_4  and  C_22 
REMARK    3  A    between atoms: C_4  and  N_12 
REMARK    4  A    between atoms: N_5  and  C_8 
REMARK    5  A    between atoms: C_8  and  C_9 
REMARK       I    between atoms: C_9  and  N_12 
REMARK    6  A    between atoms: C_21  and  C_22 
ROOT
HETATM    1  C           1     -22.840  -3.696 -10.974  0.00  0.00     0.190 C 
ENDROOT
BRANCH   1   2
HETATM    2  C           1     -23.869  -4.799 -10.955  0.00  0.00     0.197 C 
HETATM    3  O           1     -24.798  -4.772 -10.120  0.00  0.00    -0.646 OA
HETATM    4  O           1     -23.791  -5.740 -11.774  0.00  0.00    -0.646 OA
ENDBRANCH   1   2
BRANCH   1   5
HETATM    5  C           1     -22.527  -3.265  -9.547  0.00  0.00     0.077 C 
BRANCH   5   6
HETATM    6  C           1     -21.429  -4.122  -8.996  0.00  0.00    -0.028 A 
HETATM    7  C           1     -20.204  -4.346  -9.582  0.00  0.00     0.096 A 
HETATM    8  N           1     -19.495  -5.182  -8.760  0.00  0.00    -0.365 N 
HETATM    9  H           1     -18.522  -5.529  -8.951  0.00  0.00     0.165 HD
HETATM   10  C           1     -20.241  -5.504  -7.649  0.00  0.00     0.042 A 
HETATM   11  C           1     -19.928  -6.318  -6.554  0.00  0.00     0.030 A 
HETATM   12  C           1     -21.466  -4.847  -7.774  0.00  0.00    -0.002 A 
HETATM   13  C           1     -20.900  -6.462  -5.558  0.00  0.00     0.002 A 
HETATM   14  C           1     -22.131  -5.818  -5.656  0.00  0.00     0.001 A 
HETATM   15  C           1     -22.427  -5.008  -6.757  0.00  0.00     0.014 A 
ENDBRANCH   5   6
ENDBRANCH   1   5
BRANCH   1  16
HETATM   16  N           1     -23.359  -2.564 -11.717  0.00  0.00    -0.345 N 
HETATM   17  H           1     -23.316  -1.635 -11.320  0.00  0.00     0.163 HD
HETATM   18  C           1     -23.909  -2.753 -12.957  0.00  0.00     0.243 C 
HETATM   19  O           1     -25.090  -2.978 -13.066  0.00  0.00    -0.272 OA
BRANCH  18  20
HETATM   20  C           1     -23.038  -2.677 -14.187  0.00  0.00     0.332 C 
BRANCH  20  21
HETATM   21  N           1     -23.529  -1.576 -15.081  0.00  0.00    -0.071 N 
HETATM   22  H           1     -22.841  -1.420 -15.852  0.00  0.00     0.274 HD
HETATM   23  H           1     -24.453  -1.846 -15.488  0.00  0.00     0.274 HD
HETATM   24  H           1     -23.635  -0.698 -14.525  0.00  0.00     0.274 HD
ENDBRANCH  20  21
ENDBRANCH  18  20
ENDBRANCH   1  16
TORSDOF 6
ENDMDL
MODEL 3
REMARK VINA RESULT:      -6.9      1.392      2.063
REMARK  6 active torsions:
REMARK  status: ('A' for Active; 'I' for Inactive)
REMARK    1  A    between atoms: C_2  and  C_4 
REMARK    2  A    between atoms: C_4  and  C_22 
REMARK    3  A    between atoms: C_4  and  N_12 
REMARK    4  A    between atoms: N_5  and  C_8 
REMARK    5  A    between atoms: C_8  and  C_9 
REMARK       I    between atoms: C_9  and  N_12 
REMARK    6  A    between atoms: C_21  and  C_22 
ROOT
HETATM    1  C           1     -21.548  -5.495  -6.906  0.00  0.00     0.190 C 
ENDROOT
BRANCH   1   2
HETATM    2  C           1     -20.094  -5.640  -6.530  0.00  0.00     0.197 C 
HETATM    3  O           1     -19.489  -4.686  -5.996  0.00  0.00    -0.646 OA
HETATM    4  O           1     -19.495  -6.714  -6.755  0.00  0.00    -0.646 OA
ENDBRANCH   1   2
BRANCH   1   5
HETATM    5  C           1     -21.809  -4.078  -7.397  0.00  0.00     0.077 C 
BRANCH   5   6
HETATM    6  C           1     -21.524  -3.997  -8.865  0.00  0.00    -0.028 A 
HETATM    7  C           1     -20.295  -4.162  -9.463  0.00  0.00     0.096 A 
HETATM    8  N           1     -20.463  -4.011 -10.814  0.00  0.00    -0.365 N 
HETATM    9  H           1     -19.696  -4.083 -11.527  0.00  0.00     0.165 HD
HETATM   10  C           1     -21.784  -3.751 -11.104  0.00  0.00     0.042 A 
HETATM   11  C           1     -22.414  -3.529 -12.333  0.00  0.00     0.030 A 
HETATM   12  C           1     -22.474  -3.737  -9.890  0.00  0.00    -0.002 A 
HETATM   13  C           1     -23.792  -3.286 -12.320  0.00  0.00     0.002 A 
HETATM   14  C           1     -24.506  -3.266 -11.124  0.00  0.00     0.001 A 
HETATM   15  C           1     -23.861  -3.490  -9.903  0.00  0.00     0.014 A 
ENDBRANCH   5   6
ENDBRANCH   1   5
BRANCH   1  16
HETATM   16  N           1     -22.376  -5.764  -5.746  0.00  0.00    -0.345 N 
HETATM   17  H           1     -23.348  -5.486  -5.742  0.00  0.00     0.163 HD
HETATM   18  C           1     -21.840  -6.394  -4.654  0.00  0.00     0.243 C 
HETATM   19  O           1     -21.338  -5.745  -3.768  0.00  0.00    -0.272 OA
BRANCH  18  20
HETATM   20  C           1     -21.879  -7.900  -4.558  0.00  0.00     0.332 C 
BRANCH  20  21
HETATM   21  N           1     -20.484  -8.426  -4.390  0.00  0.00    -0.071 N 
HETATM   22  H           1     -20.509  -9.470  -4.343  0.00  0.00     0.274 HD
HETATM   23  H           1     -19.900  -8.129  -5.204  0.00  0.00     0.274 HD
HETATM   24  H           1     -20.074  -8.047  -3.507  0.00  0.00     0.274 HD
ENDBRANCH  20  21
ENDBRANCH  18  20
ENDBRANCH   1  16
TORSDOF 6
ENDMDL
MODEL 4
REMARK VINA RESULT:      -6.8      3.679      8.086
REMARK  6 active torsions:
REMARK  status: ('A' for Active; 'I' for Inactive)
REMARK    1  A    between atoms: C_2  and  C_4 
REMARK    2  A    between atoms: C_4  and  C_22 
REMARK    3  A    between atoms: C_4  and  N_12 
REMARK    4  A    between atoms: N_5  and  C_8 
REMARK    5  A    between atoms: C_8  and  C_9 
REMARK       I    between atoms: C_9  and  N_12 
REMARK    6  A    between atoms: C_21  and  C_22 
ROOT
HETATM    1  C           1     -20.066  -7.581  -5.199  0.00  0.00     0.190 C 
ENDROOT
BRANCH   1   2
HETATM    2  C           1     -19.030  -8.677  -5.228  0.00  0.00     0.197 C 
HETATM    3  O           1     -18.669  -9.224  -4.165  0.00  0.00    -0.646 OA
HETATM    4  O           1     -18.531  -9.036  -6.318  0.00  0.00    -0.646 OA
ENDBRANCH   1   2
BRANCH   1   5
HETATM    5  C           1     -21.384  -8.139  -4.678  0.00  0.00     0.077 C 
BRANCH   5   6
HETATM    6  C           1     -21.718  -7.493  -3.369  0.00  0.00    -0.028 A 
HETATM    7  C           1     -22.060  -6.174  -3.179  0.00  0.00     0.096 A 
HETATM    8  N           1     -22.288  -5.990  -1.841  0.00  0.00    -0.365 N 
HETATM    9  H           1     -22.566  -5.079  -1.399  0.00  0.00     0.165 HD
HETATM   10  C           1     -22.098  -7.170  -1.158  0.00  0.00     0.042 A 
HETATM   11  C           1     -22.217  -7.455   0.207  0.00  0.00     0.030 A 
HETATM   12  C           1     -21.738  -8.134  -2.100  0.00  0.00    -0.002 A 
HETATM   13  C           1     -21.959  -8.766   0.619  0.00  0.00     0.002 A 
HETATM   14  C           1     -21.597  -9.750  -0.299  0.00  0.00     0.001 A 
HETATM   15  C           1     -21.483  -9.448  -1.660  0.00  0.00     0.014 A 
ENDBRANCH   5   6
ENDBRANCH   1   5
BRANCH   1  16
HETATM   16  N           1     -20.258  -7.062  -6.539  0.00  0.00    -0.345 N 
HETATM   17  H           1     -20.283  -7.694  -7.328  0.00  0.00     0.163 HD
HETATM   18  C           1     -20.405  -5.714  -6.737  0.00  0.00     0.243 C 
HETATM   19  O           1     -19.434  -5.024  -6.936  0.00  0.00    -0.272 OA
BRANCH  18  20
HETATM   20  C           1     -21.780  -5.094  -6.709  0.00  0.00     0.332 C 
BRANCH  20  21
HETATM   21  N           1     -21.704  -3.685  -7.218  0.00  0.00    -0.071 N 
HETATM   22  H           1     -20.706  -3.433  -7.401  0.00  0.00     0.274 HD
HETATM   23  H           1     -22.251  -3.606  -8.105  0.00  0.00     0.274 HD
HETATM   24  H           1     -22.102  -3.035  -6.503  0.00  0.00     0.274 HD
ENDBRANCH  20  21
ENDBRANCH  18  20
ENDBRANCH   1  16
TORSDOF 6
ENDMDL
MODEL 5
REMARK VINA RESULT:      -6.8      2.473      7.102
REMARK  6 active torsions:
REMARK  status: ('A' for Active; 'I' for Inactive)
REMARK    1  A    between atoms: C_2  and  C_4 
REMARK    2  A    between atoms: C_4  and  C_22 
REMARK    3  A    between atoms: C_4  and  N_12 
REMARK    4  A    between atoms: N_5  and  C_8 
REMARK    5  A    between atoms: C_8  and  C_9 
REMARK       I    between atoms: C_9  and  N_12 
REMARK    6  A    between atoms: C_21  and  C_22 
ROOT
HETATM    1  C           1     -20.428  -5.252  -6.272  0.00  0.00     0.190 C 
ENDROOT
BRANCH   1   2
HETATM    2  C           1     -19.513  -5.137  -7.466  0.00  0.00     0.197 C 
HETATM    3  O           1     -19.720  -5.834  -8.482  0.00  0.00    -0.646 OA
HETATM    4  O           1     -18.547  -4.343  -7.439  0.00  0.00    -0.646 OA
ENDBRANCH   1   2
BRANCH   1   5
HETATM    5  C           1     -21.099  -6.619  -6.274  0.00  0.00     0.077 C 
BRANCH   5   6
HETATM    6  C           1     -20.654  -7.396  -5.073  0.00  0.00    -0.028 A 
HETATM    7  C           1     -19.722  -8.409  -5.063  0.00  0.00     0.096 A 
HETATM    8  N           1     -19.603  -8.854  -3.773  0.00  0.00    -0.365 N 
HETATM    9  H           1     -18.963  -9.625  -3.460  0.00  0.00     0.165 HD
HETATM   10  C           1     -20.444  -8.146  -2.944  0.00  0.00     0.042 A 
HETATM   11  C           1     -20.658  -8.252  -1.565  0.00  0.00     0.030 A 
HETATM   12  C           1     -21.119  -7.219  -3.741  0.00  0.00    -0.002 A 
HETATM   13  C           1     -21.589  -7.384  -0.986  0.00  0.00     0.002 A 
HETATM   14  C           1     -22.277  -6.450  -1.757  0.00  0.00     0.001 A 
HETATM   15  C           1     -22.052  -6.356  -3.135  0.00  0.00     0.014 A 
ENDBRANCH   5   6
ENDBRANCH   1   5
BRANCH   1  16
HETATM   16  N           1     -21.441  -4.217  -6.338  0.00  0.00    -0.345 N 
HETATM   17  H           1     -21.268  -3.311  -5.923  0.00  0.00     0.163 HD
HETATM   18  C           1     -22.635  -4.466  -6.963  0.00  0.00     0.243 C 
HETATM   19  O           1     -23.564  -4.912  -6.334  0.00  0.00    -0.272 OA
BRANCH  18  20
HETATM   20  C           1     -22.788  -4.182  -8.437  0.00  0.00     0.332 C 
BRANCH  20  21
HETATM   21  N           1     -24.175  -3.678  -8.708  0.00  0.00    -0.071 N 
HETATM   22  H           1     -24.597  -3.323  -7.820  0.00  0.00     0.274 HD
HETATM   23  H           1     -24.132  -2.901  -9.406  0.00  0.00     0.274 HD
HETATM   24  H           1     -24.760  -4.456  -9.086  0.00  0.00     0.274 HD
ENDBRANCH  20  21
ENDBRANCH  18  20
ENDBRANCH   1  16
TORSDOF 6
ENDMDL
MODEL 6
REMARK VINA RESULT:      -6.6      3.146      4.653
REMARK  6 active torsions:
REMARK  status: ('A' for Active; 'I' for Inactive)
REMARK    1  A    between atoms: C_2  and  C_4 
REMARK    2  A    between atoms: C_4  and  C_22 
REMARK    3  A    between atoms: C_4  and  N_12 
REMARK    4  A    between atoms: N_5  and  C_8 
REMARK    5  A    between atoms: C_8  and  C_9 
REMARK       I    between atoms: C_9  and  N_12 
REMARK    6  A    between atoms: C_21  and  C_22 
ROOT
HETATM    1  C           1     -21.448  -7.339  -3.889  0.00  0.00     0.190 C 
ENDROOT
BRANCH   1   2
HETATM    2  C           1     -21.580  -6.825  -2.477  0.00  0.00     0.197 C 
HETATM    3  O           1     -22.360  -5.882  -2.225  0.00  0.00    -0.646 OA
HETATM    4  O           1     -20.908  -7.343  -1.558  0.00  0.00    -0.646 OA
ENDBRANCH   1   2
BRANCH   1   5
HETATM    5  C           1     -22.184  -6.406  -4.842  0.00  0.00     0.077 C 
BRANCH   5   6
HETATM    6  C           1     -21.310  -6.104  -6.020  0.00  0.00    -0.028 A 
HETATM    7  C           1     -20.035  -6.578  -6.226  0.00  0.00     0.096 A 
HETATM    8  N           1     -19.587  -6.069  -7.417  0.00  0.00    -0.365 N 
HETATM    9  H           1     -18.643  -6.259  -7.835  0.00  0.00     0.165 HD
HETATM   10  C           1     -20.554  -5.271  -7.988  0.00  0.00     0.042 A 
HETATM   11  C           1     -20.541  -4.553  -9.189  0.00  0.00     0.030 A 
HETATM   12  C           1     -21.651  -5.277  -7.125  0.00  0.00    -0.002 A 
HETATM   13  C           1     -21.686  -3.819  -9.515  0.00  0.00     0.002 A 
HETATM   14  C           1     -22.796  -3.807  -8.674  0.00  0.00     0.001 A 
HETATM   15  C           1     -22.793  -4.531  -7.477  0.00  0.00     0.014 A 
ENDBRANCH   5   6
ENDBRANCH   1   5
BRANCH   1  16
HETATM   16  N           1     -22.023  -8.668  -3.975  0.00  0.00    -0.345 N 
HETATM   17  H           1     -23.025  -8.790  -3.925  0.00  0.00     0.163 HD
HETATM   18  C           1     -21.207  -9.758  -4.123  0.00  0.00     0.243 C 
HETATM   19  O           1     -20.786 -10.333  -3.149  0.00  0.00    -0.272 OA
BRANCH  18  20
HETATM   20  C           1     -20.837 -10.241  -5.504  0.00  0.00     0.332 C 
BRANCH  20  21
HETATM   21  N           1     -19.373 -10.016  -5.737  0.00  0.00    -0.071 N 
HETATM   22  H           1     -18.826 -10.421  -4.944  0.00  0.00     0.274 HD
HETATM   23  H           1     -19.087 -10.481  -6.629  0.00  0.00     0.274 HD
HETATM   24  H           1     -19.185  -8.990  -5.803  0.00  0.00     0.274 HD
ENDBRANCH  20  21
ENDBRANCH  18  20
ENDBRANCH   1  16
TORSDOF 6
ENDMDL
MODEL 7
REMARK VINA RESULT:      -6.6      4.929      8.211
REMARK  6 active torsions:
REMARK  status: ('A' for Active; 'I' for Inactive)
REMARK    1  A    between atoms: C_2  and  C_4 
REMARK    2  A    between atoms: C_4  and  C_22 
REMARK    3  A    between atoms: C_4  and  N_12 
REMARK    4  A    between atoms: N_5  and  C_8 
REMARK    5  A    between atoms: C_8  and  C_9 
REMARK       I    between atoms: C_9  and  N_12 
REMARK    6  A    between atoms: C_21  and  C_22 
ROOT
HETATM    1  C           1     -21.211  -7.902  -5.214  0.00  0.00     0.190 C 
ENDROOT
BRANCH   1   2
HETATM    2  C           1     -20.837  -6.766  -6.134  0.00  0.00     0.197 C 
HETATM    3  O           1     -19.791  -6.831  -6.814  0.00  0.00    -0.646 OA
HETATM    4  O           1     -21.573  -5.758  -6.213  0.00  0.00    -0.646 OA
ENDBRANCH   1   2
BRANCH   1   5
HETATM    5  C           1     -20.349  -7.849  -3.960  0.00  0.00     0.077 C 
BRANCH   5   6
HETATM    6  C           1     -21.163  -7.333  -2.815  0.00  0.00    -0.028 A 
HETATM    7  C           1     -21.511  -6.019  -2.593  0.00  0.00     0.096 A 
HETATM    8  N           1     -22.254  -5.972  -1.444  0.00  0.00    -0.365 N 
HETATM    9  H           1     -22.659  -5.098  -1.025  0.00  0.00     0.165 HD
HETATM   10  C           1     -22.396  -7.236  -0.915  0.00  0.00     0.042 A 
HETATM   11  C           1     -23.067  -7.665   0.236  0.00  0.00     0.030 A 
HETATM   12  C           1     -21.716  -8.112  -1.762  0.00  0.00    -0.002 A 
HETATM   13  C           1     -23.040  -9.033   0.527  0.00  0.00     0.002 A 
HETATM   14  C           1     -22.370  -9.931  -0.300  0.00  0.00     0.001 A 
HETATM   15  C           1     -21.704  -9.485  -1.447  0.00  0.00     0.014 A 
ENDBRANCH   5   6
ENDBRANCH   1   5
BRANCH   1  16
HETATM   16  N           1     -20.996  -9.164  -5.895  0.00  0.00    -0.345 N 
HETATM   17  H           1     -21.268  -9.270  -6.863  0.00  0.00     0.163 HD
HETATM   18  C           1     -20.425 -10.214  -5.225  0.00  0.00     0.243 C 
HETATM   19  O           1     -21.120 -11.001  -4.630  0.00  0.00    -0.272 OA
BRANCH  18  20
HETATM   20  C           1     -18.926 -10.388  -5.234  0.00  0.00     0.332 C 
BRANCH  20  21
HETATM   21  N           1     -18.339  -9.618  -6.381  0.00  0.00    -0.071 N 
HETATM   22  H           1     -18.027 -10.283  -7.124  0.00  0.00     0.274 HD
HETATM   23  H           1     -19.063  -8.974  -6.773  0.00  0.00     0.274 HD
HETATM   24  H           1     -17.522  -9.062  -6.044  0.00  0.00     0.274 HD
ENDBRANCH  20  21
ENDBRANCH  18  20
ENDBRANCH   1  16
TORSDOF 6
ENDMDL
MODEL 8
REMARK VINA RESULT:      -6.5      4.799      8.753
REMARK  6 active torsions:
REMARK  status: ('A' for Active; 'I' for Inactive)
REMARK    1  A    between atoms: C_2  and  C_4 
REMARK    2  A    between atoms: C_4  and  C_22 
REMARK    3  A    between atoms: C_4  and  N_12 
REMARK    4  A    between atoms: N_5  and  C_8 
REMARK    5  A    between atoms: C_8  and  C_9 
REMARK       I    between atoms: C_9  and  N_12 
REMARK    6  A    between atoms: C_21  and  C_22 
ROOT
HETATM    1  C           1     -19.752  -8.732  -4.654  0.00  0.00     0.190 C 
ENDROOT
BRANCH   1   2
HETATM    2  C           1     -18.494  -9.318  -5.246  0.00  0.00     0.197 C 
HETATM    3  O           1     -18.425  -9.540  -6.474  0.00  0.00    -0.646 OA
HETATM    4  O           1     -17.520  -9.583  -4.507  0.00  0.00    -0.646 OA
ENDBRANCH   1   2
BRANCH   1   5
HETATM    5  C           1     -20.561  -9.834  -3.983  0.00  0.00     0.077 C 
BRANCH   5   6
HETATM    6  C           1     -21.117  -9.328  -2.688  0.00  0.00    -0.028 A 
HETATM    7  C           1     -20.716  -8.192  -2.022  0.00  0.00     0.096 A 
HETATM    8  N           1     -21.472  -8.087  -0.884  0.00  0.00    -0.365 N 
HETATM    9  H           1     -21.387  -7.316  -0.176  0.00  0.00     0.165 HD
HETATM   10  C           1     -22.359  -9.137  -0.801  0.00  0.00     0.042 A 
HETATM   11  C           1     -23.316  -9.438   0.175  0.00  0.00     0.030 A 
HETATM   12  C           1     -22.155  -9.934  -1.928  0.00  0.00    -0.002 A 
HETATM   13  C           1     -24.086 -10.591  -0.010  0.00  0.00     0.002 A 
HETATM   14  C           1     -23.904 -11.406  -1.125  0.00  0.00     0.001 A 
HETATM   15  C           1     -22.943 -11.090  -2.092  0.00  0.00     0.014 A 
ENDBRANCH   5   6
ENDBRANCH   1   5
BRANCH   1  16
HETATM   16  N           1     -20.543  -8.126  -5.707  0.00  0.00    -0.345 N 
HETATM   17  H           1     -21.205  -8.684  -6.229  0.00  0.00     0.163 HD
HETATM   18  C           1     -20.394  -6.795  -5.995  0.00  0.00     0.243 C 
HETATM   19  O           1     -19.584  -6.443  -6.818  0.00  0.00    -0.272 OA
BRANCH  18  20
HETATM   20  C           1     -21.244  -5.770  -5.286  0.00  0.00     0.332 C 
BRANCH  20  21
HETATM   21  N           1     -22.548  -6.393  -4.883  0.00  0.00    -0.071 N 
HETATM   22  H           1     -22.887  -5.952  -3.998  0.00  0.00     0.274 HD
HETATM   23  H           1     -23.253  -6.241  -5.640  0.00  0.00     0.274 HD
HETATM   24  H           1     -22.412  -7.417  -4.732  0.00  0.00     0.274 HD
ENDBRANCH  20  21
ENDBRANCH  18  20
ENDBRANCH   1  16
TORSDOF 6
ENDMDL
MODEL 9
REMARK VINA RESULT:      -6.5      6.378      9.684
REMARK  6 active torsions:
REMARK  status: ('A' for Active; 'I' for Inactive)
REMARK    1  A    between atoms: C_2  and  C_4 
REMARK    2  A    between atoms: C_4  and  C_22 
REMARK    3  A    between atoms: C_4  and  N_12 
REMARK    4  A    between atoms: N_5  and  C_8 
REMARK    5  A    between atoms: C_8  and  C_9 
REMARK       I    between atoms: C_9  and  N_12 
REMARK    6  A    between atoms: C_21  and  C_22 
ROOT
HETATM    1  C           1     -21.256  -7.836  -2.948  0.00  0.00     0.190 C 
ENDROOT
BRANCH   1   2
HETATM    2  C           1     -21.694  -6.393  -2.998  0.00  0.00     0.197 C 
HETATM    3  O           1     -21.333  -5.663  -3.947  0.00  0.00    -0.646 OA
HETATM    4  O           1     -22.416  -5.926  -2.090  0.00  0.00    -0.646 OA
ENDBRANCH   1   2
BRANCH   1   5
HETATM    5  C           1     -20.550  -8.108  -1.626  0.00  0.00     0.077 C 
BRANCH   5   6
HETATM    6  C           1     -20.652  -9.565  -1.296  0.00  0.00    -0.028 A 
HETATM    7  C           1     -19.650 -10.499  -1.431  0.00  0.00     0.096 A 
HETATM    8  N           1     -20.147 -11.708  -1.022  0.00  0.00    -0.365 N 
HETATM    9  H           1     -19.607 -12.608  -1.015  0.00  0.00     0.165 HD
HETATM   10  C           1     -21.458 -11.574  -0.622  0.00  0.00     0.042 A 
HETATM   11  C           1     -22.357 -12.529  -0.134  0.00  0.00     0.030 A 
HETATM   12  C           1     -21.800 -10.231  -0.785  0.00  0.00    -0.002 A 
HETATM   13  C           1     -23.645 -12.094   0.197  0.00  0.00     0.002 A 
HETATM   14  C           1     -24.014 -10.759   0.045  0.00  0.00     0.001 A 
HETATM   15  C           1     -23.103  -9.818  -0.444  0.00  0.00     0.014 A 
ENDBRANCH   5   6
ENDBRANCH   1   5
BRANCH   1  16
HETATM   16  N           1     -20.347  -8.103  -4.044  0.00  0.00    -0.345 N 
HETATM   17  H           1     -19.404  -7.737  -4.022  0.00  0.00     0.163 HD
HETATM   18  C           1     -20.764  -8.852  -5.113  0.00  0.00     0.243 C 
HETATM   19  O           1     -21.273  -8.313  -6.066  0.00  0.00    -0.272 OA
BRANCH  18  20
HETATM   20  C           1     -20.586 -10.351  -5.099  0.00  0.00     0.332 C 
BRANCH  20  21
HETATM   21  N           1     -21.082 -10.926  -6.393  0.00  0.00    -0.071 N 
HETATM   22  H           1     -21.465 -11.883  -6.225  0.00  0.00     0.274 HD
HETATM   23  H           1     -21.835 -10.313  -6.779  0.00  0.00     0.274 HD
HETATM   24  H           1     -20.292 -10.981  -7.074  0.00  0.00     0.274 HD
ENDBRANCH  20  21
ENDBRANCH  18  20
ENDBRANCH   1  16
TORSDOF 6
ENDMDL
