MODEL 1
REMARK VINA RESULT:      -6.6      0.000      0.000
REMARK  10 active torsions:
REMARK  status: ('A' for Active; 'I' for Inactive)
REMARK       I    between atoms: C_1  and  N_6 
REMARK    1  A    between atoms: C_1  and  C_2 
REMARK    2  A    between atoms: C_2  and  C_26 
REMARK    3  A    between atoms: C_2  and  N_17 
REMARK    4  A    between atoms: N_6  and  C_10 
REMARK    5  A    between atoms: C_7  and  C_16 
REMARK    6  A    between atoms: C_7  and  N_8 
REMARK    7  A    between atoms: C_9  and  C_24 
REMARK    8  A    between atoms: C_9  and  C_10 
REMARK    9  A    between atoms: C_10  and  C_25 
REMARK       I    between atoms: N_13  and  C_24 
REMARK   10  A    between atoms: C_16  and  C_26 
ROOT
HETATM    1  C           1     -34.247  -2.579 -12.190  0.00  0.00     0.249 C 
HETATM    2  H           1     -35.369  -2.044 -13.844  0.00  0.00     0.163 HD
HETATM    3  N           1     -34.927  -1.709 -12.998  0.00  0.00    -0.344 N 
HETATM    4  O           1     -33.718  -2.180 -11.180  0.00  0.00    -0.271 OA
ENDROOT
BRANCH   1   5
HETATM    5  C           1     -34.157  -4.039 -12.561  0.00  0.00     0.274 C 
BRANCH   5   6
HETATM    6  C           1     -33.319  -4.776 -11.525  0.00  0.00     0.044 C 
BRANCH   6   7
HETATM    7  C           1     -34.233  -5.377 -10.464  0.00  0.00     0.030 C 
BRANCH   7   8
HETATM    8  C           1     -34.321  -6.884 -10.664  0.00  0.00     0.230 C 
BRANCH   8   9
HETATM    9  N           1     -35.089  -7.495  -9.530  0.00  0.00    -0.079 N 
HETATM   10  H           1     -35.720  -6.777  -9.109  0.00  0.00     0.274 HD
HETATM   11  H           1     -35.659  -8.296  -9.886  0.00  0.00     0.274 HD
HETATM   12  H           1     -34.421  -7.841  -8.804  0.00  0.00     0.274 HD
ENDBRANCH   8   9
ENDBRANCH   7   8
ENDBRANCH   6   7
ENDBRANCH   5   6
BRANCH   5  13
HETATM   13  N           1     -33.514  -4.173 -13.910  0.00  0.00    -0.067 N 
HETATM   14  H           1     -34.236  -4.042 -14.654  0.00  0.00     0.275 HD
HETATM   15  H           1     -33.089  -5.124 -14.000  0.00  0.00     0.275 HD
HETATM   16  H           1     -32.770  -3.448 -14.015  0.00  0.00     0.275 HD
ENDBRANCH   5  13
ENDBRANCH   1   5
BRANCH   3  17
HETATM   17  C           1     -35.013  -0.306 -12.642  0.00  0.00     0.194 C 
BRANCH  17  18
HETATM   18  C           1     -35.044   0.538 -13.909  0.00  0.00     0.138 C 
BRANCH  18  19
HETATM   19  C           1     -35.623  -0.273 -15.041  0.00  0.00     0.217 C 
HETATM   20  N           1     -36.962  -0.204 -15.320  0.00  0.00    -0.370 N 
HETATM   21  H           1     -37.350  -0.748 -16.079  0.00  0.00     0.159 HD
HETATM   22  H           1     -37.563   0.393 -14.766  0.00  0.00     0.159 HD
HETATM   23  O           1     -34.906  -0.985 -15.703  0.00  0.00    -0.274 OA
ENDBRANCH  18  19
ENDBRANCH  17  18
BRANCH  17  24
HETATM   24  C           1     -36.273  -0.066 -11.847  0.00  0.00     0.197 C 
HETATM   25  O           1     -37.372  -0.477 -12.279  0.00  0.00    -0.646 OA
HETATM   26  O           1     -36.218   0.543 -10.757  0.00  0.00    -0.646 OA
ENDBRANCH  17  24
ENDBRANCH   3  17
TORSDOF 10
ENDMDL
MODEL 2
REMARK VINA RESULT:      -6.2     11.866     13.507
REMARK  10 active torsions:
REMARK  status: ('A' for Active; 'I' for Inactive)
REMARK       I    between atoms: C_1  and  N_6 
REMARK    1  A    between atoms: C_1  and  C_2 
REMARK    2  A    between atoms: C_2  and  C_26 
REMARK    3  A    between atoms: C_2  and  N_17 
REMARK    4  A    between atoms: N_6  and  C_10 
REMARK    5  A    between atoms: C_7  and  C_16 
REMARK    6  A    between atoms: C_7  and  N_8 
REMARK    7  A    between atoms: C_9  and  C_24 
REMARK    8  A    between atoms: C_9  and  C_10 
REMARK    9  A    between atoms: C_10  and  C_25 
REMARK       I    between atoms: N_13  and  C_24 
REMARK   10  A    between atoms: C_16  and  C_26 
ROOT
HETATM    1  C           1     -22.288  -4.197  -7.822  0.00  0.00     0.249 C 
HETATM    2  H           1     -24.211  -4.659  -8.431  0.00  0.00     0.163 HD
HETATM    3  N           1     -23.335  -4.231  -8.703  0.00  0.00    -0.344 N 
HETATM    4  O           1     -21.242  -3.687  -8.146  0.00  0.00    -0.271 OA
ENDROOT
BRANCH   1   5
HETATM    5  C           1     -22.439  -4.798  -6.446  0.00  0.00     0.274 C 
BRANCH   5   6
HETATM    6  C           1     -21.604  -6.068  -6.351  0.00  0.00     0.044 C 
BRANCH   6   7
HETATM    7  C           1     -21.944  -6.806  -5.062  0.00  0.00     0.030 C 
BRANCH   7   8
HETATM    8  C           1     -21.302  -6.089  -3.882  0.00  0.00     0.230 C 
BRANCH   8   9
HETATM    9  N           1     -22.268  -6.047  -2.736  0.00  0.00    -0.079 N 
HETATM   10  H           1     -21.937  -6.684  -1.977  0.00  0.00     0.274 HD
HETATM   11  H           1     -22.333  -5.070  -2.368  0.00  0.00     0.274 HD
HETATM   12  H           1     -23.211  -6.357  -3.064  0.00  0.00     0.274 HD
ENDBRANCH   8   9
ENDBRANCH   7   8
ENDBRANCH   6   7
ENDBRANCH   5   6
BRANCH   5  13
HETATM   13  N           1     -23.881  -5.130  -6.203  0.00  0.00    -0.067 N 
HETATM   14  H           1     -23.953  -5.824  -5.424  0.00  0.00     0.275 HD
HETATM   15  H           1     -24.296  -5.537  -7.071  0.00  0.00     0.275 HD
HETATM   16  H           1     -24.401  -4.262  -5.943  0.00  0.00     0.275 HD
ENDBRANCH   5  13
ENDBRANCH   1   5
BRANCH   3  17
HETATM   17  C           1     -23.189  -3.654 -10.025  0.00  0.00     0.194 C 
BRANCH  17  18
HETATM   18  C           1     -22.577  -4.685 -10.964  0.00  0.00     0.138 C 
BRANCH  18  19
HETATM   19  C           1     -21.491  -4.036 -11.786  0.00  0.00     0.217 C 
HETATM   20  N           1     -21.783  -3.520 -13.020  0.00  0.00    -0.370 N 
HETATM   21  H           1     -21.054  -3.085 -13.572  0.00  0.00     0.159 HD
HETATM   22  H           1     -22.727  -3.574 -13.381  0.00  0.00     0.159 HD
HETATM   23  O           1     -20.365  -3.972 -11.356  0.00  0.00    -0.274 OA
ENDBRANCH  18  19
ENDBRANCH  17  18
BRANCH  17  24
HETATM   24  C           1     -24.545  -3.242 -10.545  0.00  0.00     0.197 C 
HETATM   25  O           1     -24.698  -2.993 -11.760  0.00  0.00    -0.646 OA
HETATM   26  O           1     -25.513  -3.149  -9.760  0.00  0.00    -0.646 OA
ENDBRANCH  17  24
ENDBRANCH   3  17
TORSDOF 10
ENDMDL
MODEL 3
REMARK VINA RESULT:      -6.2      1.537      2.838
REMARK  10 active torsions:
REMARK  status: ('A' for Active; 'I' for Inactive)
REMARK       I    between atoms: C_1  and  N_6 
REMARK    1  A    between atoms: C_1  and  C_2 
REMARK    2  A    between atoms: C_2  and  C_26 
REMARK    3  A    between atoms: C_2  and  N_17 
REMARK    4  A    between atoms: N_6  and  C_10 
REMARK    5  A    between atoms: C_7  and  C_16 
REMARK    6  A    between atoms: C_7  and  N_8 
REMARK    7  A    between atoms: C_9  and  C_24 
REMARK    8  A    between atoms: C_9  and  C_10 
REMARK    9  A    between atoms: C_10  and  C_25 
REMARK       I    between atoms: N_13  and  C_24 
REMARK   10  A    between atoms: C_16  and  C_26 
ROOT
HETATM    1  C           1     -34.880  -3.188 -12.033  0.00  0.00     0.249 C 
HETATM    2  H           1     -33.785  -2.229 -13.504  0.00  0.00     0.163 HD
HETATM    3  N           1     -34.637  -2.209 -12.959  0.00  0.00    -0.344 N 
HETATM    4  O           1     -35.897  -3.164 -11.382  0.00  0.00    -0.271 OA
ENDROOT
BRANCH   1   5
HETATM    5  C           1     -33.878  -4.296 -11.826  0.00  0.00     0.274 C 
BRANCH   5   6
HETATM    6  C           1     -34.197  -5.036 -10.534  0.00  0.00     0.044 C 
BRANCH   6   7
HETATM    7  C           1     -33.917  -6.522 -10.715  0.00  0.00     0.030 C 
BRANCH   7   8
HETATM    8  C           1     -34.924  -7.331  -9.910  0.00  0.00     0.230 C 
BRANCH   8   9
HETATM    9  N           1     -34.297  -8.622  -9.475  0.00  0.00    -0.079 N 
HETATM   10  H           1     -34.421  -8.741  -8.444  0.00  0.00     0.274 HD
HETATM   11  H           1     -34.755  -9.419  -9.975  0.00  0.00     0.274 HD
HETATM   12  H           1     -33.277  -8.608  -9.705  0.00  0.00     0.274 HD
ENDBRANCH   8   9
ENDBRANCH   7   8
ENDBRANCH   6   7
ENDBRANCH   5   6
BRANCH   5  13
HETATM   13  N           1     -32.499  -3.713 -11.740  0.00  0.00    -0.067 N 
HETATM   14  H           1     -32.110  -3.593 -12.702  0.00  0.00     0.275 HD
HETATM   15  H           1     -31.883  -4.356 -11.193  0.00  0.00     0.275 HD
HETATM   16  H           1     -32.542  -2.784 -11.264  0.00  0.00     0.275 HD
ENDBRANCH   5  13
ENDBRANCH   1   5
BRANCH   3  17
HETATM   17  C           1     -35.600  -1.144 -13.157  0.00  0.00     0.194 C 
BRANCH  17  18
HETATM   18  C           1     -35.338  -0.029 -12.153  0.00  0.00     0.138 C 
BRANCH  18  19
HETATM   19  C           1     -36.464   0.021 -11.149  0.00  0.00     0.217 C 
HETATM   20  N           1     -36.222  -0.270  -9.834  0.00  0.00    -0.370 N 
HETATM   21  H           1     -36.977  -0.237  -9.161  0.00  0.00     0.159 HD
HETATM   22  H           1     -35.288  -0.518  -9.534  0.00  0.00     0.159 HD
HETATM   23  O           1     -37.579   0.317 -11.507  0.00  0.00    -0.274 OA
ENDBRANCH  18  19
ENDBRANCH  17  18
BRANCH  17  24
HETATM   24  C           1     -35.466  -0.600 -14.559  0.00  0.00     0.197 C 
HETATM   25  O           1     -36.203  -1.036 -15.471  0.00  0.00    -0.646 OA
HETATM   26  O           1     -34.619   0.284 -14.808  0.00  0.00    -0.646 OA
ENDBRANCH  17  24
ENDBRANCH   3  17
TORSDOF 10
ENDMDL
MODEL 4
REMARK VINA RESULT:      -5.8     12.595     15.154
REMARK  10 active torsions:
REMARK  status: ('A' for Active; 'I' for Inactive)
REMARK       I    between atoms: C_1  and  N_6 
REMARK    1  A    between atoms: C_1  and  C_2 
REMARK    2  A    between atoms: C_2  and  C_26 
REMARK    3  A    between atoms: C_2  and  N_17 
REMARK    4  A    between atoms: N_6  and  C_10 
REMARK    5  A    between atoms: C_7  and  C_16 
REMARK    6  A    between atoms: C_7  and  N_8 
REMARK    7  A    between atoms: C_9  and  C_24 
REMARK    8  A    between atoms: C_9  and  C_10 
REMARK    9  A    between atoms: C_10  and  C_25 
REMARK       I    between atoms: N_13  and  C_24 
REMARK   10  A    between atoms: C_16  and  C_26 
ROOT
HETATM    1  C           1     -22.353  -4.164  -8.386  0.00  0.00     0.249 C 
HETATM    2  H           1     -22.736  -5.575  -6.922  0.00  0.00     0.163 HD
HETATM    3  N           1     -22.084  -4.873  -7.247  0.00  0.00    -0.344 N 
HETATM    4  O           1     -21.575  -3.326  -8.775  0.00  0.00    -0.271 OA
ENDROOT
BRANCH   1   5
HETATM    5  C           1     -23.623  -4.429  -9.157  0.00  0.00     0.274 C 
BRANCH   5   6
HETATM    6  C           1     -23.299  -4.561 -10.640  0.00  0.00     0.044 C 
BRANCH   6   7
HETATM    7  C           1     -23.923  -3.398 -11.402  0.00  0.00     0.030 C 
BRANCH   7   8
HETATM    8  C           1     -22.851  -2.698 -12.226  0.00  0.00     0.230 C 
BRANCH   8   9
HETATM    9  N           1     -21.818  -3.696 -12.657  0.00  0.00    -0.079 N 
HETATM   10  H           1     -21.648  -4.378 -11.884  0.00  0.00     0.274 HD
HETATM   11  H           1     -22.158  -4.207 -13.504  0.00  0.00     0.274 HD
HETATM   12  H           1     -20.928  -3.198 -12.885  0.00  0.00     0.274 HD
ENDBRANCH   8   9
ENDBRANCH   7   8
ENDBRANCH   6   7
ENDBRANCH   5   6
BRANCH   5  13
HETATM   13  N           1     -24.578  -3.291  -8.954  0.00  0.00    -0.067 N 
HETATM   14  H           1     -25.480  -3.502  -9.437  0.00  0.00     0.275 HD
HETATM   15  H           1     -24.167  -2.416  -9.351  0.00  0.00     0.275 HD
HETATM   16  H           1     -24.753  -3.160  -7.932  0.00  0.00     0.275 HD
ENDBRANCH   5  13
ENDBRANCH   1   5
BRANCH   3  17
HETATM   17  C           1     -20.864  -4.618  -6.506  0.00  0.00     0.194 C 
BRANCH  17  18
HETATM   18  C           1     -20.961  -5.267  -5.132  0.00  0.00     0.138 C 
BRANCH  18  19
HETATM   19  C           1     -21.972  -6.386  -5.173  0.00  0.00     0.217 C 
HETATM   20  N           1     -21.565  -7.670  -5.417  0.00  0.00    -0.370 N 
HETATM   21  H           1     -22.243  -8.420  -5.444  0.00  0.00     0.159 HD
HETATM   22  H           1     -20.584  -7.869  -5.570  0.00  0.00     0.159 HD
HETATM   23  O           1     -23.142  -6.148  -4.989  0.00  0.00    -0.274 OA
ENDBRANCH  18  19
ENDBRANCH  17  18
BRANCH  17  24
HETATM   24  C           1     -19.690  -5.199  -7.256  0.00  0.00     0.197 C 
HETATM   25  O           1     -19.709  -6.396  -7.616  0.00  0.00    -0.646 OA
HETATM   26  O           1     -18.699  -4.483  -7.517  0.00  0.00    -0.646 OA
ENDBRANCH  17  24
ENDBRANCH   3  17
TORSDOF 10
ENDMDL
MODEL 5
REMARK VINA RESULT:      -5.7     12.372     14.053
REMARK  10 active torsions:
REMARK  status: ('A' for Active; 'I' for Inactive)
REMARK       I    between atoms: C_1  and  N_6 
REMARK    1  A    between atoms: C_1  and  C_2 
REMARK    2  A    between atoms: C_2  and  C_26 
REMARK    3  A    between atoms: C_2  and  N_17 
REMARK    4  A    between atoms: N_6  and  C_10 
REMARK    5  A    between atoms: C_7  and  C_16 
REMARK    6  A    between atoms: C_7  and  N_8 
REMARK    7  A    between atoms: C_9  and  C_24 
REMARK    8  A    between atoms: C_9  and  C_10 
REMARK    9  A    between atoms: C_10  and  C_25 
REMARK       I    between atoms: N_13  and  C_24 
REMARK   10  A    between atoms: C_16  and  C_26 
ROOT
HETATM    1  C           1     -21.339  -4.434  -8.445  0.00  0.00     0.249 C 
HETATM    2  H           1     -22.994  -3.366  -9.078  0.00  0.00     0.163 HD
HETATM    3  N           1     -22.228  -3.959  -9.371  0.00  0.00    -0.344 N 
HETATM    4  O           1     -20.423  -5.141  -8.793  0.00  0.00    -0.271 OA
ENDROOT
BRANCH   1   5
HETATM    5  C           1     -21.501  -4.074  -6.988  0.00  0.00     0.274 C 
BRANCH   5   6
HETATM    6  C           1     -20.340  -4.651  -6.190  0.00  0.00     0.044 C 
BRANCH   6   7
HETATM    7  C           1     -20.879  -5.556  -5.089  0.00  0.00     0.030 C 
BRANCH   7   8
HETATM    8  C           1     -20.432  -6.989  -5.346  0.00  0.00     0.230 C 
BRANCH   8   9
HETATM    9  N           1     -19.626  -7.044  -6.609  0.00  0.00    -0.079 N 
HETATM   10  H           1     -19.966  -6.312  -7.273  0.00  0.00     0.274 HD
HETATM   11  H           1     -18.618  -6.873  -6.389  0.00  0.00     0.274 HD
HETATM   12  H           1     -19.729  -7.988  -7.048  0.00  0.00     0.274 HD
ENDBRANCH   8   9
ENDBRANCH   7   8
ENDBRANCH   6   7
ENDBRANCH   5   6
BRANCH   5  13
HETATM   13  N           1     -22.791  -4.642  -6.475  0.00  0.00    -0.067 N 
HETATM   14  H           1     -22.753  -4.705  -5.433  0.00  0.00     0.275 HD
HETATM   15  H           1     -22.936  -5.595  -6.877  0.00  0.00     0.275 HD
HETATM   16  H           1     -23.582  -4.021  -6.757  0.00  0.00     0.275 HD
ENDBRANCH   5  13
ENDBRANCH   1   5
BRANCH   3  17
HETATM   17  C           1     -22.072  -4.304 -10.770  0.00  0.00     0.194 C 
BRANCH  17  18
HETATM   18  C           1     -23.427  -4.678 -11.354  0.00  0.00     0.138 C 
BRANCH  18  19
HETATM   19  C           1     -24.524  -4.152 -10.461  0.00  0.00     0.217 C 
HETATM   20  N           1     -25.038  -4.942  -9.468  0.00  0.00    -0.370 N 
HETATM   21  H           1     -25.773  -4.589  -8.870  0.00  0.00     0.159 HD
HETATM   22  H           1     -24.682  -5.880  -9.334  0.00  0.00     0.159 HD
HETATM   23  O           1     -24.948  -3.033 -10.622  0.00  0.00    -0.274 OA
ENDBRANCH  18  19
ENDBRANCH  17  18
BRANCH  17  24
HETATM   24  C           1     -21.509  -3.121 -11.520  0.00  0.00     0.197 C 
HETATM   25  O           1     -22.227  -2.498 -12.332  0.00  0.00    -0.646 OA
HETATM   26  O           1     -20.327  -2.765 -11.328  0.00  0.00    -0.646 OA
ENDBRANCH  17  24
ENDBRANCH   3  17
TORSDOF 10
ENDMDL
MODEL 6
REMARK VINA RESULT:      -5.6     14.343     16.918
REMARK  10 active torsions:
REMARK  status: ('A' for Active; 'I' for Inactive)
REMARK       I    between atoms: C_1  and  N_6 
REMARK    1  A    between atoms: C_1  and  C_2 
REMARK    2  A    between atoms: C_2  and  C_26 
REMARK    3  A    between atoms: C_2  and  N_17 
REMARK    4  A    between atoms: N_6  and  C_10 
REMARK    5  A    between atoms: C_7  and  C_16 
REMARK    6  A    between atoms: C_7  and  N_8 
REMARK    7  A    between atoms: C_9  and  C_24 
REMARK    8  A    between atoms: C_9  and  C_10 
REMARK    9  A    between atoms: C_10  and  C_25 
REMARK       I    between atoms: N_13  and  C_24 
REMARK   10  A    between atoms: C_16  and  C_26 
ROOT
HETATM    1  C           1     -21.445  -5.757  -5.689  0.00  0.00     0.249 C 
HETATM    2  H           1     -19.896  -6.847  -4.855  0.00  0.00     0.163 HD
HETATM    3  N           1     -20.896  -6.689  -4.850  0.00  0.00    -0.344 N 
HETATM    4  O           1     -22.638  -5.568  -5.685  0.00  0.00    -0.271 OA
ENDROOT
BRANCH   1   5
HETATM    5  C           1     -20.559  -4.965  -6.619  0.00  0.00     0.274 C 
BRANCH   5   6
HETATM    6  C           1     -21.373  -3.856  -7.274  0.00  0.00     0.044 C 
BRANCH   6   7
HETATM    7  C           1     -21.451  -4.100  -8.775  0.00  0.00     0.030 C 
BRANCH   7   8
HETATM    8  C           1     -22.910  -4.154  -9.207  0.00  0.00     0.230 C 
BRANCH   8   9
HETATM    9  N           1     -23.793  -4.054  -7.999  0.00  0.00    -0.079 N 
HETATM   10  H           1     -23.263  -3.615  -7.214  0.00  0.00     0.274 HD
HETATM   11  H           1     -24.630  -3.470  -8.225  0.00  0.00     0.274 HD
HETATM   12  H           1     -24.105  -5.012  -7.716  0.00  0.00     0.274 HD
ENDBRANCH   8   9
ENDBRANCH   7   8
ENDBRANCH   6   7
ENDBRANCH   5   6
BRANCH   5  13
HETATM   13  N           1     -20.009  -5.872  -7.679  0.00  0.00    -0.067 N 
HETATM   14  H           1     -19.708  -5.304  -8.502  0.00  0.00     0.275 HD
HETATM   15  H           1     -20.748  -6.550  -7.975  0.00  0.00     0.275 HD
HETATM   16  H           1     -19.189  -6.396  -7.298  0.00  0.00     0.275 HD
ENDBRANCH   5  13
ENDBRANCH   1   5
BRANCH   3  17
HETATM   17  C           1     -21.746  -7.451  -3.957  0.00  0.00     0.194 C 
BRANCH  17  18
HETATM   18  C           1     -21.321  -8.913  -3.976  0.00  0.00     0.138 C 
BRANCH  18  19
HETATM   19  C           1     -19.912  -9.022  -4.504  0.00  0.00     0.217 C 
HETATM   20  N           1     -18.854  -9.049  -3.634  0.00  0.00    -0.370 N 
HETATM   21  H           1     -17.909  -9.122  -3.989  0.00  0.00     0.159 HD
HETATM   22  H           1     -19.018  -8.997  -2.637  0.00  0.00     0.159 HD
HETATM   23  O           1     -19.716  -9.084  -5.694  0.00  0.00    -0.274 OA
ENDBRANCH  18  19
ENDBRANCH  17  18
BRANCH  17  24
HETATM   24  C           1     -21.617  -6.907  -2.555  0.00  0.00     0.197 C 
HETATM   25  O           1     -22.295  -5.917  -2.204  0.00  0.00    -0.646 OA
HETATM   26  O           1     -20.832  -7.446  -1.746  0.00  0.00    -0.646 OA
ENDBRANCH  17  24
ENDBRANCH   3  17
TORSDOF 10
ENDMDL
MODEL 7
REMARK VINA RESULT:      -5.5     11.906     13.414
REMARK  10 active torsions:
REMARK  status: ('A' for Active; 'I' for Inactive)
REMARK       I    between atoms: C_1  and  N_6 
REMARK    1  A    between atoms: C_1  and  C_2 
REMARK    2  A    between atoms: C_2  and  C_26 
REMARK    3  A    between atoms: C_2  and  N_17 
REMARK    4  A    between atoms: N_6  and  C_10 
REMARK    5  A    between atoms: C_7  and  C_16 
REMARK    6  A    between atoms: C_7  and  N_8 
REMARK    7  A    between atoms: C_9  and  C_24 
REMARK    8  A    between atoms: C_9  and  C_10 
REMARK    9  A    between atoms: C_10  and  C_25 
REMARK       I    between atoms: N_13  and  C_24 
REMARK   10  A    between atoms: C_16  and  C_26 
ROOT
HETATM    1  C           1     -21.072  -4.421  -9.327  0.00  0.00     0.249 C 
HETATM    2  H           1     -22.866  -5.223  -8.681  0.00  0.00     0.163 HD
HETATM    3  N           1     -22.430  -4.585  -9.334  0.00  0.00    -0.344 N 
HETATM    4  O           1     -20.551  -3.659 -10.106  0.00  0.00    -0.271 OA
ENDROOT
BRANCH   1   5
HETATM    5  C           1     -20.224  -5.193  -8.346  0.00  0.00     0.274 C 
BRANCH   5   6
HETATM    6  C           1     -21.102  -5.716  -7.217  0.00  0.00     0.044 C 
BRANCH   6   7
HETATM    7  C           1     -20.697  -5.053  -5.907  0.00  0.00     0.030 C 
BRANCH   7   8
HETATM    8  C           1     -21.188  -5.896  -4.738  0.00  0.00     0.230 C 
BRANCH   8   9
HETATM    9  N           1     -22.638  -6.227  -4.932  0.00  0.00    -0.079 N 
HETATM   10  H           1     -23.109  -5.445  -5.441  0.00  0.00     0.274 HD
HETATM   11  H           1     -22.724  -7.107  -5.489  0.00  0.00     0.274 HD
HETATM   12  H           1     -23.092  -6.360  -3.999  0.00  0.00     0.274 HD
ENDBRANCH   8   9
ENDBRANCH   7   8
ENDBRANCH   6   7
ENDBRANCH   5   6
BRANCH   5  13
HETATM   13  N           1     -19.169  -4.290  -7.779  0.00  0.00    -0.067 N 
HETATM   14  H           1     -18.700  -3.772  -8.556  0.00  0.00     0.275 HD
HETATM   15  H           1     -18.462  -4.861  -7.264  0.00  0.00     0.275 HD
HETATM   16  H           1     -19.610  -3.607  -7.122  0.00  0.00     0.275 HD
ENDBRANCH   5  13
ENDBRANCH   1   5
BRANCH   3  17
HETATM   17  C           1     -23.245  -3.843 -10.276  0.00  0.00     0.194 C 
BRANCH  17  18
HETATM   18  C           1     -23.048  -4.413 -11.675  0.00  0.00     0.138 C 
BRANCH  18  19
HETATM   19  C           1     -23.146  -3.301 -12.691  0.00  0.00     0.217 C 
HETATM   20  N           1     -24.247  -2.488 -12.713  0.00  0.00    -0.370 N 
HETATM   21  H           1     -24.312  -1.743 -13.394  0.00  0.00     0.159 HD
HETATM   22  H           1     -24.996  -2.633 -12.048  0.00  0.00     0.159 HD
HETATM   23  O           1     -22.252  -3.129 -13.485  0.00  0.00    -0.274 OA
ENDBRANCH  18  19
ENDBRANCH  17  18
BRANCH  17  24
HETATM   24  C           1     -24.698  -3.961  -9.885  0.00  0.00     0.197 C 
HETATM   25  O           1     -25.163  -5.067  -9.534  0.00  0.00    -0.646 OA
HETATM   26  O           1     -25.436  -2.952  -9.912  0.00  0.00    -0.646 OA
ENDBRANCH  17  24
ENDBRANCH   3  17
TORSDOF 10
ENDMDL
MODEL 8
REMARK VINA RESULT:      -5.3     14.031     16.630
REMARK  10 active torsions:
REMARK  status: ('A' for Active; 'I' for Inactive)
REMARK       I    between atoms: C_1  and  N_6 
REMARK    1  A    between atoms: C_1  and  C_2 
REMARK    2  A    between atoms: C_2  and  C_26 
REMARK    3  A    between atoms: C_2  and  N_17 
REMARK    4  A    between atoms: N_6  and  C_10 
REMARK    5  A    between atoms: C_7  and  C_16 
REMARK    6  A    between atoms: C_7  and  N_8 
REMARK    7  A    between atoms: C_9  and  C_24 
REMARK    8  A    between atoms: C_9  and  C_10 
REMARK    9  A    between atoms: C_10  and  C_25 
REMARK       I    between atoms: N_13  and  C_24 
REMARK   10  A    between atoms: C_16  and  C_26 
ROOT
HETATM    1  C           1     -20.591  -4.946  -6.201  0.00  0.00     0.249 C 
HETATM    2  H           1     -21.435  -6.712  -6.874  0.00  0.00     0.163 HD
HETATM    3  N           1     -20.968  -6.258  -6.100  0.00  0.00    -0.344 N 
HETATM    4  O           1     -20.033  -4.404  -5.277  0.00  0.00    -0.271 OA
ENDROOT
BRANCH   1   5
HETATM    5  C           1     -20.873  -4.176  -7.468  0.00  0.00     0.274 C 
BRANCH   5   6
HETATM    6  C           1     -22.336  -4.349  -7.853  0.00  0.00     0.044 C 
BRANCH   6   7
HETATM    7  C           1     -22.448  -4.516  -9.363  0.00  0.00     0.030 C 
BRANCH   7   8
HETATM    8  C           1     -23.909  -4.410  -9.779  0.00  0.00     0.230 C 
BRANCH   8   9
HETATM    9  N           1     -24.559  -3.277  -9.040  0.00  0.00    -0.079 N 
HETATM   10  H           1     -25.536  -3.149  -9.387  0.00  0.00     0.274 HD
HETATM   11  H           1     -24.577  -3.492  -8.017  0.00  0.00     0.274 HD
HETATM   12  H           1     -24.014  -2.399  -9.201  0.00  0.00     0.274 HD
ENDBRANCH   8   9
ENDBRANCH   7   8
ENDBRANCH   6   7
ENDBRANCH   5   6
BRANCH   5  13
HETATM   13  N           1     -20.001  -4.696  -8.572  0.00  0.00    -0.067 N 
HETATM   14  H           1     -20.368  -5.617  -8.902  0.00  0.00     0.275 HD
HETATM   15  H           1     -19.025  -4.816  -8.218  0.00  0.00     0.275 HD
HETATM   16  H           1     -20.002  -4.017  -9.366  0.00  0.00     0.275 HD
ENDBRANCH   5  13
ENDBRANCH   1   5
BRANCH   3  17
HETATM   17  C           1     -20.698  -6.998  -4.883  0.00  0.00     0.194 C 
BRANCH  17  18
HETATM   18  C           1     -21.967  -7.077  -4.045  0.00  0.00     0.138 C 
BRANCH  18  19
HETATM   19  C           1     -21.639  -6.771  -2.604  0.00  0.00     0.217 C 
HETATM   20  N           1     -22.304  -5.769  -1.948  0.00  0.00    -0.370 N 
HETATM   21  H           1     -22.084  -5.564  -0.982  0.00  0.00     0.159 HD
HETATM   22  H           1     -23.015  -5.234  -2.430  0.00  0.00     0.159 HD
HETATM   23  O           1     -20.791  -7.410  -2.029  0.00  0.00    -0.274 OA
ENDBRANCH  18  19
ENDBRANCH  17  18
BRANCH  17  24
HETATM   24  C           1     -20.239  -8.392  -5.234  0.00  0.00     0.197 C 
HETATM   25  O           1     -20.995  -9.157  -5.872  0.00  0.00    -0.646 OA
HETATM   26  O           1     -19.103  -8.783  -4.887  0.00  0.00    -0.646 OA
ENDBRANCH  17  24
ENDBRANCH   3  17
TORSDOF 10
ENDMDL
MODEL 9
REMARK VINA RESULT:      -5.2     14.418     16.358
REMARK  10 active torsions:
REMARK  status: ('A' for Active; 'I' for Inactive)
REMARK       I    between atoms: C_1  and  N_6 
REMARK    1  A    between atoms: C_1  and  C_2 
REMARK    2  A    between atoms: C_2  and  C_26 
REMARK    3  A    between atoms: C_2  and  N_17 
REMARK    4  A    between atoms: N_6  and  C_10 
REMARK    5  A    between atoms: C_7  and  C_16 
REMARK    6  A    between atoms: C_7  and  N_8 
REMARK    7  A    between atoms: C_9  and  C_24 
REMARK    8  A    between atoms: C_9  and  C_10 
REMARK    9  A    between atoms: C_10  and  C_25 
REMARK       I    between atoms: N_13  and  C_24 
REMARK   10  A    between atoms: C_16  and  C_26 
ROOT
HETATM    1  C           1     -21.441  -6.468  -4.379  0.00  0.00     0.249 C 
HETATM    2  H           1     -20.608  -4.579  -4.513  0.00  0.00     0.163 HD
HETATM    3  N           1     -21.001  -5.351  -5.035  0.00  0.00    -0.344 N 
HETATM    4  O           1     -21.911  -7.390  -5.002  0.00  0.00    -0.271 OA
ENDROOT
BRANCH   1   5
HETATM    5  C           1     -21.339  -6.549  -2.876  0.00  0.00     0.274 C 
BRANCH   5   6
HETATM    6  C           1     -21.423  -8.006  -2.438  0.00  0.00     0.044 C 
BRANCH   6   7
HETATM    7  C           1     -20.049  -8.479  -1.980  0.00  0.00     0.030 C 
BRANCH   7   8
HETATM    8  C           1     -19.643  -9.709  -2.780  0.00  0.00     0.230 C 
BRANCH   8   9
HETATM    9  N           1     -20.694 -10.009  -3.807  0.00  0.00    -0.079 N 
HETATM   10  H           1     -21.351  -9.199  -3.880  0.00  0.00     0.274 HD
HETATM   11  H           1     -20.240 -10.175  -4.734  0.00  0.00     0.274 HD
HETATM   12  H           1     -21.225 -10.864  -3.523  0.00  0.00     0.274 HD
ENDBRANCH   8   9
ENDBRANCH   7   8
ENDBRANCH   6   7
ENDBRANCH   5   6
BRANCH   5  13
HETATM   13  N           1     -22.465  -5.776  -2.256  0.00  0.00    -0.067 N 
HETATM   14  H           1     -23.089  -5.406  -3.008  0.00  0.00     0.275 HD
HETATM   15  H           1     -22.077  -4.980  -1.702  0.00  0.00     0.275 HD
HETATM   16  H           1     -23.013  -6.404  -1.626  0.00  0.00     0.275 HD
ENDBRANCH   5  13
ENDBRANCH   1   5
BRANCH   3  17
HETATM   17  C           1     -21.100  -5.272  -6.480  0.00  0.00     0.194 C 
BRANCH  17  18
HETATM   18  C           1     -21.505  -3.861  -6.885  0.00  0.00     0.138 C 
BRANCH  18  19
HETATM   19  C           1     -22.415  -3.924  -8.086  0.00  0.00     0.217 C 
HETATM   20  N           1     -23.766  -4.070  -7.916  0.00  0.00    -0.370 N 
HETATM   21  H           1     -24.376  -4.112  -8.722  0.00  0.00     0.159 HD
HETATM   22  H           1     -24.154  -4.137  -6.984  0.00  0.00     0.159 HD
HETATM   23  O           1     -21.953  -3.844  -9.199  0.00  0.00    -0.274 OA
ENDBRANCH  18  19
ENDBRANCH  17  18
BRANCH  17  24
HETATM   24  C           1     -19.762  -5.608  -7.093  0.00  0.00     0.197 C 
HETATM   25  O           1     -19.028  -4.695  -7.530  0.00  0.00    -0.646 OA
HETATM   26  O           1     -19.388  -6.799  -7.164  0.00  0.00    -0.646 OA
ENDBRANCH  17  24
ENDBRANCH   3  17
TORSDOF 10
ENDMDL
