MODEL 1
REMARK VINA RESULT:      -6.4      0.000      0.000
REMARK  8 active torsions:
REMARK  status: ('A' for Active; 'I' for Inactive)
REMARK    1  A    between atoms: C_1  and  C_19 
REMARK    2  A    between atoms: C_1  and  C_2 
REMARK    3  A    between atoms: C_1  and  N_10 
REMARK    4  A    between atoms: C_2  and  C_3 
REMARK    5  A    between atoms: C_5  and  C_7 
REMARK    6  A    between atoms: C_7  and  C_12 
REMARK    7  A    between atoms: C_8  and  C_12 
REMARK    8  A    between atoms: C_12  and  N_18 
REMARK       I    between atoms: N_18  and  C_19 
ROOT
HETATM    1  O           1     -34.585  -3.035 -13.429  0.00  0.00    -0.271 OA
HETATM    2  H           1     -34.878  -0.534 -11.558  0.00  0.00     0.163 HD
HETATM    3  N           1     -35.003  -1.107 -12.383  0.00  0.00    -0.344 N 
HETATM    4  C           1     -34.436  -2.352 -12.444  0.00  0.00     0.249 C 
ENDROOT
BRANCH   4   5
HETATM    5  C           1     -33.625  -2.870 -11.281  0.00  0.00     0.284 C 
BRANCH   5   6
HETATM    6  C           1     -34.297  -4.110 -10.705  0.00  0.00     0.155 C 
BRANCH   6   7
HETATM    7  C           1     -33.521  -5.338 -11.114  0.00  0.00     0.175 C 
HETATM    8  O           1     -32.446  -5.219 -11.741  0.00  0.00    -0.648 OA
HETATM    9  O           1     -33.953  -6.474 -10.825  0.00  0.00    -0.648 OA
ENDBRANCH   6   7
ENDBRANCH   5   6
BRANCH   5  10
HETATM   10  N           1     -33.539  -1.812 -10.222  0.00  0.00    -0.066 N 
HETATM   11  H           1     -34.417  -1.245 -10.222  0.00  0.00     0.275 HD
HETATM   12  H           1     -33.418  -2.265  -9.288  0.00  0.00     0.275 HD
HETATM   13  H           1     -32.721  -1.190 -10.417  0.00  0.00     0.275 HD
ENDBRANCH   5  10
ENDBRANCH   4   5
BRANCH   3  14
HETATM   14  C           1     -35.783  -0.609 -13.499  0.00  0.00     0.195 C 
BRANCH  14  15
HETATM   15  C           1     -37.078   0.001 -12.982  0.00  0.00     0.149 C 
BRANCH  15  16
HETATM   16  C           1     -37.167  -0.200 -11.489  0.00  0.00     0.175 C 
HETATM   17  O           1     -37.880  -1.115 -11.023  0.00  0.00    -0.648 OA
HETATM   18  O           1     -36.528   0.549 -10.719  0.00  0.00    -0.648 OA
ENDBRANCH  15  16
ENDBRANCH  14  15
BRANCH  14  19
HETATM   19  C           1     -34.988   0.441 -14.236  0.00  0.00     0.197 C 
HETATM   20  O           1     -34.602   0.229 -15.406  0.00  0.00    -0.646 OA
HETATM   21  O           1     -34.717   1.525 -13.676  0.00  0.00    -0.646 OA
ENDBRANCH  14  19
ENDBRANCH   3  14
TORSDOF 8
ENDMDL
MODEL 2
REMARK VINA RESULT:      -6.0      2.156      5.349
REMARK  8 active torsions:
REMARK  status: ('A' for Active; 'I' for Inactive)
REMARK    1  A    between atoms: C_1  and  C_19 
REMARK    2  A    between atoms: C_1  and  C_2 
REMARK    3  A    between atoms: C_1  and  N_10 
REMARK    4  A    between atoms: C_2  and  C_3 
REMARK    5  A    between atoms: C_5  and  C_7 
REMARK    6  A    between atoms: C_7  and  C_12 
REMARK    7  A    between atoms: C_8  and  C_12 
REMARK    8  A    between atoms: C_12  and  N_18 
REMARK       I    between atoms: N_18  and  C_19 
ROOT
HETATM    1  O           1     -37.032  -0.945 -13.139  0.00  0.00    -0.271 OA
HETATM    2  H           1     -33.898  -0.899 -13.268  0.00  0.00     0.163 HD
HETATM    3  N           1     -34.819  -1.186 -12.963  0.00  0.00    -0.344 N 
HETATM    4  C           1     -35.932  -0.603 -13.505  0.00  0.00     0.249 C 
ENDROOT
BRANCH   4   5
HETATM    5  C           1     -35.786   0.468 -14.559  0.00  0.00     0.284 C 
BRANCH   5   6
HETATM    6  C           1     -35.031  -0.096 -15.755  0.00  0.00     0.155 C 
BRANCH   6   7
HETATM    7  C           1     -35.923  -1.053 -16.508  0.00  0.00     0.175 C 
HETATM    8  O           1     -37.013  -0.656 -16.974  0.00  0.00    -0.648 OA
HETATM    9  O           1     -35.572  -2.241 -16.666  0.00  0.00    -0.648 OA
ENDBRANCH   6   7
ENDBRANCH   5   6
BRANCH   5  10
HETATM   10  N           1     -35.025   1.628 -13.990  0.00  0.00    -0.066 N 
HETATM   11  H           1     -35.087   1.608 -12.947  0.00  0.00     0.275 HD
HETATM   12  H           1     -34.023   1.561 -14.280  0.00  0.00     0.275 HD
HETATM   13  H           1     -35.433   2.521 -14.347  0.00  0.00     0.275 HD
ENDBRANCH   5  10
ENDBRANCH   4   5
BRANCH   3  14
HETATM   14  C           1     -34.959  -2.215 -11.950  0.00  0.00     0.195 C 
BRANCH  14  15
HETATM   15  C           1     -33.926  -3.308 -12.192  0.00  0.00     0.149 C 
BRANCH  15  16
HETATM   16  C           1     -34.388  -4.194 -13.323  0.00  0.00     0.175 C 
HETATM   17  O           1     -35.045  -5.229 -13.078  0.00  0.00    -0.648 OA
HETATM   18  O           1     -34.113  -3.893 -14.505  0.00  0.00    -0.648 OA
ENDBRANCH  15  16
ENDBRANCH  14  15
BRANCH  14  19
HETATM   19  C           1     -34.740  -1.608 -10.586  0.00  0.00     0.197 C 
HETATM   20  O           1     -33.627  -1.708 -10.027  0.00  0.00    -0.646 OA
HETATM   21  O           1     -35.674  -1.005 -10.014  0.00  0.00    -0.646 OA
ENDBRANCH  14  19
ENDBRANCH   3  14
TORSDOF 8
ENDMDL
MODEL 3
REMARK VINA RESULT:      -5.9     12.075     14.372
REMARK  8 active torsions:
REMARK  status: ('A' for Active; 'I' for Inactive)
REMARK    1  A    between atoms: C_1  and  C_19 
REMARK    2  A    between atoms: C_1  and  C_2 
REMARK    3  A    between atoms: C_1  and  N_10 
REMARK    4  A    between atoms: C_2  and  C_3 
REMARK    5  A    between atoms: C_5  and  C_7 
REMARK    6  A    between atoms: C_7  and  C_12 
REMARK    7  A    between atoms: C_8  and  C_12 
REMARK    8  A    between atoms: C_12  and  N_18 
REMARK       I    between atoms: N_18  and  C_19 
ROOT
HETATM    1  O           1     -21.504  -3.214  -7.255  0.00  0.00    -0.271 OA
HETATM    2  H           1     -22.368  -5.779  -8.841  0.00  0.00     0.163 HD
HETATM    3  N           1     -22.255  -4.792  -8.644  0.00  0.00    -0.344 N 
HETATM    4  C           1     -21.638  -4.391  -7.490  0.00  0.00     0.249 C 
ENDROOT
BRANCH   4   5
HETATM    5  C           1     -21.126  -5.419  -6.511  0.00  0.00     0.284 C 
BRANCH   5   6
HETATM    6  C           1     -22.295  -6.001  -5.727  0.00  0.00     0.155 C 
BRANCH   6   7
HETATM    7  C           1     -21.798  -6.537  -4.406  0.00  0.00     0.175 C 
HETATM    8  O           1     -21.011  -7.508  -4.382  0.00  0.00    -0.648 OA
HETATM    9  O           1     -22.174  -6.011  -3.337  0.00  0.00    -0.648 OA
ENDBRANCH   6   7
ENDBRANCH   5   6
BRANCH   5  10
HETATM   10  N           1     -20.162  -4.770  -5.562  0.00  0.00    -0.066 N 
HETATM   11  H           1     -20.467  -3.788  -5.374  0.00  0.00     0.275 HD
HETATM   12  H           1     -20.143  -5.306  -4.666  0.00  0.00     0.275 HD
HETATM   13  H           1     -19.207  -4.764  -5.987  0.00  0.00     0.275 HD
ENDBRANCH   5  10
ENDBRANCH   4   5
BRANCH   3  14
HETATM   14  C           1     -22.748  -3.805  -9.585  0.00  0.00     0.195 C 
BRANCH  14  15
HETATM   15  C           1     -22.189  -4.101 -10.970  0.00  0.00     0.149 C 
BRANCH  15  16
HETATM   16  C           1     -20.698  -3.873 -10.971  0.00  0.00     0.175 C 
HETATM   17  O           1     -19.923  -4.798 -10.644  0.00  0.00    -0.648 OA
HETATM   18  O           1     -20.237  -2.758 -11.297  0.00  0.00    -0.648 OA
ENDBRANCH  15  16
ENDBRANCH  14  15
BRANCH  14  19
HETATM   19  C           1     -24.255  -3.860  -9.626  0.00  0.00     0.197 C 
HETATM   20  O           1     -24.924  -2.817  -9.461  0.00  0.00    -0.646 OA
HETATM   21  O           1     -24.835  -4.949  -9.827  0.00  0.00    -0.646 OA
ENDBRANCH  14  19
ENDBRANCH   3  14
TORSDOF 8
ENDMDL
MODEL 4
REMARK VINA RESULT:      -5.9      2.539      4.818
REMARK  8 active torsions:
REMARK  status: ('A' for Active; 'I' for Inactive)
REMARK    1  A    between atoms: C_1  and  C_19 
REMARK    2  A    between atoms: C_1  and  C_2 
REMARK    3  A    between atoms: C_1  and  N_10 
REMARK    4  A    between atoms: C_2  and  C_3 
REMARK    5  A    between atoms: C_5  and  C_7 
REMARK    6  A    between atoms: C_7  and  C_12 
REMARK    7  A    between atoms: C_8  and  C_12 
REMARK    8  A    between atoms: C_12  and  N_18 
REMARK       I    between atoms: N_18  and  C_19 
ROOT
HETATM    1  O           1     -37.995  -0.667 -13.438  0.00  0.00    -0.271 OA
HETATM    2  H           1     -35.511   0.502 -11.922  0.00  0.00     0.163 HD
HETATM    3  N           1     -36.406   0.047 -12.041  0.00  0.00    -0.344 N 
HETATM    4  C           1     -36.925  -0.125 -13.296  0.00  0.00     0.249 C 
ENDROOT
BRANCH   4   5
HETATM    5  C           1     -36.161   0.365 -14.502  0.00  0.00     0.284 C 
BRANCH   5   6
HETATM    6  C           1     -36.447  -0.546 -15.689  0.00  0.00     0.155 C 
BRANCH   6   7
HETATM    7  C           1     -35.278  -1.476 -15.903  0.00  0.00     0.175 C 
HETATM    8  O           1     -34.994  -2.332 -15.037  0.00  0.00    -0.648 OA
HETATM    9  O           1     -34.596  -1.392 -16.946  0.00  0.00    -0.648 OA
ENDBRANCH   6   7
ENDBRANCH   5   6
BRANCH   5  10
HETATM   10  N           1     -34.691   0.348 -14.203  0.00  0.00    -0.066 N 
HETATM   11  H           1     -34.375  -0.639 -14.063  0.00  0.00     0.275 HD
HETATM   12  H           1     -34.169   0.770 -15.003  0.00  0.00     0.275 HD
HETATM   13  H           1     -34.507   0.900 -13.335  0.00  0.00     0.275 HD
ENDBRANCH   5  10
ENDBRANCH   4   5
BRANCH   3  14
HETATM   14  C           1     -37.140  -0.423 -10.882  0.00  0.00     0.195 C 
BRANCH  14  15
HETATM   15  C           1     -36.475  -1.679 -10.336  0.00  0.00     0.149 C 
BRANCH  15  16
HETATM   16  C           1     -35.299  -2.045 -11.207  0.00  0.00     0.175 C 
HETATM   17  O           1     -35.404  -2.965 -12.046  0.00  0.00    -0.648 OA
HETATM   18  O           1     -34.218  -1.427 -11.088  0.00  0.00    -0.648 OA
ENDBRANCH  15  16
ENDBRANCH  14  15
BRANCH  14  19
HETATM   19  C           1     -37.141   0.650  -9.820  0.00  0.00     0.197 C 
HETATM   20  O           1     -36.209   0.709  -8.989  0.00  0.00    -0.646 OA
HETATM   21  O           1     -38.074   1.480  -9.772  0.00  0.00    -0.646 OA
ENDBRANCH  14  19
ENDBRANCH   3  14
TORSDOF 8
ENDMDL
MODEL 5
REMARK VINA RESULT:      -5.9      9.602     11.629
REMARK  8 active torsions:
REMARK  status: ('A' for Active; 'I' for Inactive)
REMARK    1  A    between atoms: C_1  and  C_19 
REMARK    2  A    between atoms: C_1  and  C_2 
REMARK    3  A    between atoms: C_1  and  N_10 
REMARK    4  A    between atoms: C_2  and  C_3 
REMARK    5  A    between atoms: C_5  and  C_7 
REMARK    6  A    between atoms: C_7  and  C_12 
REMARK    7  A    between atoms: C_8  and  C_12 
REMARK    8  A    between atoms: C_12  and  N_18 
REMARK       I    between atoms: N_18  and  C_19 
ROOT
HETATM    1  O           1     -28.307  -5.251 -19.120  0.00  0.00    -0.271 OA
HETATM    2  H           1     -27.104  -8.028 -18.297  0.00  0.00     0.163 HD
HETATM    3  N           1     -27.117  -7.082 -18.655  0.00  0.00    -0.344 N 
HETATM    4  C           1     -28.292  -6.380 -18.691  0.00  0.00     0.249 C 
ENDROOT
BRANCH   4   5
HETATM    5  C           1     -29.567  -7.017 -18.195  0.00  0.00     0.284 C 
BRANCH   5   6
HETATM    6  C           1     -29.486  -7.210 -16.687  0.00  0.00     0.155 C 
BRANCH   6   7
HETATM    7  C           1     -29.678  -5.882 -15.997  0.00  0.00     0.175 C 
HETATM    8  O           1     -28.874  -5.515 -15.112  0.00  0.00    -0.648 OA
HETATM    9  O           1     -30.639  -5.148 -16.311  0.00  0.00    -0.648 OA
ENDBRANCH   6   7
ENDBRANCH   5   6
BRANCH   5  10
HETATM   10  N           1     -29.751  -8.349 -18.860  0.00  0.00    -0.066 N 
HETATM   11  H           1     -29.451  -9.108 -18.209  0.00  0.00     0.275 HD
HETATM   12  H           1     -30.759  -8.478 -19.104  0.00  0.00     0.275 HD
HETATM   13  H           1     -29.173  -8.386 -19.731  0.00  0.00     0.275 HD
ENDBRANCH   5  10
ENDBRANCH   4   5
BRANCH   3  14
HETATM   14  C           1     -25.891  -6.471 -19.131  0.00  0.00     0.195 C 
BRANCH  14  15
HETATM   15  C           1     -24.729  -6.912 -18.251  0.00  0.00     0.149 C 
BRANCH  15  16
HETATM   16  C           1     -25.131  -6.814 -16.801  0.00  0.00     0.175 C 
HETATM   17  O           1     -24.818  -7.723 -16.002  0.00  0.00    -0.648 OA
HETATM   18  O           1     -25.778  -5.823 -16.397  0.00  0.00    -0.648 OA
ENDBRANCH  15  16
ENDBRANCH  14  15
BRANCH  14  19
HETATM   19  C           1     -25.637  -6.900 -20.555  0.00  0.00     0.197 C 
HETATM   20  O           1     -25.056  -6.128 -21.348  0.00  0.00    -0.646 OA
HETATM   21  O           1     -26.007  -8.029 -20.942  0.00  0.00    -0.646 OA
ENDBRANCH  14  19
ENDBRANCH   3  14
TORSDOF 8
ENDMDL
MODEL 6
REMARK VINA RESULT:      -5.8     10.034     11.830
REMARK  8 active torsions:
REMARK  status: ('A' for Active; 'I' for Inactive)
REMARK    1  A    between atoms: C_1  and  C_19 
REMARK    2  A    between atoms: C_1  and  C_2 
REMARK    3  A    between atoms: C_1  and  N_10 
REMARK    4  A    between atoms: C_2  and  C_3 
REMARK    5  A    between atoms: C_5  and  C_7 
REMARK    6  A    between atoms: C_7  and  C_12 
REMARK    7  A    between atoms: C_8  and  C_12 
REMARK    8  A    between atoms: C_12  and  N_18 
REMARK       I    between atoms: N_18  and  C_19 
ROOT
HETATM    1  O           1     -27.595  -6.037 -19.597  0.00  0.00    -0.271 OA
HETATM    2  H           1     -26.209  -6.920 -16.925  0.00  0.00     0.163 HD
HETATM    3  N           1     -26.963  -6.657 -17.547  0.00  0.00    -0.344 N 
HETATM    4  C           1     -26.695  -6.351 -18.855  0.00  0.00     0.249 C 
ENDROOT
BRANCH   4   5
HETATM    5  C           1     -25.278  -6.407 -19.368  0.00  0.00     0.284 C 
BRANCH   5   6
HETATM    6  C           1     -25.289  -6.442 -20.891  0.00  0.00     0.155 C 
BRANCH   6   7
HETATM    7  C           1     -25.107  -7.864 -21.363  0.00  0.00     0.175 C 
HETATM    8  O           1     -26.099  -8.618 -21.472  0.00  0.00    -0.648 OA
HETATM    9  O           1     -23.966  -8.287 -21.645  0.00  0.00    -0.648 OA
ENDBRANCH   6   7
ENDBRANCH   5   6
BRANCH   5  10
HETATM   10  N           1     -24.605  -7.641 -18.845  0.00  0.00    -0.066 N 
HETATM   11  H           1     -25.277  -8.440 -18.867  0.00  0.00     0.275 HD
HETATM   12  H           1     -23.778  -7.866 -19.444  0.00  0.00     0.275 HD
HETATM   13  H           1     -24.290  -7.475 -17.862  0.00  0.00     0.275 HD
ENDBRANCH   5  10
ENDBRANCH   4   5
BRANCH   3  14
HETATM   14  C           1     -28.325  -6.604 -17.053  0.00  0.00     0.195 C 
BRANCH  14  15
HETATM   15  C           1     -29.070  -7.861 -17.483  0.00  0.00     0.149 C 
BRANCH  15  16
HETATM   16  C           1     -30.435  -7.484 -18.002  0.00  0.00     0.175 C 
HETATM   17  O           1     -31.081  -6.566 -17.452  0.00  0.00    -0.648 OA
HETATM   18  O           1     -30.921  -8.091 -18.981  0.00  0.00    -0.648 OA
ENDBRANCH  15  16
ENDBRANCH  14  15
BRANCH  14  19
HETATM   19  C           1     -28.309  -6.518 -15.547  0.00  0.00     0.197 C 
HETATM   20  O           1     -27.871  -7.472 -14.869  0.00  0.00    -0.646 OA
HETATM   21  O           1     -28.735  -5.490 -14.976  0.00  0.00    -0.646 OA
ENDBRANCH  14  19
ENDBRANCH   3  14
TORSDOF 8
ENDMDL
MODEL 7
REMARK VINA RESULT:      -5.8     10.285     12.135
REMARK  8 active torsions:
REMARK  status: ('A' for Active; 'I' for Inactive)
REMARK    1  A    between atoms: C_1  and  C_19 
REMARK    2  A    between atoms: C_1  and  C_2 
REMARK    3  A    between atoms: C_1  and  N_10 
REMARK    4  A    between atoms: C_2  and  C_3 
REMARK    5  A    between atoms: C_5  and  C_7 
REMARK    6  A    between atoms: C_7  and  C_12 
REMARK    7  A    between atoms: C_8  and  C_12 
REMARK    8  A    between atoms: C_12  and  N_18 
REMARK       I    between atoms: N_18  and  C_19 
ROOT
HETATM    1  O           1     -28.044  -5.451 -19.105  0.00  0.00    -0.271 OA
HETATM    2  H           1     -25.538  -7.180 -18.349  0.00  0.00     0.163 HD
HETATM    3  N           1     -26.355  -6.600 -18.203  0.00  0.00    -0.344 N 
HETATM    4  C           1     -27.069  -6.143 -19.279  0.00  0.00     0.249 C 
ENDROOT
BRANCH   4   5
HETATM    5  C           1     -26.638  -6.503 -20.679  0.00  0.00     0.284 C 
BRANCH   5   6
HETATM    6  C           1     -26.200  -7.961 -20.717  0.00  0.00     0.155 C 
BRANCH   6   7
HETATM    7  C           1     -24.795  -8.050 -21.260  0.00  0.00     0.175 C 
HETATM    8  O           1     -24.603  -8.102 -22.494  0.00  0.00    -0.648 OA
HETATM    9  O           1     -23.822  -8.071 -20.476  0.00  0.00    -0.648 OA
ENDBRANCH   6   7
ENDBRANCH   5   6
BRANCH   5  10
HETATM   10  N           1     -25.492  -5.626 -21.090  0.00  0.00    -0.066 N 
HETATM   11  H           1     -25.861  -4.755 -21.534  0.00  0.00     0.275 HD
HETATM   12  H           1     -24.929  -5.374 -20.247  0.00  0.00     0.275 HD
HETATM   13  H           1     -24.890  -6.139 -21.773  0.00  0.00     0.275 HD
ENDBRANCH   5  10
ENDBRANCH   4   5
BRANCH   3  14
HETATM   14  C           1     -26.769  -6.255 -16.857  0.00  0.00     0.195 C 
BRANCH  14  15
HETATM   15  C           1     -27.941  -7.136 -16.445  0.00  0.00     0.149 C 
BRANCH  15  16
HETATM   16  C           1     -29.080  -6.268 -15.973  0.00  0.00     0.175 C 
HETATM   17  O           1     -28.907  -5.467 -15.029  0.00  0.00    -0.648 OA
HETATM   18  O           1     -30.199  -6.350 -16.526  0.00  0.00    -0.648 OA
ENDBRANCH  15  16
ENDBRANCH  14  15
BRANCH  14  19
HETATM   19  C           1     -25.616  -6.472 -15.908  0.00  0.00     0.197 C 
HETATM   20  O           1     -24.972  -5.494 -15.471  0.00  0.00    -0.646 OA
HETATM   21  O           1     -25.306  -7.631 -15.556  0.00  0.00    -0.646 OA
ENDBRANCH  14  19
ENDBRANCH   3  14
TORSDOF 8
ENDMDL
MODEL 8
REMARK VINA RESULT:      -5.7     11.656     13.781
REMARK  8 active torsions:
REMARK  status: ('A' for Active; 'I' for Inactive)
REMARK    1  A    between atoms: C_1  and  C_19 
REMARK    2  A    between atoms: C_1  and  C_2 
REMARK    3  A    between atoms: C_1  and  N_10 
REMARK    4  A    between atoms: C_2  and  C_3 
REMARK    5  A    between atoms: C_5  and  C_7 
REMARK    6  A    between atoms: C_7  and  C_12 
REMARK    7  A    between atoms: C_8  and  C_12 
REMARK    8  A    between atoms: C_12  and  N_18 
REMARK       I    between atoms: N_18  and  C_19 
ROOT
HETATM    1  O           1     -20.431  -3.647  -9.869  0.00  0.00    -0.271 OA
HETATM    2  H           1     -22.816  -5.385  -8.804  0.00  0.00     0.163 HD
HETATM    3  N           1     -22.344  -4.677  -9.353  0.00  0.00    -0.344 N 
HETATM    4  C           1     -20.994  -4.492  -9.215  0.00  0.00     0.249 C 
ENDROOT
BRANCH   4   5
HETATM    5  C           1     -20.210  -5.343  -8.246  0.00  0.00     0.284 C 
BRANCH   5   6
HETATM    6  C           1     -21.165  -5.990  -7.251  0.00  0.00     0.155 C 
BRANCH   6   7
HETATM    7  C           1     -20.407  -6.376  -6.004  0.00  0.00     0.175 C 
HETATM    8  O           1     -19.657  -7.377  -6.013  0.00  0.00    -0.648 OA
HETATM    9  O           1     -20.528  -5.695  -4.964  0.00  0.00    -0.648 OA
ENDBRANCH   6   7
ENDBRANCH   5   6
BRANCH   5  10
HETATM   10  N           1     -19.228  -4.483  -7.508  0.00  0.00    -0.066 N 
HETATM   11  H           1     -18.433  -5.072  -7.171  0.00  0.00     0.275 HD
HETATM   12  H           1     -18.864  -3.743  -8.150  0.00  0.00     0.275 HD
HETATM   13  H           1     -19.702  -4.036  -6.691  0.00  0.00     0.275 HD
ENDBRANCH   5  10
ENDBRANCH   4   5
BRANCH   3  14
HETATM   14  C           1     -23.097  -3.860 -10.284  0.00  0.00     0.195 C 
BRANCH  14  15
HETATM   15  C           1     -23.027  -4.478 -11.673  0.00  0.00     0.149 C 
BRANCH  15  16
HETATM   16  C           1     -23.507  -3.477 -12.694  0.00  0.00     0.175 C 
HETATM   17  O           1     -23.089  -2.299 -12.660  0.00  0.00    -0.648 OA
HETATM   18  O           1     -24.323  -3.824 -13.575  0.00  0.00    -0.648 OA
ENDBRANCH  15  16
ENDBRANCH  14  15
BRANCH  14  19
HETATM   19  C           1     -24.537  -3.788  -9.836  0.00  0.00     0.197 C 
HETATM   20  O           1     -25.202  -4.836  -9.693  0.00  0.00    -0.646 OA
HETATM   21  O           1     -25.065  -2.678  -9.608  0.00  0.00    -0.646 OA
ENDBRANCH  14  19
ENDBRANCH   3  14
TORSDOF 8
ENDMDL
MODEL 9
REMARK VINA RESULT:      -5.6      9.038     11.352
REMARK  8 active torsions:
REMARK  status: ('A' for Active; 'I' for Inactive)
REMARK    1  A    between atoms: C_1  and  C_19 
REMARK    2  A    between atoms: C_1  and  C_2 
REMARK    3  A    between atoms: C_1  and  N_10 
REMARK    4  A    between atoms: C_2  and  C_3 
REMARK    5  A    between atoms: C_5  and  C_7 
REMARK    6  A    between atoms: C_7  and  C_12 
REMARK    7  A    between atoms: C_8  and  C_12 
REMARK    8  A    between atoms: C_12  and  N_18 
REMARK       I    between atoms: N_18  and  C_19 
ROOT
HETATM    1  O           1     -29.623  -8.169 -18.259  0.00  0.00    -0.271 OA
HETATM    2  H           1     -28.598  -5.213 -18.489  0.00  0.00     0.163 HD
HETATM    3  N           1     -28.555  -6.224 -18.510  0.00  0.00    -0.344 N 
HETATM    4  C           1     -29.675  -6.962 -18.234  0.00  0.00     0.249 C 
ENDROOT
BRANCH   4   5
HETATM    5  C           1     -30.973  -6.270 -17.899  0.00  0.00     0.284 C 
BRANCH   5   6
HETATM    6  C           1     -30.727  -5.226 -16.817  0.00  0.00     0.155 C 
BRANCH   6   7
HETATM    7  C           1     -31.747  -4.121 -16.942  0.00  0.00     0.175 C 
HETATM    8  O           1     -32.889  -4.267 -16.456  0.00  0.00    -0.648 OA
HETATM    9  O           1     -31.449  -3.060 -17.531  0.00  0.00    -0.648 OA
ENDBRANCH   6   7
ENDBRANCH   5   6
BRANCH   5  10
HETATM   10  N           1     -31.964  -7.280 -17.402  0.00  0.00    -0.066 N 
HETATM   11  H           1     -32.310  -6.994 -16.458  0.00  0.00     0.275 HD
HETATM   12  H           1     -32.769  -7.331 -18.066  0.00  0.00     0.275 HD
HETATM   13  H           1     -31.504  -8.216 -17.338  0.00  0.00     0.275 HD
ENDBRANCH   5  10
ENDBRANCH   4   5
BRANCH   3  14
HETATM   14  C           1     -27.308  -6.889 -18.833  0.00  0.00     0.195 C 
BRANCH  14  15
HETATM   15  C           1     -26.947  -6.614 -20.286  0.00  0.00     0.149 C 
BRANCH  15  16
HETATM   16  C           1     -26.571  -7.908 -20.964  0.00  0.00     0.175 C 
HETATM   17  O           1     -25.367  -8.220 -21.091  0.00  0.00    -0.648 OA
HETATM   18  O           1     -27.463  -8.668 -21.400  0.00  0.00    -0.648 OA
ENDBRANCH  15  16
ENDBRANCH  14  15
BRANCH  14  19
HETATM   19  C           1     -26.214  -6.366 -17.934  0.00  0.00     0.197 C 
HETATM   20  O           1     -26.504  -5.710 -16.911  0.00  0.00    -0.646 OA
HETATM   21  O           1     -25.016  -6.590 -18.213  0.00  0.00    -0.646 OA
ENDBRANCH  14  19
ENDBRANCH   3  14
TORSDOF 8
ENDMDL
