MODEL 1
REMARK VINA RESULT:      -5.9      0.000      0.000
REMARK  9 active torsions:
REMARK  status: ('A' for Active; 'I' for Inactive)
REMARK    1  A    between atoms: N_3  and  C_7 
REMARK    2  A    between atoms: Se_5  and  C_19 
REMARK    3  A    between atoms: C_7  and  C_8 
REMARK    4  A    between atoms: C_7  and  C_20 
REMARK       I    between atoms: C_8  and  N_9 
REMARK    5  A    between atoms: N_9  and  C_13 
REMARK    6  A    between atoms: C_12  and  C_13 
REMARK    7  A    between atoms: C_13  and  C_14 
REMARK    8  A    between atoms: C_14  and  O_15 
REMARK    9  A    between atoms: C_19  and  C_20 
ROOT
HETATM    1  H           1     -34.010  -0.540 -14.287  0.00  0.00     0.163 HD
HETATM    2  O           1     -36.636  -1.140 -12.680  0.00  0.00    -0.271 OA
HETATM    3  C           1     -35.451  -1.085 -12.905  0.00  0.00     0.249 C 
HETATM    4  N           1     -35.003  -0.587 -14.099  0.00  0.00    -0.343 N 
ENDROOT
BRANCH   3   5
HETATM    5  C           1     -34.463  -1.566 -11.870  0.00  0.00     0.274 C 
BRANCH   5   6
HETATM    6  N           1     -35.107  -1.540 -10.515  0.00  0.00    -0.067 N 
HETATM    7  H           1     -36.126  -1.755 -10.608  0.00  0.00     0.275 HD
HETATM    8  H           1     -34.654  -2.253  -9.901  0.00  0.00     0.275 HD
HETATM    9  H           1     -34.990  -0.591 -10.093  0.00  0.00     0.275 HD
ENDBRANCH   5   6
BRANCH   5  10
HETATM   10  C           1     -34.033  -2.989 -12.200  0.00  0.00     0.042 C 
BRANCH  10  11
HETATM   11  C           1     -33.350  -3.607 -10.987  0.00  0.00     0.003 C 
BRANCH  11  12
HETATM   12 Se           1     -34.091  -5.378 -10.655  0.00  0.00     0.000 Se
HETATM   13  C           1     -34.903  -5.549 -12.419  0.00  0.00     0.000 C 
ENDBRANCH  11  12
ENDBRANCH  10  11
ENDBRANCH   5  10
ENDBRANCH   3   5
BRANCH   4  14
HETATM   14  C           1     -35.952  -0.125 -15.092  0.00  0.00     0.209 C 
BRANCH  14  15
HETATM   15  C           1     -35.797  -0.940 -16.353  0.00  0.00     0.198 C 
HETATM   16  O           1     -36.678  -0.895 -17.239  0.00  0.00    -0.646 OA
HETATM   17  O           1     -34.787  -1.659 -16.511  0.00  0.00    -0.646 OA
ENDBRANCH  14  15
BRANCH  14  18
HETATM   18  C           1     -35.689   1.344 -15.401  0.00  0.00     0.200 C 
BRANCH  18  19
HETATM   19  O           1     -36.764   1.868 -16.132  0.00  0.00    -0.398 OA
HETATM   20  H           1     -36.397   2.409 -16.810  0.00  0.00     0.209 HD
ENDBRANCH  18  19
ENDBRANCH  14  18
ENDBRANCH   4  14
TORSDOF 9
ENDMDL
MODEL 2
REMARK VINA RESULT:      -5.3     13.372     14.995
REMARK  9 active torsions:
REMARK  status: ('A' for Active; 'I' for Inactive)
REMARK    1  A    between atoms: N_3  and  C_7 
REMARK    2  A    between atoms: Se_5  and  C_19 
REMARK    3  A    between atoms: C_7  and  C_8 
REMARK    4  A    between atoms: C_7  and  C_20 
REMARK       I    between atoms: C_8  and  N_9 
REMARK    5  A    between atoms: N_9  and  C_13 
REMARK    6  A    between atoms: C_12  and  C_13 
REMARK    7  A    between atoms: C_13  and  C_14 
REMARK    8  A    between atoms: C_14  and  O_15 
REMARK    9  A    between atoms: C_19  and  C_20 
ROOT
HETATM    1  H           1     -21.432  -5.734  -9.744  0.00  0.00     0.163 HD
HETATM    2  O           1     -21.902  -3.661  -7.436  0.00  0.00    -0.271 OA
HETATM    3  C           1     -21.619  -4.716  -7.951  0.00  0.00     0.249 C 
HETATM    4  N           1     -21.670  -4.850  -9.313  0.00  0.00    -0.343 N 
ENDROOT
BRANCH   3   5
HETATM    5  C           1     -21.208  -5.888  -7.093  0.00  0.00     0.274 C 
BRANCH   5   6
HETATM    6  N           1     -19.770  -6.224  -7.361  0.00  0.00    -0.067 N 
HETATM    7  H           1     -19.309  -5.423  -7.850  0.00  0.00     0.275 HD
HETATM    8  H           1     -19.282  -6.408  -6.457  0.00  0.00     0.275 HD
HETATM    9  H           1     -19.719  -7.075  -7.965  0.00  0.00     0.275 HD
ENDBRANCH   5   6
BRANCH   5  10
HETATM   10  C           1     -21.379  -5.527  -5.624  0.00  0.00     0.042 C 
BRANCH  10  11
HETATM   11  C           1     -22.210  -6.600  -4.931  0.00  0.00     0.003 C 
BRANCH  11  12
HETATM   12 Se           1     -21.222  -7.303  -3.406  0.00  0.00     0.000 Se
HETATM   13  C           1     -22.144  -6.199  -2.090  0.00  0.00     0.000 C 
ENDBRANCH  11  12
ENDBRANCH  10  11
ENDBRANCH   5  10
ENDBRANCH   3   5
BRANCH   4  14
HETATM   14  C           1     -22.065  -3.723 -10.136  0.00  0.00     0.209 C 
BRANCH  14  15
HETATM   15  C           1     -23.449  -3.964 -10.687  0.00  0.00     0.198 C 
HETATM   16  O           1     -23.846  -5.131 -10.894  0.00  0.00    -0.646 OA
HETATM   17  O           1     -24.199  -2.995 -10.937  0.00  0.00    -0.646 OA
ENDBRANCH  14  15
BRANCH  14  18
HETATM   18  C           1     -21.079  -3.568 -11.288  0.00  0.00     0.200 C 
BRANCH  18  19
HETATM   19  O           1     -21.729  -3.840 -12.500  0.00  0.00    -0.398 OA
HETATM   20  H           1     -22.496  -3.294 -12.528  0.00  0.00     0.209 HD
ENDBRANCH  18  19
ENDBRANCH  14  18
ENDBRANCH   4  14
TORSDOF 9
ENDMDL
MODEL 3
REMARK VINA RESULT:      -5.3     10.353     11.378
REMARK  9 active torsions:
REMARK  status: ('A' for Active; 'I' for Inactive)
REMARK    1  A    between atoms: N_3  and  C_7 
REMARK    2  A    between atoms: Se_5  and  C_19 
REMARK    3  A    between atoms: C_7  and  C_8 
REMARK    4  A    between atoms: C_7  and  C_20 
REMARK       I    between atoms: C_8  and  N_9 
REMARK    5  A    between atoms: N_9  and  C_13 
REMARK    6  A    between atoms: C_12  and  C_13 
REMARK    7  A    between atoms: C_13  and  C_14 
REMARK    8  A    between atoms: C_14  and  O_15 
REMARK    9  A    between atoms: C_19  and  C_20 
ROOT
HETATM    1  H           1     -27.495  -6.207 -17.969  0.00  0.00     0.163 HD
HETATM    2  O           1     -26.455  -7.468 -15.290  0.00  0.00    -0.271 OA
HETATM    3  C           1     -26.396  -6.974 -16.391  0.00  0.00     0.249 C 
HETATM    4  N           1     -27.545  -6.622 -17.047  0.00  0.00    -0.343 N 
ENDROOT
BRANCH   3   5
HETATM    5  C           1     -25.055  -6.744 -17.043  0.00  0.00     0.274 C 
BRANCH   5   6
HETATM    6  N           1     -24.127  -7.868 -16.687  0.00  0.00    -0.067 N 
HETATM    7  H           1     -23.544  -7.593 -15.864  0.00  0.00     0.275 HD
HETATM    8  H           1     -24.685  -8.718 -16.450  0.00  0.00     0.275 HD
HETATM    9  H           1     -23.504  -8.075 -17.500  0.00  0.00     0.275 HD
ENDBRANCH   5   6
BRANCH   5  10
HETATM   10  C           1     -25.226  -6.688 -18.555  0.00  0.00     0.042 C 
BRANCH  10  11
HETATM   11  C           1     -23.994  -7.277 -19.229  0.00  0.00     0.003 C 
BRANCH  11  12
HETATM   12 Se           1     -24.458  -7.878 -21.023  0.00  0.00     0.000 Se
HETATM   13  C           1     -22.673  -8.542 -21.440  0.00  0.00     0.000 C 
ENDBRANCH  11  12
ENDBRANCH  10  11
ENDBRANCH   5  10
ENDBRANCH   3   5
BRANCH   4  14
HETATM   14  C           1     -28.833  -6.843 -16.420  0.00  0.00     0.209 C 
BRANCH  14  15
HETATM   15  C           1     -29.932  -6.582 -17.421  0.00  0.00     0.198 C 
HETATM   16  O           1     -30.976  -7.269 -17.397  0.00  0.00    -0.646 OA
HETATM   17  O           1     -29.797  -5.678 -18.274  0.00  0.00    -0.646 OA
ENDBRANCH  14  15
BRANCH  14  18
HETATM   18  C           1     -28.990  -5.898 -15.236  0.00  0.00     0.200 C 
BRANCH  18  19
HETATM   19  O           1     -30.248  -5.282 -15.291  0.00  0.00    -0.398 OA
HETATM   20  H           1     -30.112  -4.366 -15.120  0.00  0.00     0.209 HD
ENDBRANCH  18  19
ENDBRANCH  14  18
ENDBRANCH   4  14
TORSDOF 9
ENDMDL
MODEL 4
REMARK VINA RESULT:      -5.2     11.342     12.527
REMARK  9 active torsions:
REMARK  status: ('A' for Active; 'I' for Inactive)
REMARK    1  A    between atoms: N_3  and  C_7 
REMARK    2  A    between atoms: Se_5  and  C_19 
REMARK    3  A    between atoms: C_7  and  C_8 
REMARK    4  A    between atoms: C_7  and  C_20 
REMARK       I    between atoms: C_8  and  N_9 
REMARK    5  A    between atoms: N_9  and  C_13 
REMARK    6  A    between atoms: C_12  and  C_13 
REMARK    7  A    between atoms: C_13  and  C_14 
REMARK    8  A    between atoms: C_14  and  O_15 
REMARK    9  A    between atoms: C_19  and  C_20 
ROOT
HETATM    1  H           1     -26.391  -7.096 -17.055  0.00  0.00     0.163 HD
HETATM    2  O           1     -27.508  -5.844 -19.706  0.00  0.00    -0.271 OA
HETATM    3  C           1     -26.705  -6.355 -18.962  0.00  0.00     0.249 C 
HETATM    4  N           1     -27.063  -6.667 -17.678  0.00  0.00    -0.343 N 
ENDROOT
BRANCH   3   5
HETATM    5  C           1     -25.307  -6.651 -19.448  0.00  0.00     0.274 C 
BRANCH   5   6
HETATM    6  N           1     -24.559  -7.406 -18.389  0.00  0.00    -0.067 N 
HETATM    7  H           1     -23.717  -7.858 -18.811  0.00  0.00     0.275 HD
HETATM    8  H           1     -24.260  -6.745 -17.637  0.00  0.00     0.275 HD
HETATM    9  H           1     -25.181  -8.140 -17.981  0.00  0.00     0.275 HD
ENDBRANCH   5   6
BRANCH   5  10
HETATM   10  C           1     -25.377  -7.491 -20.716  0.00  0.00     0.042 C 
BRANCH  10  11
HETATM   11  C           1     -24.031  -8.163 -20.955  0.00  0.00     0.003 C 
BRANCH  11  12
HETATM   12 Se           1     -23.538  -7.986 -22.832  0.00  0.00     0.000 Se
HETATM   13  C           1     -21.946  -9.102 -22.689  0.00  0.00     0.000 C 
ENDBRANCH  11  12
ENDBRANCH  10  11
ENDBRANCH   5  10
ENDBRANCH   3   5
BRANCH   4  14
HETATM   14  C           1     -28.407  -6.382 -17.212  0.00  0.00     0.209 C 
BRANCH  14  15
HETATM   15  C           1     -28.450  -6.487 -15.707  0.00  0.00     0.198 C 
HETATM   16  O           1     -29.108  -5.659 -15.041  0.00  0.00    -0.646 OA
HETATM   17  O           1     -27.827  -7.404 -15.127  0.00  0.00    -0.646 OA
ENDBRANCH  14  15
BRANCH  14  18
HETATM   18  C           1     -29.377  -7.387 -17.819  0.00  0.00     0.200 C 
BRANCH  18  19
HETATM   19  O           1     -29.239  -8.623 -17.171  0.00  0.00    -0.398 OA
HETATM   20  H           1     -29.812  -8.606 -16.424  0.00  0.00     0.209 HD
ENDBRANCH  18  19
ENDBRANCH  14  18
ENDBRANCH   4  14
TORSDOF 9
ENDMDL
MODEL 5
REMARK VINA RESULT:      -5.1     12.970     14.587
REMARK  9 active torsions:
REMARK  status: ('A' for Active; 'I' for Inactive)
REMARK    1  A    between atoms: N_3  and  C_7 
REMARK    2  A    between atoms: Se_5  and  C_19 
REMARK    3  A    between atoms: C_7  and  C_8 
REMARK    4  A    between atoms: C_7  and  C_20 
REMARK       I    between atoms: C_8  and  N_9 
REMARK    5  A    between atoms: N_9  and  C_13 
REMARK    6  A    between atoms: C_12  and  C_13 
REMARK    7  A    between atoms: C_13  and  C_14 
REMARK    8  A    between atoms: C_14  and  O_15 
REMARK    9  A    between atoms: C_19  and  C_20 
ROOT
HETATM    1  H           1     -22.854  -3.595  -8.802  0.00  0.00     0.163 HD
HETATM    2  O           1     -20.211  -4.723 -10.061  0.00  0.00    -0.271 OA
HETATM    3  C           1     -20.931  -4.233  -9.223  0.00  0.00     0.249 C 
HETATM    4  N           1     -22.251  -4.004  -9.504  0.00  0.00    -0.343 N 
ENDROOT
BRANCH   3   5
HETATM    5  C           1     -20.374  -3.873  -7.868  0.00  0.00     0.274 C 
BRANCH   5   6
HETATM    6  N           1     -21.454  -3.249  -7.034  0.00  0.00    -0.067 N 
HETATM    7  H           1     -22.132  -3.984  -6.732  0.00  0.00     0.275 HD
HETATM    8  H           1     -21.028  -2.800  -6.193  0.00  0.00     0.275 HD
HETATM    9  H           1     -21.955  -2.526  -7.599  0.00  0.00     0.275 HD
ENDBRANCH   5   6
BRANCH   5  10
HETATM   10  C           1     -19.863  -5.131  -7.177  0.00  0.00     0.042 C 
BRANCH  10  11
HETATM   11  C           1     -21.039  -6.037  -6.836  0.00  0.00     0.003 C 
BRANCH  11  12
HETATM   12 Se           1     -21.123  -6.297  -4.907  0.00  0.00     0.000 Se
HETATM   13  C           1     -21.222  -8.242  -5.009  0.00  0.00     0.000 C 
ENDBRANCH  11  12
ENDBRANCH  10  11
ENDBRANCH   5  10
ENDBRANCH   3   5
BRANCH   4  14
HETATM   14  C           1     -22.784  -4.351 -10.807  0.00  0.00     0.209 C 
BRANCH  14  15
HETATM   15  C           1     -23.157  -3.091 -11.549  0.00  0.00     0.198 C 
HETATM   16  O           1     -22.263  -2.333 -11.984  0.00  0.00    -0.646 OA
HETATM   17  O           1     -24.361  -2.804 -11.728  0.00  0.00    -0.646 OA
ENDBRANCH  14  15
BRANCH  14  18
HETATM   18  C           1     -24.022  -5.222 -10.632  0.00  0.00     0.200 C 
BRANCH  18  19
HETATM   19  O           1     -24.882  -4.633  -9.695  0.00  0.00    -0.398 OA
HETATM   20  H           1     -25.284  -3.894 -10.119  0.00  0.00     0.209 HD
ENDBRANCH  18  19
ENDBRANCH  14  18
ENDBRANCH   4  14
TORSDOF 9
ENDMDL
MODEL 6
REMARK VINA RESULT:      -5.1      3.219      3.993
REMARK  9 active torsions:
REMARK  status: ('A' for Active; 'I' for Inactive)
REMARK    1  A    between atoms: N_3  and  C_7 
REMARK    2  A    between atoms: Se_5  and  C_19 
REMARK    3  A    between atoms: C_7  and  C_8 
REMARK    4  A    between atoms: C_7  and  C_20 
REMARK       I    between atoms: C_8  and  N_9 
REMARK    5  A    between atoms: N_9  and  C_13 
REMARK    6  A    between atoms: C_12  and  C_13 
REMARK    7  A    between atoms: C_13  and  C_14 
REMARK    8  A    between atoms: C_14  and  O_15 
REMARK    9  A    between atoms: C_19  and  C_20 
ROOT
HETATM    1  H           1     -37.039   0.281 -12.813  0.00  0.00     0.163 HD
HETATM    2  O           1     -35.163  -2.213 -13.138  0.00  0.00    -0.271 OA
HETATM    3  C           1     -35.828  -1.379 -12.569  0.00  0.00     0.249 C 
HETATM    4  N           1     -36.482  -0.417 -13.290  0.00  0.00    -0.343 N 
ENDROOT
BRANCH   3   5
HETATM    5  C           1     -35.936  -1.399 -11.064  0.00  0.00     0.274 C 
BRANCH   5   6
HETATM    6  N           1     -34.561  -1.411 -10.464  0.00  0.00    -0.067 N 
HETATM    7  H           1     -34.046  -0.550 -10.755  0.00  0.00     0.275 HD
HETATM    8  H           1     -34.636  -1.438  -9.423  0.00  0.00     0.275 HD
HETATM    9  H           1     -34.043  -2.255 -10.799  0.00  0.00     0.275 HD
ENDBRANCH   5   6
BRANCH   5  10
HETATM   10  C           1     -36.685  -0.160 -10.591  0.00  0.00     0.042 C 
BRANCH  10  11
HETATM   11  C           1     -36.958  -0.271  -9.097  0.00  0.00     0.003 C 
BRANCH  11  12
HETATM   12 Se           1     -37.666   1.421  -8.438  0.00  0.00     0.000 Se
HETATM   13  C           1     -37.187   1.085  -6.578  0.00  0.00     0.000 C 
ENDBRANCH  11  12
ENDBRANCH  10  11
ENDBRANCH   5  10
ENDBRANCH   3   5
BRANCH   4  14
HETATM   14  C           1     -36.377  -0.398 -14.736  0.00  0.00     0.209 C 
BRANCH  14  15
HETATM   15  C           1     -35.470   0.730 -15.160  0.00  0.00     0.198 C 
HETATM   16  O           1     -35.902   1.631 -15.912  0.00  0.00    -0.646 OA
HETATM   17  O           1     -34.286   0.764 -14.759  0.00  0.00    -0.646 OA
ENDBRANCH  14  15
BRANCH  14  18
HETATM   18  C           1     -37.760  -0.193 -15.342  0.00  0.00     0.200 C 
BRANCH  18  19
HETATM   19  O           1     -37.745  -0.587 -16.687  0.00  0.00    -0.398 OA
HETATM   20  H           1     -38.010   0.161 -17.194  0.00  0.00     0.209 HD
ENDBRANCH  18  19
ENDBRANCH  14  18
ENDBRANCH   4  14
TORSDOF 9
ENDMDL
MODEL 7
REMARK VINA RESULT:      -5.0      1.678      2.121
REMARK  9 active torsions:
REMARK  status: ('A' for Active; 'I' for Inactive)
REMARK    1  A    between atoms: N_3  and  C_7 
REMARK    2  A    between atoms: Se_5  and  C_19 
REMARK    3  A    between atoms: C_7  and  C_8 
REMARK    4  A    between atoms: C_7  and  C_20 
REMARK       I    between atoms: C_8  and  N_9 
REMARK    5  A    between atoms: N_9  and  C_13 
REMARK    6  A    between atoms: C_12  and  C_13 
REMARK    7  A    between atoms: C_13  and  C_14 
REMARK    8  A    between atoms: C_14  and  O_15 
REMARK    9  A    between atoms: C_19  and  C_20 
ROOT
HETATM    1  H           1     -36.666  -0.049 -12.396  0.00  0.00     0.163 HD
HETATM    2  O           1     -34.791  -2.333 -13.450  0.00  0.00    -0.271 OA
HETATM    3  C           1     -35.405  -1.671 -12.648  0.00  0.00     0.249 C 
HETATM    4  N           1     -36.151  -0.603 -13.068  0.00  0.00    -0.343 N 
ENDROOT
BRANCH   3   5
HETATM    5  C           1     -35.349  -2.022 -11.181  0.00  0.00     0.274 C 
BRANCH   5   6
HETATM    6  N           1     -36.547  -1.446 -10.484  0.00  0.00    -0.067 N 
HETATM    7  H           1     -37.349  -2.112 -10.558  0.00  0.00     0.275 HD
HETATM    8  H           1     -36.319  -1.285  -9.477  0.00  0.00     0.275 HD
HETATM    9  H           1     -36.806  -0.538 -10.932  0.00  0.00     0.275 HD
ENDBRANCH   5   6
BRANCH   5  10
HETATM   10  C           1     -35.348  -3.536 -11.019  0.00  0.00     0.042 C 
BRANCH  10  11
HETATM   11  C           1     -34.007  -3.986 -10.454  0.00  0.00     0.003 C 
BRANCH  11  12
HETATM   12 Se           1     -33.536  -5.723 -11.200  0.00  0.00     0.000 Se
HETATM   13  C           1     -34.732  -6.731 -10.037  0.00  0.00     0.000 C 
ENDBRANCH  11  12
ENDBRANCH  10  11
ENDBRANCH   5  10
ENDBRANCH   3   5
BRANCH   4  14
HETATM   14  C           1     -36.204  -0.267 -14.478  0.00  0.00     0.209 C 
BRANCH  14  15
HETATM   15  C           1     -35.417   0.996 -14.723  0.00  0.00     0.198 C 
HETATM   16  O           1     -35.713   1.741 -15.683  0.00  0.00    -0.646 OA
HETATM   17  O           1     -34.468   1.298 -13.967  0.00  0.00    -0.646 OA
ENDBRANCH  14  15
BRANCH  14  18
HETATM   18  C           1     -37.654  -0.051 -14.893  0.00  0.00     0.200 C 
BRANCH  18  19
HETATM   19  O           1     -37.753  -0.102 -16.291  0.00  0.00    -0.398 OA
HETATM   20  H           1     -38.176  -0.916 -16.506  0.00  0.00     0.209 HD
ENDBRANCH  18  19
ENDBRANCH  14  18
ENDBRANCH   4  14
TORSDOF 9
ENDMDL
MODEL 8
REMARK VINA RESULT:      -4.8     11.709     13.014
REMARK  9 active torsions:
REMARK  status: ('A' for Active; 'I' for Inactive)
REMARK    1  A    between atoms: N_3  and  C_7 
REMARK    2  A    between atoms: Se_5  and  C_19 
REMARK    3  A    between atoms: C_7  and  C_8 
REMARK    4  A    between atoms: C_7  and  C_20 
REMARK       I    between atoms: C_8  and  N_9 
REMARK    5  A    between atoms: N_9  and  C_13 
REMARK    6  A    between atoms: C_12  and  C_13 
REMARK    7  A    between atoms: C_13  and  C_14 
REMARK    8  A    between atoms: C_14  and  O_15 
REMARK    9  A    between atoms: C_19  and  C_20 
ROOT
HETATM    1  H           1     -25.357  -7.192 -18.323  0.00  0.00     0.163 HD
HETATM    2  O           1     -27.945  -5.585 -19.076  0.00  0.00    -0.271 OA
HETATM    3  C           1     -26.937  -6.227 -19.250  0.00  0.00     0.249 C 
HETATM    4  N           1     -26.201  -6.653 -18.177  0.00  0.00    -0.343 N 
ENDROOT
BRANCH   3   5
HETATM    5  C           1     -26.488  -6.560 -20.652  0.00  0.00     0.274 C 
BRANCH   5   6
HETATM    6  N           1     -25.487  -5.541 -21.112  0.00  0.00    -0.067 N 
HETATM    7  H           1     -24.531  -5.961 -21.102  0.00  0.00     0.275 HD
HETATM    8  H           1     -25.724  -5.234 -22.082  0.00  0.00     0.275 HD
HETATM    9  H           1     -25.512  -4.716 -20.470  0.00  0.00     0.275 HD
ENDBRANCH   5   6
BRANCH   5  10
HETATM   10  C           1     -25.847  -7.942 -20.667  0.00  0.00     0.042 C 
BRANCH  10  11
HETATM   11  C           1     -24.331  -7.800 -20.660  0.00  0.00     0.003 C 
BRANCH  11  12
HETATM   12 Se           1     -23.634  -8.179 -22.440  0.00  0.00     0.000 Se
HETATM   13  C           1     -21.957  -8.941 -21.799  0.00  0.00     0.000 C 
ENDBRANCH  11  12
ENDBRANCH  10  11
ENDBRANCH   5  10
ENDBRANCH   3   5
BRANCH   4  14
HETATM   14  C           1     -26.633  -6.333 -16.831  0.00  0.00     0.209 C 
BRANCH  14  15
HETATM   15  C           1     -25.480  -6.518 -15.875  0.00  0.00     0.198 C 
HETATM   16  O           1     -25.083  -5.557 -15.180  0.00  0.00    -0.646 OA
HETATM   17  O           1     -24.922  -7.633 -15.778  0.00  0.00    -0.646 OA
ENDBRANCH  14  15
BRANCH  14  18
HETATM   18  C           1     -27.777  -7.257 -16.431  0.00  0.00     0.200 C 
BRANCH  18  19
HETATM   19  O           1     -27.718  -7.507 -15.053  0.00  0.00    -0.398 OA
HETATM   20  H           1     -27.327  -6.749 -14.654  0.00  0.00     0.209 HD
ENDBRANCH  18  19
ENDBRANCH  14  18
ENDBRANCH   4  14
TORSDOF 9
ENDMDL
MODEL 9
REMARK VINA RESULT:      -4.7     14.511     16.677
REMARK  9 active torsions:
REMARK  status: ('A' for Active; 'I' for Inactive)
REMARK    1  A    between atoms: N_3  and  C_7 
REMARK    2  A    between atoms: Se_5  and  C_19 
REMARK    3  A    between atoms: C_7  and  C_8 
REMARK    4  A    between atoms: C_7  and  C_20 
REMARK       I    between atoms: C_8  and  N_9 
REMARK    5  A    between atoms: N_9  and  C_13 
REMARK    6  A    between atoms: C_12  and  C_13 
REMARK    7  A    between atoms: C_13  and  C_14 
REMARK    8  A    between atoms: C_14  and  O_15 
REMARK    9  A    between atoms: C_19  and  C_20 
ROOT
HETATM    1  H           1     -22.720  -6.184  -6.074  0.00  0.00     0.163 HD
HETATM    2  O           1     -20.206  -4.918  -7.460  0.00  0.00    -0.271 OA
HETATM    3  C           1     -21.365  -5.223  -7.309  0.00  0.00     0.249 C 
HETATM    4  N           1     -21.749  -5.929  -6.201  0.00  0.00    -0.343 N 
ENDROOT
BRANCH   3   5
HETATM    5  C           1     -22.390  -4.825  -8.342  0.00  0.00     0.274 C 
BRANCH   5   6
HETATM    6  N           1     -23.538  -4.133  -7.667  0.00  0.00    -0.067 N 
HETATM    7  H           1     -23.759  -4.619  -6.768  0.00  0.00     0.275 HD
HETATM    8  H           1     -23.279  -3.140  -7.472  0.00  0.00     0.275 HD
HETATM    9  H           1     -24.375  -4.160  -8.292  0.00  0.00     0.275 HD
ENDBRANCH   5   6
BRANCH   5  10
HETATM   10  C           1     -21.754  -3.882  -9.354  0.00  0.00     0.042 C 
BRANCH  10  11
HETATM   11  C           1     -22.150  -4.304 -10.762  0.00  0.00     0.003 C 
BRANCH  11  12
HETATM   12 Se           1     -23.730  -3.311 -11.320  0.00  0.00     0.000 Se
HETATM   13  C           1     -23.034  -2.872 -13.087  0.00  0.00     0.000 C 
ENDBRANCH  11  12
ENDBRANCH  10  11
ENDBRANCH   5  10
ENDBRANCH   3   5
BRANCH   4  14
HETATM   14  C           1     -20.763  -6.311  -5.208  0.00  0.00     0.209 C 
BRANCH  14  15
HETATM   15  C           1     -20.458  -7.783  -5.343  0.00  0.00     0.198 C 
HETATM   16  O           1     -21.241  -8.529  -5.969  0.00  0.00    -0.646 OA
HETATM   17  O           1     -19.420  -8.255  -4.829  0.00  0.00    -0.646 OA
ENDBRANCH  14  15
BRANCH  14  18
HETATM   18  C           1     -21.312  -6.032  -3.815  0.00  0.00     0.200 C 
BRANCH  18  19
HETATM   19  O           1     -21.671  -7.241  -3.202  0.00  0.00    -0.398 OA
HETATM   20  H           1     -21.103  -7.351  -2.459  0.00  0.00     0.209 HD
ENDBRANCH  18  19
ENDBRANCH  14  18
ENDBRANCH   4  14
TORSDOF 9
ENDMDL
