MODEL 1
REMARK VINA RESULT:      -7.0      0.000      0.000
REMARK  9 active torsions:
REMARK  status: ('A' for Active; 'I' for Inactive)
REMARK    1  A    between atoms: C_2  and  C_9 
REMARK    2  A    between atoms: N_3  and  C_9 
REMARK       I    between atoms: N_3  and  C_4 
REMARK    3  A    between atoms: C_4  and  C_10 
REMARK    4  A    between atoms: S_5  and  C_11 
REMARK    5  A    between atoms: N_6  and  C_10 
REMARK    6  A    between atoms: C_9  and  C_20 
REMARK    7  A    between atoms: C_10  and  C_11 
REMARK    8  A    between atoms: C_12  and  C_20 
REMARK    9  A    between atoms: O_14  and  C_15 
ROOT
HETATM    1  C           1     -36.106  -0.893 -11.847  0.00  0.00     0.189 C 
ENDROOT
BRANCH   1   2
HETATM    2  C           1     -36.886  -0.133 -10.804  0.00  0.00     0.197 C 
HETATM    3  O           1     -36.346   0.802 -10.177  0.00  0.00    -0.646 OA
HETATM    4  O           1     -38.075  -0.441 -10.566  0.00  0.00    -0.646 OA
ENDBRANCH   1   2
BRANCH   1   5
HETATM    5  N           1     -36.057  -0.120 -13.072  0.00  0.00    -0.344 N 
HETATM    6  C           1     -37.076  -0.216 -13.983  0.00  0.00     0.249 C 
HETATM    7  O           1     -38.013  -0.945 -13.765  0.00  0.00    -0.271 OA
HETATM    8  H           1     -35.271   0.491 -13.255  0.00  0.00     0.163 HD
BRANCH   6   9
HETATM    9  C           1     -37.026   0.589 -15.258  0.00  0.00     0.283 C 
BRANCH   9  10
HETATM   10  N           1     -35.761   1.396 -15.290  0.00  0.00    -0.066 N 
HETATM   11  H           1     -35.003   0.840 -15.746  0.00  0.00     0.275 HD
HETATM   12  H           1     -35.922   2.275 -15.832  0.00  0.00     0.275 HD
HETATM   13  H           1     -35.477   1.636 -14.313  0.00  0.00     0.275 HD
ENDBRANCH   9  10
BRANCH   9  14
HETATM   14  C           1     -37.057  -0.352 -16.455  0.00  0.00     0.113 C 
BRANCH  14  15
HETATM   15  S           1     -35.509  -1.297 -16.523  0.00  0.00    -0.180 SA
HETATM   16  H           1     -34.982  -0.629 -17.566  0.00  0.00     0.101 HD
ENDBRANCH  14  15
ENDBRANCH   9  14
ENDBRANCH   6   9
ENDBRANCH   1   5
BRANCH   1  17
HETATM   17  C           1     -34.688  -1.136 -11.345  0.00  0.00     0.074 C 
BRANCH  17  18
HETATM   18  C           1     -34.436  -2.610 -11.254  0.00  0.00    -0.056 A 
HETATM   19  C           1     -33.172  -3.120 -11.550  0.00  0.00     0.010 A 
HETATM   20  C           1     -32.937  -4.492 -11.465  0.00  0.00     0.037 A 
HETATM   21  C           1     -33.966  -5.354 -11.085  0.00  0.00     0.065 A 
HETATM   22  C           1     -35.230  -4.843 -10.789  0.00  0.00     0.037 A 
HETATM   23  C           1     -35.465  -3.471 -10.874  0.00  0.00     0.010 A 
BRANCH  21  24
HETATM   24  O           1     -33.737  -6.687 -11.003  0.00  0.00    -0.361 OA
HETATM   25  H           1     -33.681  -7.038 -11.908  0.00  0.00     0.217 HD
ENDBRANCH  21  24
ENDBRANCH  17  18
ENDBRANCH   1  17
TORSDOF 9
ENDMDL
MODEL 2
REMARK VINA RESULT:      -6.7      3.610      6.232
REMARK  9 active torsions:
REMARK  status: ('A' for Active; 'I' for Inactive)
REMARK    1  A    between atoms: C_2  and  C_9 
REMARK    2  A    between atoms: N_3  and  C_9 
REMARK       I    between atoms: N_3  and  C_4 
REMARK    3  A    between atoms: C_4  and  C_10 
REMARK    4  A    between atoms: S_5  and  C_11 
REMARK    5  A    between atoms: N_6  and  C_10 
REMARK    6  A    between atoms: C_9  and  C_20 
REMARK    7  A    between atoms: C_10  and  C_11 
REMARK    8  A    between atoms: C_12  and  C_20 
REMARK    9  A    between atoms: O_14  and  C_15 
ROOT
HETATM    1  C           1     -35.639  -1.636 -11.022  0.00  0.00     0.189 C 
ENDROOT
BRANCH   1   2
HETATM    2  C           1     -35.233  -3.070 -10.789  0.00  0.00     0.197 C 
HETATM    3  O           1     -34.044  -3.349 -10.528  0.00  0.00    -0.646 OA
HETATM    4  O           1     -36.089  -3.980 -10.860  0.00  0.00    -0.646 OA
ENDBRANCH   1   2
BRANCH   1   5
HETATM    5  N           1     -35.605  -0.915  -9.765  0.00  0.00    -0.344 N 
HETATM    6  C           1     -36.734  -0.292  -9.302  0.00  0.00     0.249 C 
HETATM    7  O           1     -37.756  -0.343  -9.942  0.00  0.00    -0.271 OA
HETATM    8  H           1     -34.747  -0.872  -9.228  0.00  0.00     0.163 HD
BRANCH   6   9
HETATM    9  C           1     -36.699   0.458  -7.993  0.00  0.00     0.283 C 
BRANCH   9  10
HETATM   10  N           1     -37.014   1.904  -8.238  0.00  0.00    -0.066 N 
HETATM   11  H           1     -36.798   2.145  -9.232  0.00  0.00     0.275 HD
HETATM   12  H           1     -38.027   2.077  -8.051  0.00  0.00     0.275 HD
HETATM   13  H           1     -36.434   2.499  -7.603  0.00  0.00     0.275 HD
ENDBRANCH   9  10
BRANCH   9  14
HETATM   14  C           1     -37.732  -0.132  -7.042  0.00  0.00     0.113 C 
BRANCH  14  15
HETATM   15  S           1     -37.489   0.556  -5.381  0.00  0.00    -0.180 SA
HETATM   16  H           1     -36.162   0.746  -5.501  0.00  0.00     0.101 HD
ENDBRANCH  14  15
ENDBRANCH   9  14
ENDBRANCH   6   9
ENDBRANCH   1   5
BRANCH   1  17
HETATM   17  C           1     -34.672  -0.986 -12.004  0.00  0.00     0.074 C 
BRANCH  17  18
HETATM   18  C           1     -35.445  -0.335 -13.109  0.00  0.00    -0.056 A 
HETATM   19  C           1     -34.803   0.537 -13.989  0.00  0.00     0.010 A 
HETATM   20  C           1     -35.523   1.143 -15.018  0.00  0.00     0.037 A 
HETATM   21  C           1     -36.885   0.879 -15.166  0.00  0.00     0.065 A 
HETATM   22  C           1     -37.526   0.007 -14.286  0.00  0.00     0.037 A 
HETATM   23  C           1     -36.806  -0.599 -13.257  0.00  0.00     0.010 A 
BRANCH  21  24
HETATM   24  O           1     -37.584   1.469 -16.167  0.00  0.00    -0.361 OA
HETATM   25  H           1     -38.497   1.597 -15.858  0.00  0.00     0.217 HD
ENDBRANCH  21  24
ENDBRANCH  17  18
ENDBRANCH   1  17
TORSDOF 9
ENDMDL
MODEL 3
REMARK VINA RESULT:      -6.4     13.968     16.883
REMARK  9 active torsions:
REMARK  status: ('A' for Active; 'I' for Inactive)
REMARK    1  A    between atoms: C_2  and  C_9 
REMARK    2  A    between atoms: N_3  and  C_9 
REMARK       I    between atoms: N_3  and  C_4 
REMARK    3  A    between atoms: C_4  and  C_10 
REMARK    4  A    between atoms: S_5  and  C_11 
REMARK    5  A    between atoms: N_6  and  C_10 
REMARK    6  A    between atoms: C_9  and  C_20 
REMARK    7  A    between atoms: C_10  and  C_11 
REMARK    8  A    between atoms: C_12  and  C_20 
REMARK    9  A    between atoms: O_14  and  C_15 
ROOT
HETATM    1  C           1     -21.022  -5.246  -6.615  0.00  0.00     0.189 C 
ENDROOT
BRANCH   1   2
HETATM    2  C           1     -19.633  -5.528  -7.132  0.00  0.00     0.197 C 
HETATM    3  O           1     -19.297  -6.698  -7.413  0.00  0.00    -0.646 OA
HETATM    4  O           1     -18.818  -4.591  -7.278  0.00  0.00    -0.646 OA
ENDBRANCH   1   2
BRANCH   1   5
HETATM    5  N           1     -20.997  -5.199  -5.166  0.00  0.00    -0.344 N 
HETATM    6  C           1     -21.311  -6.317  -4.440  0.00  0.00     0.249 C 
HETATM    7  O           1     -21.607  -7.341  -5.006  0.00  0.00    -0.271 OA
HETATM    8  H           1     -20.749  -4.340  -4.691  0.00  0.00     0.163 HD
BRANCH   6   9
HETATM    9  C           1     -21.285  -6.268  -2.932  0.00  0.00     0.283 C 
BRANCH   9  10
HETATM   10  N           1     -22.634  -5.854  -2.422  0.00  0.00    -0.066 N 
HETATM   11  H           1     -22.672  -5.988  -1.387  0.00  0.00     0.275 HD
HETATM   12  H           1     -22.797  -4.847  -2.649  0.00  0.00     0.275 HD
HETATM   13  H           1     -23.372  -6.439  -2.876  0.00  0.00     0.275 HD
ENDBRANCH   9  10
BRANCH   9  14
HETATM   14  C           1     -20.938  -7.648  -2.385  0.00  0.00     0.113 C 
BRANCH  14  15
HETATM   15  S           1     -21.722  -7.871  -0.764  0.00  0.00    -0.180 SA
HETATM   16  H           1     -20.595  -8.209  -0.109  0.00  0.00     0.101 HD
ENDBRANCH  14  15
ENDBRANCH   9  14
ENDBRANCH   6   9
ENDBRANCH   1   5
BRANCH   1  17
HETATM   17  C           1     -21.504  -3.906  -7.157  0.00  0.00     0.074 C 
BRANCH  17  18
HETATM   18  C           1     -22.066  -4.096  -8.532  0.00  0.00    -0.056 A 
HETATM   19  C           1     -21.219  -4.076  -9.640  0.00  0.00     0.010 A 
HETATM   20  C           1     -21.743  -4.253 -10.920  0.00  0.00     0.037 A 
HETATM   21  C           1     -23.113  -4.449 -11.092  0.00  0.00     0.065 A 
HETATM   22  C           1     -23.960  -4.469  -9.984  0.00  0.00     0.037 A 
HETATM   23  C           1     -23.436  -4.293  -8.703  0.00  0.00     0.010 A 
BRANCH  21  24
HETATM   24  O           1     -23.622  -4.621 -12.337  0.00  0.00    -0.361 OA
HETATM   25  H           1     -24.536  -4.940 -12.246  0.00  0.00     0.217 HD
ENDBRANCH  21  24
ENDBRANCH  17  18
ENDBRANCH   1  17
TORSDOF 9
ENDMDL
MODEL 4
REMARK VINA RESULT:      -6.2      2.677      5.580
REMARK  9 active torsions:
REMARK  status: ('A' for Active; 'I' for Inactive)
REMARK    1  A    between atoms: C_2  and  C_9 
REMARK    2  A    between atoms: N_3  and  C_9 
REMARK       I    between atoms: N_3  and  C_4 
REMARK    3  A    between atoms: C_4  and  C_10 
REMARK    4  A    between atoms: S_5  and  C_11 
REMARK    5  A    between atoms: N_6  and  C_10 
REMARK    6  A    between atoms: C_9  and  C_20 
REMARK    7  A    between atoms: C_10  and  C_11 
REMARK    8  A    between atoms: C_12  and  C_20 
REMARK    9  A    between atoms: O_14  and  C_15 
ROOT
HETATM    1  C           1     -36.264  -0.664 -10.414  0.00  0.00     0.189 C 
ENDROOT
BRANCH   1   2
HETATM    2  C           1     -36.590  -0.263  -8.997  0.00  0.00     0.197 C 
HETATM    3  O           1     -37.767  -0.334  -8.582  0.00  0.00    -0.646 OA
HETATM    4  O           1     -35.683   0.141  -8.238  0.00  0.00    -0.646 OA
ENDBRANCH   1   2
BRANCH   1   5
HETATM    5  N           1     -35.805  -2.039 -10.433  0.00  0.00    -0.344 N 
HETATM    6  C           1     -34.471  -2.313 -10.575  0.00  0.00     0.249 C 
HETATM    7  O           1     -33.678  -1.410 -10.685  0.00  0.00    -0.271 OA
HETATM    8  H           1     -36.470  -2.797 -10.341  0.00  0.00     0.163 HD
BRANCH   6   9
HETATM    9  C           1     -33.993  -3.745 -10.595  0.00  0.00     0.283 C 
BRANCH   9  10
HETATM   10  N           1     -35.172  -4.663 -10.721  0.00  0.00    -0.066 N 
HETATM   11  H           1     -35.801  -4.321 -11.483  0.00  0.00     0.275 HD
HETATM   12  H           1     -34.840  -5.627 -10.950  0.00  0.00     0.275 HD
HETATM   13  H           1     -35.698  -4.680  -9.817  0.00  0.00     0.275 HD
ENDBRANCH   9  10
BRANCH   9  14
HETATM   14  C           1     -33.059  -3.952 -11.780  0.00  0.00     0.113 C 
BRANCH  14  15
HETATM   15  S           1     -34.025  -3.972 -13.316  0.00  0.00    -0.180 SA
HETATM   16  H           1     -35.232  -3.992 -12.722  0.00  0.00     0.101 HD
ENDBRANCH  14  15
ENDBRANCH   9  14
ENDBRANCH   6   9
ENDBRANCH   1   5
BRANCH   1  17
HETATM   17  C           1     -37.511  -0.534 -11.280  0.00  0.00     0.074 C 
BRANCH  17  18
HETATM   18  C           1     -37.115  -0.153 -12.673  0.00  0.00    -0.056 A 
HETATM   19  C           1     -38.059  -0.186 -13.699  0.00  0.00     0.010 A 
HETATM   20  C           1     -37.690   0.170 -14.996  0.00  0.00     0.037 A 
HETATM   21  C           1     -36.377   0.556 -15.267  0.00  0.00     0.065 A 
HETATM   22  C           1     -35.434   0.589 -14.240  0.00  0.00     0.037 A 
HETATM   23  C           1     -35.803   0.234 -12.943  0.00  0.00     0.010 A 
BRANCH  21  24
HETATM   24  O           1     -36.019   0.901 -16.528  0.00  0.00    -0.361 OA
HETATM   25  H           1     -35.901   1.866 -16.552  0.00  0.00     0.217 HD
ENDBRANCH  21  24
ENDBRANCH  17  18
ENDBRANCH   1  17
TORSDOF 9
ENDMDL
MODEL 5
REMARK VINA RESULT:      -6.1     14.465     17.012
REMARK  9 active torsions:
REMARK  status: ('A' for Active; 'I' for Inactive)
REMARK    1  A    between atoms: C_2  and  C_9 
REMARK    2  A    between atoms: N_3  and  C_9 
REMARK       I    between atoms: N_3  and  C_4 
REMARK    3  A    between atoms: C_4  and  C_10 
REMARK    4  A    between atoms: S_5  and  C_11 
REMARK    5  A    between atoms: N_6  and  C_10 
REMARK    6  A    between atoms: C_9  and  C_20 
REMARK    7  A    between atoms: C_10  and  C_11 
REMARK    8  A    between atoms: C_12  and  C_20 
REMARK    9  A    between atoms: O_14  and  C_15 
ROOT
HETATM    1  C           1     -21.049  -5.404  -6.950  0.00  0.00     0.189 C 
ENDROOT
BRANCH   1   2
HETATM    2  C           1     -19.848  -4.711  -6.355  0.00  0.00     0.197 C 
HETATM    3  O           1     -19.889  -4.287  -5.181  0.00  0.00    -0.646 OA
HETATM    4  O           1     -18.812  -4.560  -7.040  0.00  0.00    -0.646 OA
ENDBRANCH   1   2
BRANCH   1   5
HETATM    5  N           1     -21.647  -6.272  -5.955  0.00  0.00    -0.344 N 
HETATM    6  C           1     -20.997  -7.410  -5.559  0.00  0.00     0.249 C 
HETATM    7  O           1     -19.926  -7.691  -6.040  0.00  0.00    -0.271 OA
HETATM    8  H           1     -22.546  -6.036  -5.551  0.00  0.00     0.163 HD
BRANCH   6   9
HETATM    9  C           1     -21.620  -8.313  -4.523  0.00  0.00     0.283 C 
BRANCH   9  10
HETATM   10  N           1     -21.356  -9.745  -4.885  0.00  0.00    -0.066 N 
HETATM   11  H           1     -20.396 -10.013  -4.572  0.00  0.00     0.275 HD
HETATM   12  H           1     -22.059 -10.359  -4.415  0.00  0.00     0.275 HD
HETATM   13  H           1     -21.428  -9.860  -5.922  0.00  0.00     0.275 HD
ENDBRANCH   9  10
BRANCH   9  14
HETATM   14  C           1     -21.012  -8.015  -3.158  0.00  0.00     0.113 C 
BRANCH  14  15
HETATM   15  S           1     -21.805  -6.544  -2.451  0.00  0.00    -0.180 SA
HETATM   16  H           1     -23.039  -7.075  -2.371  0.00  0.00     0.101 HD
ENDBRANCH  14  15
ENDBRANCH   9  14
ENDBRANCH   6   9
ENDBRANCH   1   5
BRANCH   1  17
HETATM   17  C           1     -22.069  -4.364  -7.394  0.00  0.00     0.074 C 
BRANCH  17  18
HETATM   18  C           1     -21.991  -4.189  -8.879  0.00  0.00    -0.056 A 
HETATM   19  C           1     -23.113  -3.765  -9.591  0.00  0.00     0.010 A 
HETATM   20  C           1     -23.040  -3.602 -10.974  0.00  0.00     0.037 A 
HETATM   21  C           1     -21.845  -3.864 -11.645  0.00  0.00     0.065 A 
HETATM   22  C           1     -20.723  -4.287 -10.932  0.00  0.00     0.037 A 
HETATM   23  C           1     -20.796  -4.450  -9.549  0.00  0.00     0.010 A 
BRANCH  21  24
HETATM   24  O           1     -21.774  -3.705 -12.990  0.00  0.00    -0.361 OA
HETATM   25  H           1     -21.504  -2.789 -13.170  0.00  0.00     0.217 HD
ENDBRANCH  21  24
ENDBRANCH  17  18
ENDBRANCH   1  17
TORSDOF 9
ENDMDL
MODEL 6
REMARK VINA RESULT:      -5.7     16.143     18.182
REMARK  9 active torsions:
REMARK  status: ('A' for Active; 'I' for Inactive)
REMARK    1  A    between atoms: C_2  and  C_9 
REMARK    2  A    between atoms: N_3  and  C_9 
REMARK       I    between atoms: N_3  and  C_4 
REMARK    3  A    between atoms: C_4  and  C_10 
REMARK    4  A    between atoms: S_5  and  C_11 
REMARK    5  A    between atoms: N_6  and  C_10 
REMARK    6  A    between atoms: C_9  and  C_20 
REMARK    7  A    between atoms: C_10  and  C_11 
REMARK    8  A    between atoms: C_12  and  C_20 
REMARK    9  A    between atoms: O_14  and  C_15 
ROOT
HETATM    1  C           1     -20.247  -8.056  -4.772  0.00  0.00     0.189 C 
ENDROOT
BRANCH   1   2
HETATM    2  C           1     -18.977  -8.853  -4.942  0.00  0.00     0.197 C 
HETATM    3  O           1     -18.339  -9.235  -3.939  0.00  0.00    -0.646 OA
HETATM    4  O           1     -18.563  -9.130  -6.090  0.00  0.00    -0.646 OA
ENDBRANCH   1   2
BRANCH   1   5
HETATM    5  N           1     -20.629  -7.478  -6.045  0.00  0.00    -0.344 N 
HETATM    6  C           1     -20.876  -6.134  -6.140  0.00  0.00     0.249 C 
HETATM    7  O           1     -20.775  -5.432  -5.163  0.00  0.00    -0.271 OA
HETATM    8  H           1     -20.713  -8.067  -6.864  0.00  0.00     0.163 HD
BRANCH   6   9
HETATM    9  C           1     -21.273  -5.532  -7.466  0.00  0.00     0.283 C 
BRANCH   9  10
HETATM   10  N           1     -22.287  -4.450  -7.239  0.00  0.00    -0.066 N 
HETATM   11  H           1     -22.124  -3.671  -7.916  0.00  0.00     0.275 HD
HETATM   12  H           1     -23.248  -4.838  -7.378  0.00  0.00     0.275 HD
HETATM   13  H           1     -22.195  -4.086  -6.262  0.00  0.00     0.275 HD
ENDBRANCH   9  10
BRANCH   9  14
HETATM   14  C           1     -20.044  -4.941  -8.144  0.00  0.00     0.113 C 
BRANCH  14  15
HETATM   15  S           1     -20.506  -4.288  -9.772  0.00  0.00    -0.180 SA
HETATM   16  H           1     -20.698  -5.486 -10.355  0.00  0.00     0.101 HD
ENDBRANCH  14  15
ENDBRANCH   9  14
ENDBRANCH   6   9
ENDBRANCH   1   5
BRANCH   1  17
HETATM   17  C           1     -21.359  -8.971  -4.276  0.00  0.00     0.074 C 
BRANCH  17  18
HETATM   18  C           1     -21.645  -8.677  -2.836  0.00  0.00    -0.056 A 
HETATM   19  C           1     -21.886  -9.723  -1.945  0.00  0.00     0.010 A 
HETATM   20  C           1     -22.152  -9.448  -0.604  0.00  0.00     0.037 A 
HETATM   21  C           1     -22.178  -8.128  -0.154  0.00  0.00     0.065 A 
HETATM   22  C           1     -21.936  -7.083  -1.045  0.00  0.00     0.037 A 
HETATM   23  C           1     -21.670  -7.357  -2.386  0.00  0.00     0.010 A 
BRANCH  21  24
HETATM   24  O           1     -22.437  -7.862   1.150  0.00  0.00    -0.361 OA
HETATM   25  H           1     -23.368  -7.591   1.221  0.00  0.00     0.217 HD
ENDBRANCH  21  24
ENDBRANCH  17  18
ENDBRANCH   1  17
TORSDOF 9
ENDMDL
MODEL 7
REMARK VINA RESULT:      -5.5     16.100     18.147
REMARK  9 active torsions:
REMARK  status: ('A' for Active; 'I' for Inactive)
REMARK    1  A    between atoms: C_2  and  C_9 
REMARK    2  A    between atoms: N_3  and  C_9 
REMARK       I    between atoms: N_3  and  C_4 
REMARK    3  A    between atoms: C_4  and  C_10 
REMARK    4  A    between atoms: S_5  and  C_11 
REMARK    5  A    between atoms: N_6  and  C_10 
REMARK    6  A    between atoms: C_9  and  C_20 
REMARK    7  A    between atoms: C_10  and  C_11 
REMARK    8  A    between atoms: C_12  and  C_20 
REMARK    9  A    between atoms: O_14  and  C_15 
ROOT
HETATM    1  C           1     -21.351  -7.071  -4.136  0.00  0.00     0.189 C 
ENDROOT
BRANCH   1   2
HETATM    2  C           1     -21.509  -6.795  -2.662  0.00  0.00     0.197 C 
HETATM    3  O           1     -22.325  -5.933  -2.272  0.00  0.00    -0.646 OA
HETATM    4  O           1     -20.823  -7.428  -1.831  0.00  0.00    -0.646 OA
ENDBRANCH   1   2
BRANCH   1   5
HETATM    5  N           1     -21.501  -8.492  -4.380  0.00  0.00    -0.344 N 
HETATM    6  C           1     -20.427  -9.233  -4.794  0.00  0.00     0.249 C 
HETATM    7  O           1     -19.354  -8.703  -4.957  0.00  0.00    -0.271 OA
HETATM    8  H           1     -22.400  -8.937  -4.244  0.00  0.00     0.163 HD
BRANCH   6   9
HETATM    9  C           1     -20.583 -10.713  -5.048  0.00  0.00     0.283 C 
BRANCH   9  10
HETATM   10  N           1     -21.200 -10.926  -6.399  0.00  0.00    -0.066 N 
HETATM   11  H           1     -21.817 -11.768  -6.372  0.00  0.00     0.275 HD
HETATM   12  H           1     -21.766 -10.087  -6.660  0.00  0.00     0.275 HD
HETATM   13  H           1     -20.444 -11.071  -7.107  0.00  0.00     0.275 HD
ENDBRANCH   9  10
BRANCH   9  14
HETATM   14  C           1     -19.216 -11.384  -5.002  0.00  0.00     0.113 C 
BRANCH  14  15
HETATM   15  S           1     -18.755 -11.933  -6.669  0.00  0.00    -0.180 SA
HETATM   16  H           1     -18.886 -13.250  -6.424  0.00  0.00     0.101 HD
ENDBRANCH  14  15
ENDBRANCH   9  14
ENDBRANCH   6   9
ENDBRANCH   1   5
BRANCH   1  17
HETATM   17  C           1     -22.414  -6.308  -4.915  0.00  0.00     0.074 C 
BRANCH  17  18
HETATM   18  C           1     -21.779  -5.611  -6.078  0.00  0.00    -0.056 A 
HETATM   19  C           1     -22.553  -4.810  -6.918  0.00  0.00     0.010 A 
HETATM   20  C           1     -21.962  -4.161  -8.001  0.00  0.00     0.037 A 
HETATM   21  C           1     -20.597  -4.314  -8.245  0.00  0.00     0.065 A 
HETATM   22  C           1     -19.824  -5.115  -7.405  0.00  0.00     0.037 A 
HETATM   23  C           1     -20.415  -5.764  -6.322  0.00  0.00     0.010 A 
BRANCH  21  24
HETATM   24  O           1     -20.022  -3.683  -9.299  0.00  0.00    -0.361 OA
HETATM   25  H           1     -19.750  -4.360  -9.941  0.00  0.00     0.217 HD
ENDBRANCH  21  24
ENDBRANCH  17  18
ENDBRANCH   1  17
TORSDOF 9
ENDMDL
MODEL 8
REMARK VINA RESULT:      -5.5     18.484     20.252
REMARK  9 active torsions:
REMARK  status: ('A' for Active; 'I' for Inactive)
REMARK    1  A    between atoms: C_2  and  C_9 
REMARK    2  A    between atoms: N_3  and  C_9 
REMARK       I    between atoms: N_3  and  C_4 
REMARK    3  A    between atoms: C_4  and  C_10 
REMARK    4  A    between atoms: S_5  and  C_11 
REMARK    5  A    between atoms: N_6  and  C_10 
REMARK    6  A    between atoms: C_9  and  C_20 
REMARK    7  A    between atoms: C_10  and  C_11 
REMARK    8  A    between atoms: C_12  and  C_20 
REMARK    9  A    between atoms: O_14  and  C_15 
ROOT
HETATM    1  C           1     -21.547  -8.059  -1.728  0.00  0.00     0.189 C 
ENDROOT
BRANCH   1   2
HETATM    2  C           1     -22.013  -6.675  -2.108  0.00  0.00     0.197 C 
HETATM    3  O           1     -22.009  -6.322  -3.306  0.00  0.00    -0.646 OA
HETATM    4  O           1     -22.402  -5.882  -1.223  0.00  0.00    -0.646 OA
ENDBRANCH   1   2
BRANCH   1   5
HETATM    5  N           1     -20.134  -8.191  -2.021  0.00  0.00    -0.344 N 
HETATM    6  C           1     -19.677  -9.279  -2.715  0.00  0.00     0.249 C 
HETATM    7  O           1     -20.452 -10.129  -3.081  0.00  0.00    -0.271 OA
HETATM    8  H           1     -19.484  -7.478  -1.713  0.00  0.00     0.163 HD
BRANCH   6   9
HETATM    9  C           1     -18.205  -9.416  -3.020  0.00  0.00     0.283 C 
BRANCH   9  10
HETATM   10  N           1     -17.640 -10.570  -2.246  0.00  0.00    -0.066 N 
HETATM   11  H           1     -18.074 -11.460  -2.579  0.00  0.00     0.275 HD
HETATM   12  H           1     -16.606 -10.612  -2.389  0.00  0.00     0.275 HD
HETATM   13  H           1     -17.848 -10.441  -1.229  0.00  0.00     0.275 HD
ENDBRANCH   9  10
BRANCH   9  14
HETATM   14  C           1     -18.017  -9.665  -4.511  0.00  0.00     0.113 C 
BRANCH  14  15
HETATM   15  S           1     -16.278 -10.059  -4.845  0.00  0.00    -0.180 SA
HETATM   16  H           1     -16.336 -11.330  -4.405  0.00  0.00     0.101 HD
ENDBRANCH  14  15
ENDBRANCH   9  14
ENDBRANCH   6   9
ENDBRANCH   1   5
BRANCH   1  17
HETATM   17  C           1     -21.779  -8.282  -0.239  0.00  0.00     0.074 C 
BRANCH  17  18
HETATM   18  C           1     -22.192  -9.703  -0.005  0.00  0.00    -0.056 A 
HETATM   19  C           1     -23.506 -10.097  -0.256  0.00  0.00     0.010 A 
HETATM   20  C           1     -23.890 -11.420  -0.037  0.00  0.00     0.037 A 
HETATM   21  C           1     -22.961 -12.347   0.433  0.00  0.00     0.065 A 
HETATM   22  C           1     -21.647 -11.952   0.683  0.00  0.00     0.037 A 
HETATM   23  C           1     -21.263 -10.630   0.465  0.00  0.00     0.010 A 
BRANCH  21  24
HETATM   24  O           1     -23.335 -13.633   0.645  0.00  0.00    -0.361 OA
HETATM   25  H           1     -22.558 -14.122   0.967  0.00  0.00     0.217 HD
ENDBRANCH  21  24
ENDBRANCH  17  18
ENDBRANCH   1  17
TORSDOF 9
ENDMDL
MODEL 9
REMARK VINA RESULT:      -5.5     18.311     19.597
REMARK  9 active torsions:
REMARK  status: ('A' for Active; 'I' for Inactive)
REMARK    1  A    between atoms: C_2  and  C_9 
REMARK    2  A    between atoms: N_3  and  C_9 
REMARK       I    between atoms: N_3  and  C_4 
REMARK    3  A    between atoms: C_4  and  C_10 
REMARK    4  A    between atoms: S_5  and  C_11 
REMARK    5  A    between atoms: N_6  and  C_10 
REMARK    6  A    between atoms: C_9  and  C_20 
REMARK    7  A    between atoms: C_10  and  C_11 
REMARK    8  A    between atoms: C_12  and  C_20 
REMARK    9  A    between atoms: O_14  and  C_15 
ROOT
HETATM    1  C           1     -21.727  -8.186  -1.842  0.00  0.00     0.189 C 
ENDROOT
BRANCH   1   2
HETATM    2  C           1     -22.176  -6.758  -1.657  0.00  0.00     0.197 C 
HETATM    3  O           1     -22.536  -6.357  -0.530  0.00  0.00    -0.646 OA
HETATM    4  O           1     -22.188  -5.975  -2.633  0.00  0.00    -0.646 OA
ENDBRANCH   1   2
BRANCH   1   5
HETATM    5  N           1     -20.734  -8.247  -2.896  0.00  0.00    -0.344 N 
HETATM    6  C           1     -20.867  -9.158  -3.911  0.00  0.00     0.249 C 
HETATM    7  O           1     -21.812  -9.910  -3.926  0.00  0.00    -0.271 OA
HETATM    8  H           1     -19.942  -7.617  -2.883  0.00  0.00     0.163 HD
BRANCH   6   9
HETATM    9  C           1     -19.833  -9.221  -5.008  0.00  0.00     0.283 C 
BRANCH   9  10
HETATM   10  N           1     -19.809  -7.916  -5.747  0.00  0.00    -0.066 N 
HETATM   11  H           1     -18.819  -7.636  -5.930  0.00  0.00     0.275 HD
HETATM   12  H           1     -20.314  -8.021  -6.656  0.00  0.00     0.275 HD
HETATM   13  H           1     -20.277  -7.180  -5.170  0.00  0.00     0.275 HD
ENDBRANCH   9  10
BRANCH   9  14
HETATM   14  C           1     -18.462  -9.485  -4.399  0.00  0.00     0.113 C 
BRANCH  14  15
HETATM   15  S           1     -17.304  -9.979  -5.706  0.00  0.00    -0.180 SA
HETATM   16  H           1     -17.677  -9.034  -6.588  0.00  0.00     0.101 HD
ENDBRANCH  14  15
ENDBRANCH   9  14
ENDBRANCH   6   9
ENDBRANCH   1   5
BRANCH   1  17
HETATM   17  C           1     -21.121  -8.702  -0.544  0.00  0.00     0.074 C 
BRANCH  17  18
HETATM   18  C           1     -21.776  -9.994  -0.165  0.00  0.00    -0.056 A 
HETATM   19  C           1     -23.139 -10.179  -0.394  0.00  0.00     0.010 A 
HETATM   20  C           1     -23.748 -11.382  -0.041  0.00  0.00     0.037 A 
HETATM   21  C           1     -22.994 -12.401   0.542  0.00  0.00     0.065 A 
HETATM   22  C           1     -21.631 -12.216   0.771  0.00  0.00     0.037 A 
HETATM   23  C           1     -21.022 -11.012   0.418  0.00  0.00     0.010 A 
BRANCH  21  24
HETATM   24  O           1     -23.587 -13.571   0.886  0.00  0.00    -0.361 OA
HETATM   25  H           1     -23.799 -13.533   1.834  0.00  0.00     0.217 HD
ENDBRANCH  21  24
ENDBRANCH  17  18
ENDBRANCH   1  17
TORSDOF 9
ENDMDL
