MODEL 1
REMARK VINA RESULT:      -6.4      0.000      0.000
REMARK  7 active torsions:
REMARK  status: ('A' for Active; 'I' for Inactive)
REMARK    1  A    between atoms: C_3  and  C_24 
REMARK    2  A    between atoms: C_8  and  C_9 
REMARK    3  A    between atoms: C_8  and  C_22 
REMARK    4  A    between atoms: C_9  and  C_18 
REMARK    5  A    between atoms: C_12  and  C_22 
REMARK    6  A    between atoms: N_17  and  C_18 
REMARK    7  A    between atoms: C_22  and  N_23 
REMARK       I    between atoms: N_23  and  C_24 
ROOT
HETATM    1  O           1     -36.294  -2.583 -11.200  0.00  0.00    -0.271 OA
HETATM    2  H           1     -33.620  -1.442 -12.378  0.00  0.00     0.163 HD
HETATM    3  N           1     -34.276  -2.138 -12.047  0.00  0.00    -0.345 N 
HETATM    4  C           1     -35.510  -1.754 -11.595  0.00  0.00     0.249 C 
ENDROOT
BRANCH   3   5
HETATM    5  C           1     -33.910  -3.540 -12.050  0.00  0.00     0.185 C 
BRANCH   5   6
HETATM    6  C           1     -34.479  -4.215 -10.809  0.00  0.00     0.038 C 
BRANCH   6   7
HETATM    7  C           1     -33.761  -5.539 -10.576  0.00  0.00     0.030 C 
BRANCH   7   8
HETATM    8  C           1     -34.759  -6.578 -10.084  0.00  0.00     0.230 C 
BRANCH   8   9
HETATM    9  N           1     -34.858  -7.690 -11.086  0.00  0.00    -0.079 N 
HETATM   10  H           1     -34.013  -8.299 -11.014  0.00  0.00     0.274 HD
HETATM   11  H           1     -34.919  -7.287 -12.048  0.00  0.00     0.274 HD
HETATM   12  H           1     -35.714  -8.259 -10.893  0.00  0.00     0.274 HD
ENDBRANCH   8   9
ENDBRANCH   7   8
ENDBRANCH   6   7
ENDBRANCH   5   6
BRANCH   5  13
HETATM   13  C           1     -34.469  -4.204 -13.284  0.00  0.00     0.196 C 
HETATM   14  O           1     -35.160  -5.240 -13.179  0.00  0.00    -0.646 OA
HETATM   15  O           1     -34.241  -3.718 -14.413  0.00  0.00    -0.646 OA
ENDBRANCH   5  13
ENDBRANCH   3   5
BRANCH   4  16
HETATM   16  C           1     -35.891  -0.293 -11.591  0.00  0.00     0.274 C 
HETATM   17  C           1     -37.228  -0.115 -12.298  0.00  0.00     0.042 C 
HETATM   18  C           1     -37.113  -0.605 -13.735  0.00  0.00     0.003 C 
HETATM   19 Se           1     -35.744   0.424 -14.667  0.00  0.00     0.000 Se
HETATM   20  C           1     -35.958  -0.516 -16.361  0.00  0.00     0.000 C 
HETATM   21  H           1     -34.759   0.162 -13.294  0.00  0.00     0.275 HD
HETATM   22  N           1     -34.837   0.500 -12.308  0.00  0.00    -0.067 N 
HETATM   23  H           1     -33.920   0.377 -11.823  0.00  0.00     0.275 HD
HETATM   24  H           1     -35.100   1.510 -12.306  0.00  0.00     0.275 HD
ENDBRANCH   4  16
TORSDOF 7
ENDMDL
MODEL 2
REMARK VINA RESULT:      -6.2      2.811      6.036
REMARK  7 active torsions:
REMARK  status: ('A' for Active; 'I' for Inactive)
REMARK    1  A    between atoms: C_3  and  C_24 
REMARK    2  A    between atoms: C_8  and  C_9 
REMARK    3  A    between atoms: C_8  and  C_22 
REMARK    4  A    between atoms: C_9  and  C_18 
REMARK    5  A    between atoms: C_12  and  C_22 
REMARK    6  A    between atoms: N_17  and  C_18 
REMARK    7  A    between atoms: C_22  and  N_23 
REMARK       I    between atoms: N_23  and  C_24 
ROOT
HETATM    1  O           1     -33.237  -2.572 -11.009  0.00  0.00    -0.271 OA
HETATM    2  H           1     -35.192  -2.146 -13.425  0.00  0.00     0.163 HD
HETATM    3  N           1     -34.753  -1.963 -12.532  0.00  0.00    -0.345 N 
HETATM    4  C           1     -33.762  -2.789 -12.075  0.00  0.00     0.249 C 
ENDROOT
BRANCH   3   5
HETATM    5  C           1     -35.174  -0.827 -11.735  0.00  0.00     0.185 C 
BRANCH   5   6
HETATM    6  C           1     -35.909   0.170 -12.622  0.00  0.00     0.038 C 
BRANCH   6   7
HETATM    7  C           1     -35.042   0.513 -13.828  0.00  0.00     0.030 C 
BRANCH   7   8
HETATM    8  C           1     -35.823   0.249 -15.107  0.00  0.00     0.230 C 
BRANCH   8   9
HETATM    9  N           1     -36.171   1.554 -15.760  0.00  0.00    -0.079 N 
HETATM   10  H           1     -35.821   2.342 -15.171  0.00  0.00     0.274 HD
HETATM   11  H           1     -37.209   1.627 -15.861  0.00  0.00     0.274 HD
HETATM   12  H           1     -35.726   1.601 -16.705  0.00  0.00     0.274 HD
ENDBRANCH   8   9
ENDBRANCH   7   8
ENDBRANCH   6   7
ENDBRANCH   5   6
BRANCH   5  13
HETATM   13  C           1     -36.094  -1.297 -10.636  0.00  0.00     0.196 C 
HETATM   14  O           1     -36.804  -2.311 -10.806  0.00  0.00    -0.646 OA
HETATM   15  O           1     -36.146  -0.672  -9.555  0.00  0.00    -0.646 OA
ENDBRANCH   5  13
ENDBRANCH   3   5
BRANCH   4  16
HETATM   16  C           1     -33.324  -3.972 -12.904  0.00  0.00     0.274 C 
HETATM   17  C           1     -34.528  -4.859 -13.198  0.00  0.00     0.042 C 
HETATM   18  C           1     -35.128  -5.352 -11.889  0.00  0.00     0.003 C 
HETATM   19 Se           1     -33.793  -6.375 -10.904  0.00  0.00     0.000 Se
HETATM   20  C           1     -34.965  -6.767  -9.397  0.00  0.00     0.000 C 
HETATM   21  H           1     -32.710  -5.097 -11.248  0.00  0.00     0.275 HD
HETATM   22  N           1     -32.296  -4.760 -12.146  0.00  0.00    -0.067 N 
HETATM   23  H           1     -31.471  -4.151 -11.945  0.00  0.00     0.275 HD
HETATM   24  H           1     -31.993  -5.579 -12.720  0.00  0.00     0.275 HD
ENDBRANCH   4  16
TORSDOF 7
ENDMDL
MODEL 3
REMARK VINA RESULT:      -6.2      2.736      5.804
REMARK  7 active torsions:
REMARK  status: ('A' for Active; 'I' for Inactive)
REMARK    1  A    between atoms: C_3  and  C_24 
REMARK    2  A    between atoms: C_8  and  C_9 
REMARK    3  A    between atoms: C_8  and  C_22 
REMARK    4  A    between atoms: C_9  and  C_18 
REMARK    5  A    between atoms: C_12  and  C_22 
REMARK    6  A    between atoms: N_17  and  C_18 
REMARK    7  A    between atoms: C_22  and  N_23 
REMARK       I    between atoms: N_23  and  C_24 
ROOT
HETATM    1  O           1     -33.620  -1.479 -10.498  0.00  0.00    -0.271 OA
HETATM    2  H           1     -36.363  -2.414 -11.699  0.00  0.00     0.163 HD
HETATM    3  N           1     -35.629  -1.772 -11.429  0.00  0.00    -0.345 N 
HETATM    4  C           1     -34.497  -2.245 -10.822  0.00  0.00     0.249 C 
ENDROOT
BRANCH   3   5
HETATM    5  C           1     -35.776  -0.353 -11.684  0.00  0.00     0.185 C 
BRANCH   5   6
HETATM    6  C           1     -36.214  -0.139 -13.127  0.00  0.00     0.038 C 
BRANCH   6   7
HETATM    7  C           1     -35.223   0.782 -13.828  0.00  0.00     0.030 C 
BRANCH   7   8
HETATM    8  C           1     -35.371   0.633 -15.336  0.00  0.00     0.230 C 
BRANCH   8   9
HETATM    9  N           1     -36.433   1.570 -15.829  0.00  0.00    -0.079 N 
HETATM   10  H           1     -36.252   1.806 -16.830  0.00  0.00     0.274 HD
HETATM   11  H           1     -36.421   2.443 -15.256  0.00  0.00     0.274 HD
HETATM   12  H           1     -37.369   1.112 -15.745  0.00  0.00     0.274 HD
ENDBRANCH   8   9
ENDBRANCH   7   8
ENDBRANCH   6   7
ENDBRANCH   5   6
BRANCH   5  13
HETATM   13  C           1     -36.814   0.220 -10.752  0.00  0.00     0.196 C 
HETATM   14  O           1     -37.999   0.338 -11.133  0.00  0.00    -0.646 OA
HETATM   15  O           1     -36.491   0.578  -9.598  0.00  0.00    -0.646 OA
ENDBRANCH   5  13
ENDBRANCH   3   5
BRANCH   4  16
HETATM   16  C           1     -34.344  -3.723 -10.556  0.00  0.00     0.274 C 
HETATM   17  C           1     -33.051  -4.221 -11.189  0.00  0.00     0.042 C 
HETATM   18  C           1     -33.094  -3.978 -12.691  0.00  0.00     0.003 C 
HETATM   19 Se           1     -34.605  -4.935 -13.464  0.00  0.00     0.000 Se
HETATM   20  C           1     -34.254  -4.348 -15.289  0.00  0.00     0.000 C 
HETATM   21  H           1     -35.536  -4.291 -12.182  0.00  0.00     0.275 HD
HETATM   22  N           1     -35.508  -4.460 -11.152  0.00  0.00    -0.067 N 
HETATM   23  H           1     -36.395  -4.117 -10.717  0.00  0.00     0.275 HD
HETATM   24  H           1     -35.403  -5.483 -10.968  0.00  0.00     0.275 HD
ENDBRANCH   4  16
TORSDOF 7
ENDMDL
MODEL 4
REMARK VINA RESULT:      -6.1     14.677     16.091
REMARK  7 active torsions:
REMARK  status: ('A' for Active; 'I' for Inactive)
REMARK    1  A    between atoms: C_3  and  C_24 
REMARK    2  A    between atoms: C_8  and  C_9 
REMARK    3  A    between atoms: C_8  and  C_22 
REMARK    4  A    between atoms: C_9  and  C_18 
REMARK    5  A    between atoms: C_12  and  C_22 
REMARK    6  A    between atoms: N_17  and  C_18 
REMARK    7  A    between atoms: C_22  and  N_23 
REMARK       I    between atoms: N_23  and  C_24 
ROOT
HETATM    1  O           1     -21.147  -6.689  -7.144  0.00  0.00    -0.271 OA
HETATM    2  H           1     -20.431  -5.053  -4.565  0.00  0.00     0.163 HD
HETATM    3  N           1     -20.770  -5.830  -5.118  0.00  0.00    -0.345 N 
HETATM    4  C           1     -20.742  -5.762  -6.484  0.00  0.00     0.249 C 
ENDROOT
BRANCH   3   5
HETATM    5  C           1     -21.287  -7.015  -4.462  0.00  0.00     0.185 C 
BRANCH   5   6
HETATM    6  C           1     -20.250  -8.129  -4.535  0.00  0.00     0.038 C 
BRANCH   6   7
HETATM    7  C           1     -20.903  -9.399  -5.066  0.00  0.00     0.030 C 
BRANCH   7   8
HETATM    8  C           1     -21.446 -10.216  -3.902  0.00  0.00     0.230 C 
BRANCH   8   9
HETATM    9  N           1     -20.466 -10.183  -2.767  0.00  0.00    -0.079 N 
HETATM   10  H           1     -20.504  -9.248  -2.302  0.00  0.00     0.274 HD
HETATM   11  H           1     -19.502 -10.352  -3.134  0.00  0.00     0.274 HD
HETATM   12  H           1     -20.710 -10.926  -2.074  0.00  0.00     0.274 HD
ENDBRANCH   8   9
ENDBRANCH   7   8
ENDBRANCH   6   7
ENDBRANCH   5   6
BRANCH   5  13
HETATM   13  C           1     -21.588  -6.701  -3.018  0.00  0.00     0.196 C 
HETATM   14  O           1     -20.880  -7.188  -2.111  0.00  0.00    -0.646 OA
HETATM   15  O           1     -22.546  -5.952  -2.727  0.00  0.00    -0.646 OA
ENDBRANCH   5  13
ENDBRANCH   3   5
BRANCH   4  16
HETATM   16  C           1     -20.204  -4.528  -7.167  0.00  0.00     0.274 C 
HETATM   17  C           1     -21.269  -3.438  -7.159  0.00  0.00     0.042 C 
HETATM   18  C           1     -22.505  -3.931  -7.901  0.00  0.00     0.003 C 
HETATM   19 Se           1     -22.031  -4.362  -9.742  0.00  0.00     0.000 Se
HETATM   20  C           1     -23.831  -4.911 -10.249  0.00  0.00     0.000 C 
HETATM   21  H           1     -20.688  -5.197  -9.091  0.00  0.00     0.275 HD
HETATM   22  N           1     -19.839  -4.860  -8.584  0.00  0.00    -0.067 N 
HETATM   23  H           1     -19.109  -5.607  -8.589  0.00  0.00     0.275 HD
HETATM   24  H           1     -19.467  -4.006  -9.057  0.00  0.00     0.275 HD
ENDBRANCH   4  16
TORSDOF 7
ENDMDL
MODEL 5
REMARK VINA RESULT:      -5.9     17.454     19.024
REMARK  7 active torsions:
REMARK  status: ('A' for Active; 'I' for Inactive)
REMARK    1  A    between atoms: C_3  and  C_24 
REMARK    2  A    between atoms: C_8  and  C_9 
REMARK    3  A    between atoms: C_8  and  C_22 
REMARK    4  A    between atoms: C_9  and  C_18 
REMARK    5  A    between atoms: C_12  and  C_22 
REMARK    6  A    between atoms: N_17  and  C_18 
REMARK    7  A    between atoms: C_22  and  N_23 
REMARK       I    between atoms: N_23  and  C_24 
ROOT
HETATM    1  O           1     -22.109 -10.341  -3.568  0.00  0.00    -0.271 OA
HETATM    2  H           1     -20.142  -7.934  -3.985  0.00  0.00     0.163 HD
HETATM    3  N           1     -20.887  -8.472  -3.562  0.00  0.00    -0.345 N 
HETATM    4  C           1     -21.219  -9.698  -4.072  0.00  0.00     0.249 C 
ENDROOT
BRANCH   3   5
HETATM    5  C           1     -21.603  -7.945  -2.418  0.00  0.00     0.185 C 
BRANCH   5   6
HETATM    6  C           1     -20.713  -8.019  -1.184  0.00  0.00     0.038 C 
BRANCH   6   7
HETATM    7  C           1     -21.362  -8.923  -0.143  0.00  0.00     0.030 C 
BRANCH   7   8
HETATM    8  C           1     -22.037  -8.069   0.922  0.00  0.00     0.230 C 
BRANCH   8   9
HETATM    9  N           1     -23.485  -7.890   0.575  0.00  0.00    -0.079 N 
HETATM   10  H           1     -23.672  -6.882   0.373  0.00  0.00     0.274 HD
HETATM   11  H           1     -24.076  -8.201   1.379  0.00  0.00     0.274 HD
HETATM   12  H           1     -23.716  -8.463  -0.268  0.00  0.00     0.274 HD
ENDBRANCH   8   9
ENDBRANCH   7   8
ENDBRANCH   6   7
ENDBRANCH   5   6
BRANCH   5  13
HETATM   13  C           1     -21.982  -6.508  -2.680  0.00  0.00     0.196 C 
HETATM   14  O           1     -21.857  -6.028  -3.827  0.00  0.00    -0.646 OA
HETATM   15  O           1     -22.422  -5.798  -1.750  0.00  0.00    -0.646 OA
ENDBRANCH   5  13
ENDBRANCH   3   5
BRANCH   4  16
HETATM   16  C           1     -20.474 -10.247  -5.264  0.00  0.00     0.274 C 
HETATM   17  C           1     -19.737 -11.518  -4.861  0.00  0.00     0.042 C 
HETATM   18  C           1     -18.748 -11.200  -3.747  0.00  0.00     0.003 C 
HETATM   19 Se           1     -17.463  -9.876  -4.374  0.00  0.00     0.000 Se
HETATM   20  C           1     -16.472  -9.804  -2.697  0.00  0.00     0.000 C 
HETATM   21  H           1     -18.807  -9.011  -4.981  0.00  0.00     0.275 HD
HETATM   22  N           1     -19.484  -9.227  -5.747  0.00  0.00    -0.067 N 
HETATM   23  H           1     -19.990  -8.356  -6.023  0.00  0.00     0.275 HD
HETATM   24  H           1     -18.968  -9.607  -6.572  0.00  0.00     0.275 HD
ENDBRANCH   4  16
TORSDOF 7
ENDMDL
MODEL 6
REMARK VINA RESULT:      -5.9     16.606     18.848
REMARK  7 active torsions:
REMARK  status: ('A' for Active; 'I' for Inactive)
REMARK    1  A    between atoms: C_3  and  C_24 
REMARK    2  A    between atoms: C_8  and  C_9 
REMARK    3  A    between atoms: C_8  and  C_22 
REMARK    4  A    between atoms: C_9  and  C_18 
REMARK    5  A    between atoms: C_12  and  C_22 
REMARK    6  A    between atoms: N_17  and  C_18 
REMARK    7  A    between atoms: C_22  and  N_23 
REMARK       I    between atoms: N_23  and  C_24 
ROOT
HETATM    1  O           1     -21.501 -10.892  -4.703  0.00  0.00    -0.271 OA
HETATM    2  H           1     -19.561  -8.653  -5.737  0.00  0.00     0.163 HD
HETATM    3  N           1     -20.365  -9.055  -5.271  0.00  0.00    -0.345 N 
HETATM    4  C           1     -20.540 -10.412  -5.257  0.00  0.00     0.249 C 
ENDROOT
BRANCH   3   5
HETATM    5  C           1     -21.333  -8.192  -4.622  0.00  0.00     0.185 C 
BRANCH   5   6
HETATM    6  C           1     -20.782  -7.733  -3.278  0.00  0.00     0.038 C 
BRANCH   6   7
HETATM    7  C           1     -21.690  -8.229  -2.160  0.00  0.00     0.030 C 
BRANCH   7   8
HETATM    8  C           1     -22.051  -7.067  -1.246  0.00  0.00     0.230 C 
BRANCH   8   9
HETATM    9  N           1     -22.358  -5.855  -2.075  0.00  0.00    -0.079 N 
HETATM   10  H           1     -21.504  -5.570  -2.604  0.00  0.00     0.274 HD
HETATM   11  H           1     -22.659  -5.073  -1.450  0.00  0.00     0.274 HD
HETATM   12  H           1     -23.127  -6.077  -2.747  0.00  0.00     0.274 HD
ENDBRANCH   8   9
ENDBRANCH   7   8
ENDBRANCH   6   7
ENDBRANCH   5   6
BRANCH   5  13
HETATM   13  C           1     -21.600  -6.991  -5.494  0.00  0.00     0.196 C 
HETATM   14  O           1     -22.379  -6.095  -5.102  0.00  0.00    -0.646 OA
HETATM   15  O           1     -21.043  -6.890  -6.608  0.00  0.00    -0.646 OA
ENDBRANCH   5  13
ENDBRANCH   3   5
BRANCH   4  16
HETATM   16  C           1     -19.533 -11.310  -5.934  0.00  0.00     0.274 C 
HETATM   17  C           1     -18.926 -12.257  -4.907  0.00  0.00     0.042 C 
HETATM   18  C           1     -18.234 -11.449  -3.818  0.00  0.00     0.003 C 
HETATM   19 Se           1     -16.824 -10.361  -4.610  0.00  0.00     0.000 Se
HETATM   20  C           1     -16.267  -9.562  -2.921  0.00  0.00     0.000 C 
HETATM   21  H           1     -17.974  -9.918  -5.795  0.00  0.00     0.275 HD
HETATM   22  N           1     -18.448 -10.472  -6.544  0.00  0.00    -0.067 N 
HETATM   23  H           1     -18.865  -9.823  -7.248  0.00  0.00     0.275 HD
HETATM   24  H           1     -17.751 -11.093  -7.012  0.00  0.00     0.275 HD
ENDBRANCH   4  16
TORSDOF 7
ENDMDL
MODEL 7
REMARK VINA RESULT:      -5.8      2.678      5.436
REMARK  7 active torsions:
REMARK  status: ('A' for Active; 'I' for Inactive)
REMARK    1  A    between atoms: C_3  and  C_24 
REMARK    2  A    between atoms: C_8  and  C_9 
REMARK    3  A    between atoms: C_8  and  C_22 
REMARK    4  A    between atoms: C_9  and  C_18 
REMARK    5  A    between atoms: C_12  and  C_22 
REMARK    6  A    between atoms: N_17  and  C_18 
REMARK    7  A    between atoms: C_22  and  N_23 
REMARK       I    between atoms: N_23  and  C_24 
ROOT
HETATM    1  O           1     -35.830  -2.758 -11.750  0.00  0.00    -0.271 OA
HETATM    2  H           1     -33.855  -0.931 -13.364  0.00  0.00     0.163 HD
HETATM    3  N           1     -34.735  -1.359 -13.102  0.00  0.00    -0.345 N 
HETATM    4  C           1     -34.781  -2.247 -12.062  0.00  0.00     0.249 C 
ENDROOT
BRANCH   3   5
HETATM    5  C           1     -35.945  -1.032 -13.831  0.00  0.00     0.185 C 
BRANCH   5   6
HETATM    6  C           1     -36.600   0.192 -13.203  0.00  0.00     0.038 C 
BRANCH   6   7
HETATM    7  C           1     -37.967  -0.190 -12.650  0.00  0.00     0.030 C 
BRANCH   7   8
HETATM    8  C           1     -37.954  -0.067 -11.133  0.00  0.00     0.230 C 
BRANCH   8   9
HETATM    9  N           1     -36.581   0.327 -10.674  0.00  0.00    -0.079 N 
HETATM   10  H           1     -36.483   0.123  -9.655  0.00  0.00     0.274 HD
HETATM   11  H           1     -36.438   1.349 -10.842  0.00  0.00     0.274 HD
HETATM   12  H           1     -35.865  -0.216 -11.209  0.00  0.00     0.274 HD
ENDBRANCH   8   9
ENDBRANCH   7   8
ENDBRANCH   6   7
ENDBRANCH   5   6
BRANCH   5  13
HETATM   13  C           1     -35.601  -0.737 -15.270  0.00  0.00     0.196 C 
HETATM   14  O           1     -35.159  -1.646 -16.006  0.00  0.00    -0.646 OA
HETATM   15  O           1     -35.759   0.416 -15.727  0.00  0.00    -0.646 OA
ENDBRANCH   5  13
ENDBRANCH   3   5
BRANCH   4  16
HETATM   16  C           1     -33.521  -2.587 -11.304  0.00  0.00     0.274 C 
HETATM   17  C           1     -32.750  -3.662 -12.058  0.00  0.00     0.042 C 
HETATM   18  C           1     -33.614  -4.909 -12.192  0.00  0.00     0.003 C 
HETATM   19 Se           1     -34.082  -5.570 -10.419  0.00  0.00     0.000 Se
HETATM   20  C           1     -35.125  -7.079 -11.078  0.00  0.00     0.000 C 
HETATM   21  H           1     -34.475  -3.951 -10.032  0.00  0.00     0.275 HD
HETATM   22  N           1     -33.882  -3.096  -9.939  0.00  0.00    -0.067 N 
HETATM   23  H           1     -34.411  -2.359  -9.422  0.00  0.00     0.275 HD
HETATM   24  H           1     -33.010  -3.332  -9.414  0.00  0.00     0.275 HD
ENDBRANCH   4  16
TORSDOF 7
ENDMDL
MODEL 8
REMARK VINA RESULT:      -5.8      2.762      5.919
REMARK  7 active torsions:
REMARK  status: ('A' for Active; 'I' for Inactive)
REMARK    1  A    between atoms: C_3  and  C_24 
REMARK    2  A    between atoms: C_8  and  C_9 
REMARK    3  A    between atoms: C_8  and  C_22 
REMARK    4  A    between atoms: C_9  and  C_18 
REMARK    5  A    between atoms: C_12  and  C_22 
REMARK    6  A    between atoms: N_17  and  C_18 
REMARK    7  A    between atoms: C_22  and  N_23 
REMARK       I    between atoms: N_23  and  C_24 
ROOT
HETATM    1  O           1     -36.059  -2.301 -11.910  0.00  0.00    -0.271 OA
HETATM    2  H           1     -33.847  -1.155 -13.817  0.00  0.00     0.163 HD
HETATM    3  N           1     -34.774  -1.421 -13.511  0.00  0.00    -0.345 N 
HETATM    4  C           1     -34.952  -1.983 -12.276  0.00  0.00     0.249 C 
ENDROOT
BRANCH   3   5
HETATM    5  C           1     -35.914  -1.207 -14.381  0.00  0.00     0.185 C 
BRANCH   5   6
HETATM    6  C           1     -36.349   0.251 -14.297  0.00  0.00     0.038 C 
BRANCH   6   7
HETATM    7  C           1     -35.126   1.153 -14.400  0.00  0.00     0.030 C 
BRANCH   7   8
HETATM    8  C           1     -35.414   2.291 -15.370  0.00  0.00     0.230 C 
BRANCH   8   9
HETATM    9  N           1     -36.628   1.958 -16.186  0.00  0.00    -0.079 N 
HETATM   10  H           1     -37.110   2.840 -16.468  0.00  0.00     0.274 HD
HETATM   11  H           1     -37.278   1.369 -15.618  0.00  0.00     0.274 HD
HETATM   12  H           1     -36.339   1.431 -17.041  0.00  0.00     0.274 HD
ENDBRANCH   8   9
ENDBRANCH   7   8
ENDBRANCH   6   7
ENDBRANCH   5   6
BRANCH   5  13
HETATM   13  C           1     -35.531  -1.538 -15.802  0.00  0.00     0.196 C 
HETATM   14  O           1     -34.707  -2.449 -16.032  0.00  0.00    -0.646 OA
HETATM   15  O           1     -36.038  -0.901 -16.750  0.00  0.00    -0.646 OA
ENDBRANCH   5  13
ENDBRANCH   3   5
BRANCH   4  16
HETATM   16  C           1     -33.766  -2.206 -11.370  0.00  0.00     0.274 C 
HETATM   17  C           1     -32.843  -3.248 -11.990  0.00  0.00     0.042 C 
HETATM   18  C           1     -33.601  -4.557 -12.165  0.00  0.00     0.003 C 
HETATM   19 Se           1     -34.220  -5.190 -10.428  0.00  0.00     0.000 Se
HETATM   20  C           1     -35.078  -6.791 -11.134  0.00  0.00     0.000 C 
HETATM   21  H           1     -34.762  -3.591 -10.155  0.00  0.00     0.275 HD
HETATM   22  N           1     -34.242  -2.693 -10.033  0.00  0.00    -0.067 N 
HETATM   23  H           1     -34.875  -1.978  -9.609  0.00  0.00     0.275 HD
HETATM   24  H           1     -33.422  -2.848  -9.406  0.00  0.00     0.275 HD
ENDBRANCH   4  16
TORSDOF 7
ENDMDL
MODEL 9
REMARK VINA RESULT:      -5.7     18.123     20.329
REMARK  7 active torsions:
REMARK  status: ('A' for Active; 'I' for Inactive)
REMARK    1  A    between atoms: C_3  and  C_24 
REMARK    2  A    between atoms: C_8  and  C_9 
REMARK    3  A    between atoms: C_8  and  C_22 
REMARK    4  A    between atoms: C_9  and  C_18 
REMARK    5  A    between atoms: C_12  and  C_22 
REMARK    6  A    between atoms: N_17  and  C_18 
REMARK    7  A    between atoms: C_22  and  N_23 
REMARK       I    between atoms: N_23  and  C_24 
ROOT
HETATM    1  O           1     -18.957 -11.410  -3.523  0.00  0.00    -0.271 OA
HETATM    2  H           1     -18.839  -8.410  -2.612  0.00  0.00     0.163 HD
HETATM    3  N           1     -19.217  -9.244  -3.043  0.00  0.00    -0.345 N 
HETATM    4  C           1     -18.507 -10.414  -3.007  0.00  0.00     0.249 C 
ENDROOT
BRANCH   3   5
HETATM    5  C           1     -20.508  -9.200  -3.700  0.00  0.00     0.185 C 
BRANCH   5   6
HETATM    6  C           1     -21.583  -8.839  -2.683  0.00  0.00     0.038 C 
BRANCH   6   7
HETATM    7  C           1     -20.997  -7.899  -1.636  0.00  0.00     0.030 C 
BRANCH   7   8
HETATM    8  C           1     -22.070  -6.926  -1.170  0.00  0.00     0.230 C 
BRANCH   8   9
HETATM    9  N           1     -22.376  -5.953  -2.270  0.00  0.00    -0.079 N 
HETATM   10  H           1     -23.369  -6.070  -2.572  0.00  0.00     0.274 HD
HETATM   11  H           1     -21.741  -6.133  -3.080  0.00  0.00     0.274 HD
HETATM   12  H           1     -22.230  -4.978  -1.924  0.00  0.00     0.274 HD
ENDBRANCH   8   9
ENDBRANCH   7   8
ENDBRANCH   6   7
ENDBRANCH   5   6
BRANCH   5  13
HETATM   13  C           1     -20.480  -8.161  -4.794  0.00  0.00     0.196 C 
HETATM   14  O           1     -19.535  -8.139  -5.612  0.00  0.00    -0.646 OA
HETATM   15  O           1     -21.403  -7.322  -4.883  0.00  0.00    -0.646 OA
ENDBRANCH   5  13
ENDBRANCH   3   5
BRANCH   4  16
HETATM   16  C           1     -17.162 -10.460  -2.323  0.00  0.00     0.274 C 
HETATM   17  C           1     -16.209  -9.491  -3.011  0.00  0.00     0.042 C 
HETATM   18  C           1     -16.049  -9.888  -4.472  0.00  0.00     0.003 C 
HETATM   19 Se           1     -15.328 -11.695  -4.582  0.00  0.00     0.000 Se
HETATM   20  C           1     -15.304 -11.744  -6.530  0.00  0.00     0.000 C 
HETATM   21  H           1     -16.498 -12.123  -3.411  0.00  0.00     0.275 HD
HETATM   22  N           1     -16.607 -11.852  -2.408  0.00  0.00    -0.067 N 
HETATM   23  H           1     -17.261 -12.516  -1.935  0.00  0.00     0.275 HD
HETATM   24  H           1     -15.676 -11.884  -1.934  0.00  0.00     0.275 HD
ENDBRANCH   4  16
TORSDOF 7
ENDMDL
