MODEL 1
REMARK VINA RESULT:      -6.5      0.000      0.000
REMARK  5 active torsions:
REMARK  status: ('A' for Active; 'I' for Inactive)
REMARK    1  A    between atoms: C_3  and  C_18 
REMARK    2  A    between atoms: C_4  and  C_9 
REMARK    3  A    between atoms: C_4  and  C_17 
REMARK    4  A    between atoms: C_4  and  N_13 
REMARK    5  A    between atoms: C_9  and  C_10 
REMARK       I    between atoms: N_13  and  C_18 
ROOT
HETATM    1  O           1     -37.680  -0.736 -13.468  0.00  0.00    -0.271 OA
HETATM    2  H           1     -34.871  -0.037 -12.255  0.00  0.00     0.163 HD
HETATM    3  N           1     -35.805  -0.426 -12.295  0.00  0.00    -0.344 N 
HETATM    4  C           1     -36.565  -0.271 -13.422  0.00  0.00     0.251 C 
ENDROOT
BRANCH   3   5
HETATM    5  C           1     -36.337  -1.147 -11.154  0.00  0.00     0.189 C 
BRANCH   5   6
HETATM    6  C           1     -35.276  -2.098 -10.614  0.00  0.00     0.014 C 
HETATM    7  C           1     -35.729  -3.536 -10.828  0.00  0.00     0.012 C 
BRANCH   6   8
HETATM    8  C           1     -33.964  -1.865 -11.350  0.00  0.00     0.002 C 
HETATM    9  C           1     -33.128  -3.139 -11.312  0.00  0.00     0.005 C 
ENDBRANCH   6   8
ENDBRANCH   5   6
BRANCH   5  10
HETATM   10  C           1     -36.727  -0.165 -10.077  0.00  0.00     0.197 C 
HETATM   11  O           1     -37.615   0.686 -10.298  0.00  0.00    -0.646 OA
HETATM   12  O           1     -36.162  -0.204  -8.962  0.00  0.00    -0.646 OA
ENDBRANCH   5  10
ENDBRANCH   3   5
BRANCH   4  13
HETATM   13  C           1     -36.012   0.479 -14.608  0.00  0.00     0.311 C 
HETATM   14  N           1     -34.823  -0.184 -15.135  0.00  0.00     0.097 N 
HETATM   15  H           1     -34.297   0.445 -15.742  0.00  0.00     0.317 HD
HETATM   16  C           1     -35.333  -1.305 -15.919  0.00  0.00     0.271 C 
HETATM   17  C           1     -36.545  -0.729 -16.631  0.00  0.00     0.033 C 
HETATM   18  C           1     -36.989   0.449 -15.771  0.00  0.00     0.047 C 
ENDBRANCH   4  13
TORSDOF 5
ENDMDL
MODEL 2
REMARK VINA RESULT:      -6.4     12.727     15.488
REMARK  5 active torsions:
REMARK  status: ('A' for Active; 'I' for Inactive)
REMARK    1  A    between atoms: C_3  and  C_18 
REMARK    2  A    between atoms: C_4  and  C_9 
REMARK    3  A    between atoms: C_4  and  C_17 
REMARK    4  A    between atoms: C_4  and  N_13 
REMARK    5  A    between atoms: C_9  and  C_10 
REMARK       I    between atoms: N_13  and  C_18 
ROOT
HETATM    1  O           1     -22.291  -3.558  -7.409  0.00  0.00    -0.271 OA
HETATM    2  H           1     -22.182  -5.681  -9.717  0.00  0.00     0.163 HD
HETATM    3  N           1     -22.384  -4.799  -9.263  0.00  0.00    -0.344 N 
HETATM    4  C           1     -22.049  -4.611  -7.950  0.00  0.00     0.251 C 
ENDROOT
BRANCH   3   5
HETATM    5  C           1     -23.031  -3.734 -10.006  0.00  0.00     0.189 C 
BRANCH   5   6
HETATM    6  C           1     -22.716  -3.886 -11.489  0.00  0.00     0.014 C 
HETATM    7  C           1     -22.996  -2.570 -12.204  0.00  0.00     0.012 C 
BRANCH   6   8
HETATM    8  C           1     -21.249  -4.253 -11.662  0.00  0.00     0.002 C 
HETATM    9  C           1     -20.379  -3.055 -11.303  0.00  0.00     0.005 C 
ENDBRANCH   6   8
ENDBRANCH   5   6
BRANCH   5  10
HETATM   10  C           1     -24.523  -3.811  -9.799  0.00  0.00     0.197 C 
HETATM   11  O           1     -25.107  -4.916  -9.860  0.00  0.00    -0.646 OA
HETATM   12  O           1     -25.177  -2.771  -9.567  0.00  0.00    -0.646 OA
ENDBRANCH   5  10
ENDBRANCH   3   5
BRANCH   4  13
HETATM   13  C           1     -21.377  -5.719  -7.176  0.00  0.00     0.311 C 
HETATM   14  N           1     -20.024  -5.953  -7.672  0.00  0.00     0.097 N 
HETATM   15  H           1     -19.673  -6.855  -7.352  0.00  0.00     0.317 HD
HETATM   16  C           1     -19.219  -4.883  -7.089  0.00  0.00     0.271 C 
HETATM   17  C           1     -19.749  -4.761  -5.670  0.00  0.00     0.033 C 
HETATM   18  C           1     -21.168  -5.316  -5.726  0.00  0.00     0.047 C 
ENDBRANCH   4  13
TORSDOF 5
ENDMDL
MODEL 3
REMARK VINA RESULT:      -6.3      2.608      5.189
REMARK  5 active torsions:
REMARK  status: ('A' for Active; 'I' for Inactive)
REMARK    1  A    between atoms: C_3  and  C_18 
REMARK    2  A    between atoms: C_4  and  C_9 
REMARK    3  A    between atoms: C_4  and  C_17 
REMARK    4  A    between atoms: C_4  and  N_13 
REMARK    5  A    between atoms: C_9  and  C_10 
REMARK       I    between atoms: N_13  and  C_18 
ROOT
HETATM    1  O           1     -34.643  -3.451 -13.389  0.00  0.00    -0.271 OA
HETATM    2  H           1     -34.465  -0.832 -11.670  0.00  0.00     0.163 HD
HETATM    3  N           1     -34.779  -1.449 -12.408  0.00  0.00    -0.344 N 
HETATM    4  C           1     -34.267  -2.715 -12.508  0.00  0.00     0.251 C 
ENDROOT
BRANCH   3   5
HETATM    5  C           1     -35.772  -0.992 -13.361  0.00  0.00     0.189 C 
BRANCH   5   6
HETATM    6  C           1     -36.782  -0.099 -12.652  0.00  0.00     0.014 C 
HETATM    7  C           1     -38.075  -0.057 -13.457  0.00  0.00     0.012 C 
BRANCH   6   8
HETATM    8  C           1     -37.068  -0.657 -11.264  0.00  0.00     0.002 C 
HETATM    9  C           1     -37.030   0.474 -10.244  0.00  0.00     0.005 C 
ENDBRANCH   6   8
ENDBRANCH   5   6
BRANCH   5  10
HETATM   10  C           1     -35.093  -0.209 -14.458  0.00  0.00     0.197 C 
HETATM   11  O           1     -35.176  -0.594 -15.644  0.00  0.00    -0.646 OA
HETATM   12  O           1     -34.446   0.824 -14.180  0.00  0.00    -0.646 OA
ENDBRANCH   5  10
ENDBRANCH   3   5
BRANCH   4  13
HETATM   13  C           1     -33.234  -3.191 -11.517  0.00  0.00     0.311 C 
HETATM   14  N           1     -33.857  -3.547 -10.246  0.00  0.00     0.097 N 
HETATM   15  H           1     -33.159  -3.603  -9.504  0.00  0.00     0.317 HD
HETATM   16  C           1     -34.439  -4.867 -10.468  0.00  0.00     0.271 C 
HETATM   17  C           1     -33.393  -5.592 -11.297  0.00  0.00     0.033 C 
HETATM   18  C           1     -32.595  -4.489 -11.983  0.00  0.00     0.047 C 
ENDBRANCH   4  13
TORSDOF 5
ENDMDL
MODEL 4
REMARK VINA RESULT:      -5.5     15.822     17.548
REMARK  5 active torsions:
REMARK  status: ('A' for Active; 'I' for Inactive)
REMARK    1  A    between atoms: C_3  and  C_18 
REMARK    2  A    between atoms: C_4  and  C_9 
REMARK    3  A    between atoms: C_4  and  C_17 
REMARK    4  A    between atoms: C_4  and  N_13 
REMARK    5  A    between atoms: C_9  and  C_10 
REMARK       I    between atoms: N_13  and  C_18 
ROOT
HETATM    1  O           1     -19.450  -4.783  -5.708  0.00  0.00    -0.271 OA
HETATM    2  H           1     -22.319  -6.054  -5.665  0.00  0.00     0.163 HD
HETATM    3  N           1     -21.332  -5.960  -5.460  0.00  0.00    -0.344 N 
HETATM    4  C           1     -20.628  -4.895  -5.953  0.00  0.00     0.251 C 
ENDROOT
BRANCH   3   5
HETATM    5  C           1     -20.664  -6.956  -4.644  0.00  0.00     0.189 C 
BRANCH   5   6
HETATM    6  C           1     -21.569  -7.353  -3.485  0.00  0.00     0.014 C 
HETATM    7  C           1     -20.874  -8.412  -2.639  0.00  0.00     0.012 C 
BRANCH   6   8
HETATM    8  C           1     -21.861  -6.130  -2.626  0.00  0.00     0.002 C 
HETATM    9  C           1     -22.271  -6.578  -1.228  0.00  0.00     0.005 C 
ENDBRANCH   6   8
ENDBRANCH   5   6
BRANCH   5  10
HETATM   10  C           1     -20.360  -8.172  -5.483  0.00  0.00     0.197 C 
HETATM   11  O           1     -19.174  -8.508  -5.690  0.00  0.00    -0.646 OA
HETATM   12  O           1     -21.294  -8.843  -5.972  0.00  0.00    -0.646 OA
ENDBRANCH   5  10
ENDBRANCH   3   5
BRANCH   4  13
HETATM   13  C           1     -21.323  -3.860  -6.803  0.00  0.00     0.311 C 
HETATM   14  N           1     -20.498  -3.489  -7.949  0.00  0.00     0.097 N 
HETATM   15  H           1     -20.826  -2.617  -8.364  0.00  0.00     0.317 HD
HETATM   16  C           1     -20.673  -4.578  -8.906  0.00  0.00     0.271 C 
HETATM   17  C           1     -22.152  -4.910  -8.814  0.00  0.00     0.033 C 
HETATM   18  C           1     -22.582  -4.432  -7.432  0.00  0.00     0.047 C 
ENDBRANCH   4  13
TORSDOF 5
ENDMDL
MODEL 5
REMARK VINA RESULT:      -5.5     16.103     17.740
REMARK  5 active torsions:
REMARK  status: ('A' for Active; 'I' for Inactive)
REMARK    1  A    between atoms: C_3  and  C_18 
REMARK    2  A    between atoms: C_4  and  C_9 
REMARK    3  A    between atoms: C_4  and  C_17 
REMARK    4  A    between atoms: C_4  and  N_13 
REMARK    5  A    between atoms: C_9  and  C_10 
REMARK       I    between atoms: N_13  and  C_18 
ROOT
HETATM    1  O           1     -22.574  -5.572  -5.733  0.00  0.00    -0.271 OA
HETATM    2  H           1     -19.725  -6.119  -4.538  0.00  0.00     0.163 HD
HETATM    3  N           1     -20.718  -6.244  -4.688  0.00  0.00    -0.344 N 
HETATM    4  C           1     -21.388  -5.423  -5.554  0.00  0.00     0.251 C 
ENDROOT
BRANCH   3   5
HETATM    5  C           1     -21.431  -7.293  -3.985  0.00  0.00     0.189 C 
BRANCH   5   6
HETATM    6  C           1     -20.610  -8.576  -4.021  0.00  0.00     0.014 C 
HETATM    7  C           1     -21.527  -9.756  -4.316  0.00  0.00     0.012 C 
BRANCH   6   8
HETATM    8  C           1     -19.552  -8.473  -5.111  0.00  0.00     0.002 C 
HETATM    9  C           1     -18.470  -9.517  -4.869  0.00  0.00     0.005 C 
ENDBRANCH   6   8
ENDBRANCH   5   6
BRANCH   5  10
HETATM   10  C           1     -21.651  -6.878  -2.552  0.00  0.00     0.197 C 
HETATM   11  O           1     -22.451  -5.956  -2.284  0.00  0.00    -0.646 OA
HETATM   12  O           1     -21.033  -7.456  -1.632  0.00  0.00    -0.646 OA
ENDBRANCH   5  10
ENDBRANCH   3   5
BRANCH   4  13
HETATM   13  C           1     -20.647  -4.330  -6.285  0.00  0.00     0.311 C 
HETATM   14  N           1     -19.511  -4.876  -7.022  0.00  0.00     0.097 N 
HETATM   15  H           1     -18.861  -4.135  -7.285  0.00  0.00     0.317 HD
HETATM   16  C           1     -20.091  -5.465  -8.225  0.00  0.00     0.271 C 
HETATM   17  C           1     -21.156  -4.466  -8.642  0.00  0.00     0.033 C 
HETATM   18  C           1     -21.519  -3.715  -7.366  0.00  0.00     0.047 C 
ENDBRANCH   4  13
TORSDOF 5
ENDMDL
MODEL 6
REMARK VINA RESULT:      -5.4      2.359      3.236
REMARK  5 active torsions:
REMARK  status: ('A' for Active; 'I' for Inactive)
REMARK    1  A    between atoms: C_3  and  C_18 
REMARK    2  A    between atoms: C_4  and  C_9 
REMARK    3  A    between atoms: C_4  and  C_17 
REMARK    4  A    between atoms: C_4  and  N_13 
REMARK    5  A    between atoms: C_9  and  C_10 
REMARK       I    between atoms: N_13  and  C_18 
ROOT
HETATM    1  O           1     -34.344   0.259 -14.137  0.00  0.00    -0.271 OA
HETATM    2  H           1     -36.819  -1.460 -13.261  0.00  0.00     0.163 HD
HETATM    3  N           1     -35.852  -1.164 -13.306  0.00  0.00    -0.344 N 
HETATM    4  C           1     -35.498  -0.094 -14.083  0.00  0.00     0.251 C 
ENDROOT
BRANCH   3   5
HETATM    5  C           1     -34.841  -1.874 -12.547  0.00  0.00     0.189 C 
BRANCH   5   6
HETATM    6  C           1     -35.283  -1.986 -11.093  0.00  0.00     0.014 C 
HETATM    7  C           1     -34.065  -1.878 -10.184  0.00  0.00     0.012 C 
BRANCH   6   8
HETATM    8  C           1     -36.257  -0.861 -10.770  0.00  0.00     0.002 C 
HETATM    9  C           1     -36.537  -0.846  -9.273  0.00  0.00     0.005 C 
ENDBRANCH   6   8
ENDBRANCH   5   6
BRANCH   5  10
HETATM   10  C           1     -34.659  -3.256 -13.124  0.00  0.00     0.197 C 
HETATM   11  O           1     -34.920  -4.263 -12.430  0.00  0.00    -0.646 OA
HETATM   12  O           1     -34.246  -3.395 -14.295  0.00  0.00    -0.646 OA
ENDBRANCH   5  10
ENDBRANCH   3   5
BRANCH   4  13
HETATM   13  C           1     -36.550   0.645 -14.874  0.00  0.00     0.311 C 
HETATM   14  N           1     -36.235   0.630 -16.300  0.00  0.00     0.097 N 
HETATM   15  H           1     -36.773   1.340 -16.796  0.00  0.00     0.317 HD
HETATM   16  C           1     -36.637  -0.696 -16.759  0.00  0.00     0.271 C 
HETATM   17  C           1     -37.944  -0.954 -16.029  0.00  0.00     0.033 C 
HETATM   18  C           1     -37.889  -0.067 -14.791  0.00  0.00     0.047 C 
ENDBRANCH   4  13
TORSDOF 5
ENDMDL
MODEL 7
REMARK VINA RESULT:      -5.2     17.901     19.878
REMARK  5 active torsions:
REMARK  status: ('A' for Active; 'I' for Inactive)
REMARK    1  A    between atoms: C_3  and  C_18 
REMARK    2  A    between atoms: C_4  and  C_9 
REMARK    3  A    between atoms: C_4  and  C_17 
REMARK    4  A    between atoms: C_4  and  N_13 
REMARK    5  A    between atoms: C_9  and  C_10 
REMARK       I    between atoms: N_13  and  C_18 
ROOT
HETATM    1  O           1     -23.025 -10.860  -3.572  0.00  0.00    -0.271 OA
HETATM    2  H           1     -20.598  -9.416  -2.205  0.00  0.00     0.163 HD
HETATM    3  N           1     -21.283  -9.624  -2.920  0.00  0.00    -0.344 N 
HETATM    4  C           1     -22.207 -10.612  -2.717  0.00  0.00     0.251 C 
ENDROOT
BRANCH   3   5
HETATM    5  C           1     -21.284  -8.873  -4.161  0.00  0.00     0.189 C 
BRANCH   5   6
HETATM    6  C           1     -21.038  -7.399  -3.863  0.00  0.00     0.014 C 
HETATM    7  C           1     -22.124  -6.560  -4.523  0.00  0.00     0.012 C 
BRANCH   6   8
HETATM    8  C           1     -21.068  -7.173  -2.358  0.00  0.00     0.002 C 
HETATM    9  C           1     -22.176  -6.185  -2.015  0.00  0.00     0.005 C 
ENDBRANCH   6   8
ENDBRANCH   5   6
BRANCH   5  10
HETATM   10  C           1     -20.193  -9.392  -5.063  0.00  0.00     0.197 C 
HETATM   11  O           1     -19.027  -8.954  -4.951  0.00  0.00    -0.646 OA
HETATM   12  O           1     -20.454 -10.260  -5.924  0.00  0.00    -0.646 OA
ENDBRANCH   5  10
ENDBRANCH   3   5
BRANCH   4  13
HETATM   13  C           1     -22.206 -11.394  -1.427  0.00  0.00     0.311 C 
HETATM   14  N           1     -21.836 -10.540  -0.301  0.00  0.00     0.097 N 
HETATM   15  H           1     -21.570 -11.102   0.507  0.00  0.00     0.317 HD
HETATM   16  C           1     -23.045  -9.783   0.009  0.00  0.00     0.271 C 
HETATM   17  C           1     -24.161 -10.803  -0.138  0.00  0.00     0.033 C 
HETATM   18  C           1     -23.607 -11.866  -1.078  0.00  0.00     0.047 C 
ENDBRANCH   4  13
TORSDOF 5
ENDMDL
MODEL 8
REMARK VINA RESULT:      -5.1     18.913     20.737
REMARK  5 active torsions:
REMARK  status: ('A' for Active; 'I' for Inactive)
REMARK    1  A    between atoms: C_3  and  C_18 
REMARK    2  A    between atoms: C_4  and  C_9 
REMARK    3  A    between atoms: C_4  and  C_17 
REMARK    4  A    between atoms: C_4  and  N_13 
REMARK    5  A    between atoms: C_9  and  C_10 
REMARK       I    between atoms: N_13  and  C_18 
ROOT
HETATM    1  O           1     -22.983 -10.837  -3.146  0.00  0.00    -0.271 OA
HETATM    2  H           1     -22.445  -9.918  -0.194  0.00  0.00     0.163 HD
HETATM    3  N           1     -22.382  -9.911  -1.204  0.00  0.00    -0.344 N 
HETATM    4  C           1     -23.058 -10.846  -1.940  0.00  0.00     0.251 C 
ENDROOT
BRANCH   3   5
HETATM    5  C           1     -21.574  -8.908  -1.872  0.00  0.00     0.189 C 
BRANCH   5   6
HETATM    6  C           1     -21.579  -7.624  -1.052  0.00  0.00     0.014 C 
HETATM    7  C           1     -22.156  -6.490  -1.890  0.00  0.00     0.012 C 
BRANCH   6   8
HETATM    8  C           1     -22.433  -7.819   0.193  0.00  0.00     0.002 C 
HETATM    9  C           1     -21.537  -8.183   1.371  0.00  0.00     0.005 C 
ENDBRANCH   6   8
ENDBRANCH   5   6
BRANCH   5  10
HETATM   10  C           1     -20.159  -9.412  -2.007  0.00  0.00     0.197 C 
HETATM   11  O           1     -19.404  -8.929  -2.879  0.00  0.00    -0.646 OA
HETATM   12  O           1     -19.740 -10.313  -1.248  0.00  0.00    -0.646 OA
ENDBRANCH   5  10
ENDBRANCH   3   5
BRANCH   4  13
HETATM   13  C           1     -23.898 -11.890  -1.245  0.00  0.00     0.311 C 
HETATM   14  N           1     -23.361 -13.228  -1.477  0.00  0.00     0.097 N 
HETATM   15  H           1     -24.055 -13.940  -1.251  0.00  0.00     0.317 HD
HETATM   16  C           1     -22.230 -13.343  -0.561  0.00  0.00     0.271 C 
HETATM   17  C           1     -22.724 -12.679   0.713  0.00  0.00     0.033 C 
HETATM   18  C           1     -23.825 -11.726   0.263  0.00  0.00     0.047 C 
ENDBRANCH   4  13
TORSDOF 5
ENDMDL
MODEL 9
REMARK VINA RESULT:      -5.0     17.571     19.416
REMARK  5 active torsions:
REMARK  status: ('A' for Active; 'I' for Inactive)
REMARK    1  A    between atoms: C_3  and  C_18 
REMARK    2  A    between atoms: C_4  and  C_9 
REMARK    3  A    between atoms: C_4  and  C_17 
REMARK    4  A    between atoms: C_4  and  N_13 
REMARK    5  A    between atoms: C_9  and  C_10 
REMARK       I    between atoms: N_13  and  C_18 
ROOT
HETATM    1  O           1     -22.341  -6.689  -1.762  0.00  0.00    -0.271 OA
HETATM    2  H           1     -20.815  -9.410  -2.098  0.00  0.00     0.163 HD
HETATM    3  N           1     -21.481  -8.750  -1.718  0.00  0.00    -0.344 N 
HETATM    4  C           1     -21.545  -7.477  -2.216  0.00  0.00     0.251 C 
ENDROOT
BRANCH   3   5
HETATM    5  C           1     -22.368  -9.154  -0.644  0.00  0.00     0.189 C 
BRANCH   5   6
HETATM    6  C           1     -22.724 -10.626  -0.806  0.00  0.00     0.014 C 
HETATM    7  C           1     -24.057 -10.904  -0.122  0.00  0.00     0.012 C 
BRANCH   6   8
HETATM    8  C           1     -22.835 -10.962  -2.287  0.00  0.00     0.002 C 
HETATM    9  C           1     -22.720 -12.470  -2.476  0.00  0.00     0.005 C 
ENDBRANCH   6   8
ENDBRANCH   5   6
BRANCH   5  10
HETATM   10  C           1     -21.679  -8.946   0.682  0.00  0.00     0.197 C 
HETATM   11  O           1     -20.867  -9.797   1.104  0.00  0.00    -0.646 OA
HETATM   12  O           1     -21.921  -7.924   1.359  0.00  0.00    -0.646 OA
ENDBRANCH   5  10
ENDBRANCH   3   5
BRANCH   4  13
HETATM   13  C           1     -20.621  -7.056  -3.333  0.00  0.00     0.311 C 
HETATM   14  N           1     -20.413  -8.151  -4.276  0.00  0.00     0.097 N 
HETATM   15  H           1     -19.598  -7.972  -4.863  0.00  0.00     0.317 HD
HETATM   16  C           1     -21.615  -8.168  -5.104  0.00  0.00     0.271 C 
HETATM   17  C           1     -21.916  -6.698  -5.341  0.00  0.00     0.033 C 
HETATM   18  C           1     -21.257  -5.965  -4.178  0.00  0.00     0.047 C 
ENDBRANCH   4  13
TORSDOF 5
ENDMDL
