MODEL 1
REMARK VINA RESULT:      -7.2      0.000      0.000
REMARK  8 active torsions:
REMARK  status: ('A' for Active; 'I' for Inactive)
REMARK       I    between atoms: C_1  and  N_2 
REMARK       I    between atoms: C_1  and  N_3 
REMARK    1  A    between atoms: N_4  and  C_21 
REMARK    2  A    between atoms: N_5  and  C_6 
REMARK       I    between atoms: N_5  and  C_20 
REMARK    3  A    between atoms: C_6  and  C_12 
REMARK    4  A    between atoms: N_7  and  C_15 
REMARK    5  A    between atoms: C_15  and  C_19 
REMARK    6  A    between atoms: C_19  and  C_22 
REMARK    7  A    between atoms: C_20  and  C_21 
REMARK    8  A    between atoms: C_21  and  C_22 
ROOT
HETATM    1  C           1     -34.245  -3.697 -12.785  0.00  0.00     0.274 C 
ENDROOT
BRANCH   1   2
HETATM    2  N           1     -33.585  -4.107 -14.068  0.00  0.00    -0.067 N 
HETATM    3  H           1     -33.207  -5.076 -13.972  0.00  0.00     0.275 HD
HETATM    4  H           1     -34.286  -4.082 -14.843  0.00  0.00     0.275 HD
HETATM    5  H           1     -32.803  -3.447 -14.283  0.00  0.00     0.275 HD
ENDBRANCH   1   2
BRANCH   1   6
HETATM    6  C           1     -34.850  -2.324 -12.947  0.00  0.00     0.248 C 
HETATM    7  N           1     -35.203  -1.597 -11.843  0.00  0.00    -0.349 N 
HETATM    8  H           1     -35.057  -1.980 -10.918  0.00  0.00     0.163 HD
HETATM    9  O           1     -35.023  -1.868 -14.053  0.00  0.00    -0.271 OA
BRANCH   7  10
HETATM   10  C           1     -35.784  -0.277 -11.999  0.00  0.00     0.235 C 
BRANCH  10  11
HETATM   11  C           1     -36.882  -0.087 -10.983  0.00  0.00     0.191 C 
HETATM   12  O           1     -36.723   0.708 -10.031  0.00  0.00    -0.647 OA
HETATM   13  O           1     -37.952  -0.725 -11.092  0.00  0.00    -0.647 OA
ENDBRANCH  10  11
ENDBRANCH   7  10
ENDBRANCH   1   6
BRANCH   1  14
HETATM   14  C           1     -33.209  -3.667 -11.669  0.00  0.00     0.044 C 
BRANCH  14  15
HETATM   15  C           1     -33.721  -4.468 -10.478  0.00  0.00     0.023 C 
BRANCH  15  16
HETATM   16  C           1     -34.595  -5.612 -10.974  0.00  0.00     0.138 C 
BRANCH  16  17
HETATM   17  N           1     -33.822  -6.863 -10.960  0.00  0.00    -0.227 N 
HETATM   18  C           1     -34.188  -7.825 -10.224  0.00  0.00     0.665 C 
HETATM   19  N           1     -33.523  -8.902 -10.213  0.00  0.00    -0.235 N 
HETATM   20  N           1     -35.248  -7.708  -9.481  0.00  0.00    -0.235 N 
HETATM   21  H           1     -33.827  -9.700  -9.602  0.00  0.00     0.174 HD
HETATM   22  H           1     -32.667  -8.997 -10.814  0.00  0.00     0.174 HD
HETATM   23  H           1     -35.551  -8.502  -8.874  0.00  0.00     0.174 HD
HETATM   24  H           1     -35.797  -6.819  -9.491  0.00  0.00     0.174 HD
HETATM   25  H           1     -32.966  -6.958 -11.562  0.00  0.00     0.177 HD
ENDBRANCH  16  17
ENDBRANCH  15  16
ENDBRANCH  14  15
ENDBRANCH   1  14
TORSDOF 8
ENDMDL
MODEL 2
REMARK VINA RESULT:      -7.0      1.904      3.216
REMARK  8 active torsions:
REMARK  status: ('A' for Active; 'I' for Inactive)
REMARK       I    between atoms: C_1  and  N_2 
REMARK       I    between atoms: C_1  and  N_3 
REMARK    1  A    between atoms: N_4  and  C_21 
REMARK    2  A    between atoms: N_5  and  C_6 
REMARK       I    between atoms: N_5  and  C_20 
REMARK    3  A    between atoms: C_6  and  C_12 
REMARK    4  A    between atoms: N_7  and  C_15 
REMARK    5  A    between atoms: C_15  and  C_19 
REMARK    6  A    between atoms: C_19  and  C_22 
REMARK    7  A    between atoms: C_20  and  C_21 
REMARK    8  A    between atoms: C_21  and  C_22 
ROOT
HETATM    1  C           1     -34.197  -1.841 -11.938  0.00  0.00     0.274 C 
ENDROOT
BRANCH   1   2
HETATM    2  N           1     -34.665  -1.702 -10.520  0.00  0.00    -0.067 N 
HETATM    3  H           1     -34.226  -0.858 -10.089  0.00  0.00     0.275 HD
HETATM    4  H           1     -35.705  -1.600 -10.505  0.00  0.00     0.275 HD
HETATM    5  H           1     -34.390  -2.553  -9.978  0.00  0.00     0.275 HD
ENDBRANCH   1   2
BRANCH   1   6
HETATM    6  C           1     -35.257  -1.306 -12.870  0.00  0.00     0.248 C 
HETATM    7  N           1     -34.893  -0.647 -14.014  0.00  0.00    -0.349 N 
HETATM    8  H           1     -33.913  -0.520 -14.234  0.00  0.00     0.163 HD
HETATM    9  O           1     -36.426  -1.459 -12.607  0.00  0.00    -0.271 OA
BRANCH   7  10
HETATM   10  C           1     -35.911  -0.133 -14.910  0.00  0.00     0.235 C 
BRANCH  10  11
HETATM   11  C           1     -35.844  -0.870 -16.224  0.00  0.00     0.191 C 
HETATM   12  O           1     -36.797  -0.800 -17.030  0.00  0.00    -0.647 OA
HETATM   13  O           1     -34.835  -1.552 -16.508  0.00  0.00    -0.647 OA
ENDBRANCH  10  11
ENDBRANCH   7  10
ENDBRANCH   1   6
BRANCH   1  14
HETATM   14  C           1     -33.943  -3.311 -12.247  0.00  0.00     0.044 C 
BRANCH  14  15
HETATM   15  C           1     -33.801  -4.087 -10.944  0.00  0.00     0.023 C 
BRANCH  15  16
HETATM   16  C           1     -34.728  -5.295 -10.970  0.00  0.00     0.138 C 
BRANCH  16  17
HETATM   17  N           1     -33.930  -6.525 -11.071  0.00  0.00    -0.227 N 
HETATM   18  C           1     -34.193  -7.514 -10.326  0.00  0.00     0.665 C 
HETATM   19  N           1     -33.506  -8.574 -10.414  0.00  0.00    -0.235 N 
HETATM   20  N           1     -35.170  -7.443  -9.472  0.00  0.00    -0.235 N 
HETATM   21  H           1     -33.724  -9.394  -9.796  0.00  0.00     0.174 HD
HETATM   22  H           1     -32.716  -8.632 -11.105  0.00  0.00     0.174 HD
HETATM   23  H           1     -35.388  -8.259  -8.858  0.00  0.00     0.174 HD
HETATM   24  H           1     -35.738  -6.569  -9.400  0.00  0.00     0.174 HD
HETATM   25  H           1     -33.140  -6.583 -11.762  0.00  0.00     0.177 HD
ENDBRANCH  16  17
ENDBRANCH  15  16
ENDBRANCH  14  15
ENDBRANCH   1  14
TORSDOF 8
ENDMDL
MODEL 3
REMARK VINA RESULT:      -6.7      1.677      2.280
REMARK  8 active torsions:
REMARK  status: ('A' for Active; 'I' for Inactive)
REMARK       I    between atoms: C_1  and  N_2 
REMARK       I    between atoms: C_1  and  N_3 
REMARK    1  A    between atoms: N_4  and  C_21 
REMARK    2  A    between atoms: N_5  and  C_6 
REMARK       I    between atoms: N_5  and  C_20 
REMARK    3  A    between atoms: C_6  and  C_12 
REMARK    4  A    between atoms: N_7  and  C_15 
REMARK    5  A    between atoms: C_15  and  C_19 
REMARK    6  A    between atoms: C_19  and  C_22 
REMARK    7  A    between atoms: C_20  and  C_21 
REMARK    8  A    between atoms: C_21  and  C_22 
ROOT
HETATM    1  C           1     -34.342  -3.458 -12.578  0.00  0.00     0.274 C 
ENDROOT
BRANCH   1   2
HETATM    2  N           1     -33.874  -3.790 -13.963  0.00  0.00    -0.067 N 
HETATM    3  H           1     -34.686  -3.764 -14.621  0.00  0.00     0.275 HD
HETATM    4  H           1     -33.159  -3.091 -14.266  0.00  0.00     0.275 HD
HETATM    5  H           1     -33.452  -4.746 -13.969  0.00  0.00     0.275 HD
ENDBRANCH   1   2
BRANCH   1   6
HETATM    6  C           1     -34.743  -2.004 -12.518  0.00  0.00     0.248 C 
HETATM    7  N           1     -35.564  -1.480 -13.480  0.00  0.00    -0.349 N 
HETATM    8  H           1     -35.901  -2.068 -14.232  0.00  0.00     0.163 HD
HETATM    9  O           1     -34.339  -1.303 -11.621  0.00  0.00    -0.271 OA
BRANCH   7  10
HETATM   10  C           1     -35.949  -0.083 -13.423  0.00  0.00     0.235 C 
BRANCH  10  11
HETATM   11  C           1     -34.894   0.758 -14.095  0.00  0.00     0.191 C 
HETATM   12  O           1     -34.449   0.426 -15.216  0.00  0.00    -0.647 OA
HETATM   13  O           1     -34.463   1.788 -13.533  0.00  0.00    -0.647 OA
ENDBRANCH  10  11
ENDBRANCH   7  10
ENDBRANCH   1   6
BRANCH   1  14
HETATM   14  C           1     -33.213  -3.715 -11.587  0.00  0.00     0.044 C 
BRANCH  14  15
HETATM   15  C           1     -33.754  -4.487 -10.391  0.00  0.00     0.023 C 
BRANCH  15  16
HETATM   16  C           1     -34.631  -5.632 -10.880  0.00  0.00     0.138 C 
BRANCH  16  17
HETATM   17  N           1     -33.843  -6.872 -10.923  0.00  0.00    -0.227 N 
HETATM   18  C           1     -34.186  -7.865 -10.218  0.00  0.00     0.665 C 
HETATM   19  N           1     -33.507  -8.933 -10.256  0.00  0.00    -0.235 N 
HETATM   20  N           1     -35.236  -7.790  -9.456  0.00  0.00    -0.235 N 
HETATM   21  H           1     -33.792  -9.757  -9.671  0.00  0.00     0.174 HD
HETATM   22  H           1     -32.658  -8.995 -10.871  0.00  0.00     0.174 HD
HETATM   23  H           1     -35.521  -8.610  -8.875  0.00  0.00     0.174 HD
HETATM   24  H           1     -35.797  -6.908  -9.426  0.00  0.00     0.174 HD
HETATM   25  H           1     -32.994  -6.933 -11.539  0.00  0.00     0.177 HD
ENDBRANCH  16  17
ENDBRANCH  15  16
ENDBRANCH  14  15
ENDBRANCH   1  14
TORSDOF 8
ENDMDL
MODEL 4
REMARK VINA RESULT:      -6.7     11.110     12.495
REMARK  8 active torsions:
REMARK  status: ('A' for Active; 'I' for Inactive)
REMARK       I    between atoms: C_1  and  N_2 
REMARK       I    between atoms: C_1  and  N_3 
REMARK    1  A    between atoms: N_4  and  C_21 
REMARK    2  A    between atoms: N_5  and  C_6 
REMARK       I    between atoms: N_5  and  C_20 
REMARK    3  A    between atoms: C_6  and  C_12 
REMARK    4  A    between atoms: N_7  and  C_15 
REMARK    5  A    between atoms: C_15  and  C_19 
REMARK    6  A    between atoms: C_19  and  C_22 
REMARK    7  A    between atoms: C_20  and  C_21 
REMARK    8  A    between atoms: C_21  and  C_22 
ROOT
HETATM    1  C           1     -20.836  -4.028 -11.331  0.00  0.00     0.274 C 
ENDROOT
BRANCH   1   2
HETATM    2  N           1     -20.208  -2.674 -11.189  0.00  0.00    -0.067 N 
HETATM    3  H           1     -19.519  -2.689 -10.404  0.00  0.00     0.275 HD
HETATM    4  H           1     -19.717  -2.423 -12.077  0.00  0.00     0.275 HD
HETATM    5  H           1     -20.949  -1.965 -10.988  0.00  0.00     0.275 HD
ENDBRANCH   1   2
BRANCH   1   6
HETATM    6  C           1     -22.194  -3.887 -11.975  0.00  0.00     0.248 C 
HETATM    7  N           1     -22.573  -2.688 -12.516  0.00  0.00    -0.349 N 
HETATM    8  H           1     -21.943  -1.897 -12.485  0.00  0.00     0.163 HD
HETATM    9  O           1     -22.945  -4.832 -12.012  0.00  0.00    -0.271 OA
BRANCH   7  10
HETATM   10  C           1     -23.878  -2.553 -13.135  0.00  0.00     0.235 C 
BRANCH  10  11
HETATM   11  C           1     -23.722  -1.976 -14.519  0.00  0.00     0.191 C 
HETATM   12  O           1     -22.816  -2.395 -15.273  0.00  0.00    -0.647 OA
HETATM   13  O           1     -24.497  -1.078 -14.913  0.00  0.00    -0.647 OA
ENDBRANCH  10  11
ENDBRANCH   7  10
ENDBRANCH   1   6
BRANCH   1  14
HETATM   14  C           1     -20.989  -4.663  -9.955  0.00  0.00     0.044 C 
BRANCH  14  15
HETATM   15  C           1     -21.530  -3.630  -8.976  0.00  0.00     0.023 C 
BRANCH  15  16
HETATM   16  C           1     -22.769  -4.185  -8.285  0.00  0.00     0.138 C 
BRANCH  16  17
HETATM   17  N           1     -23.946  -3.398  -8.678  0.00  0.00    -0.227 N 
HETATM   18  C           1     -24.855  -3.926  -9.384  0.00  0.00     0.665 C 
HETATM   19  N           1     -25.869  -3.248  -9.722  0.00  0.00    -0.235 N 
HETATM   20  N           1     -24.747  -5.165  -9.761  0.00  0.00    -0.235 N 
HETATM   21  H           1     -26.622  -3.686 -10.307  0.00  0.00     0.174 HD
HETATM   22  H           1     -25.956  -2.246  -9.417  0.00  0.00     0.174 HD
HETATM   23  H           1     -25.497  -5.601 -10.343  0.00  0.00     0.174 HD
HETATM   24  H           1     -23.910  -5.725  -9.481  0.00  0.00     0.174 HD
HETATM   25  H           1     -24.034  -2.397  -8.373  0.00  0.00     0.177 HD
ENDBRANCH  16  17
ENDBRANCH  15  16
ENDBRANCH  14  15
ENDBRANCH   1  14
TORSDOF 8
ENDMDL
MODEL 5
REMARK VINA RESULT:      -6.6     11.895     13.740
REMARK  8 active torsions:
REMARK  status: ('A' for Active; 'I' for Inactive)
REMARK       I    between atoms: C_1  and  N_2 
REMARK       I    between atoms: C_1  and  N_3 
REMARK    1  A    between atoms: N_4  and  C_21 
REMARK    2  A    between atoms: N_5  and  C_6 
REMARK       I    between atoms: N_5  and  C_20 
REMARK    3  A    between atoms: C_6  and  C_12 
REMARK    4  A    between atoms: N_7  and  C_15 
REMARK    5  A    between atoms: C_15  and  C_19 
REMARK    6  A    between atoms: C_19  and  C_22 
REMARK    7  A    between atoms: C_20  and  C_21 
REMARK    8  A    between atoms: C_21  and  C_22 
ROOT
HETATM    1  C           1     -23.834  -4.666  -9.936  0.00  0.00     0.274 C 
ENDROOT
BRANCH   1   2
HETATM    2  N           1     -25.012  -3.817  -9.561  0.00  0.00    -0.067 N 
HETATM    3  H           1     -25.772  -3.945 -10.266  0.00  0.00     0.275 HD
HETATM    4  H           1     -25.360  -4.102  -8.618  0.00  0.00     0.275 HD
HETATM    5  H           1     -24.723  -2.812  -9.537  0.00  0.00     0.275 HD
ENDBRANCH   1   2
BRANCH   1   6
HETATM    6  C           1     -22.602  -4.157  -9.227  0.00  0.00     0.248 C 
HETATM    7  N           1     -22.588  -4.064  -7.862  0.00  0.00    -0.349 N 
HETATM    8  H           1     -23.404  -4.335  -7.328  0.00  0.00     0.163 HD
HETATM    9  O           1     -21.629  -3.833  -9.866  0.00  0.00    -0.271 OA
BRANCH   7  10
HETATM   10  C           1     -21.404  -3.575  -7.180  0.00  0.00     0.235 C 
BRANCH  10  11
HETATM   11  C           1     -20.695  -4.727  -6.515  0.00  0.00     0.191 C 
HETATM   12  O           1     -20.520  -5.798  -7.138  0.00  0.00    -0.647 OA
HETATM   13  O           1     -20.282  -4.613  -5.341  0.00  0.00    -0.647 OA
ENDBRANCH  10  11
ENDBRANCH   7  10
ENDBRANCH   1   6
BRANCH   1  14
HETATM   14  C           1     -23.618  -4.596 -11.442  0.00  0.00     0.044 C 
BRANCH  14  15
HETATM   15  C           1     -24.252  -3.324 -11.989  0.00  0.00     0.023 C 
BRANCH  15  16
HETATM   16  C           1     -23.646  -2.998 -13.348  0.00  0.00     0.138 C 
BRANCH  16  17
HETATM   17  N           1     -24.156  -1.701 -13.815  0.00  0.00    -0.227 N 
HETATM   18  C           1     -23.691  -1.181 -14.871  0.00  0.00     0.665 C 
HETATM   19  N           1     -24.132  -0.064 -15.273  0.00  0.00    -0.235 N 
HETATM   20  N           1     -22.763  -1.793 -15.543  0.00  0.00    -0.235 N 
HETATM   21  H           1     -23.746   0.367 -16.149  0.00  0.00     0.174 HD
HETATM   22  H           1     -24.882   0.431 -14.730  0.00  0.00     0.174 HD
HETATM   23  H           1     -22.380  -1.365 -16.415  0.00  0.00     0.174 HD
HETATM   24  H           1     -22.400  -2.716 -15.211  0.00  0.00     0.174 HD
HETATM   25  H           1     -24.907  -1.206 -13.272  0.00  0.00     0.177 HD
ENDBRANCH  16  17
ENDBRANCH  15  16
ENDBRANCH  14  15
ENDBRANCH   1  14
TORSDOF 8
ENDMDL
MODEL 6
REMARK VINA RESULT:      -6.6     11.732     13.028
REMARK  8 active torsions:
REMARK  status: ('A' for Active; 'I' for Inactive)
REMARK       I    between atoms: C_1  and  N_2 
REMARK       I    between atoms: C_1  and  N_3 
REMARK    1  A    between atoms: N_4  and  C_21 
REMARK    2  A    between atoms: N_5  and  C_6 
REMARK       I    between atoms: N_5  and  C_20 
REMARK    3  A    between atoms: C_6  and  C_12 
REMARK    4  A    between atoms: N_7  and  C_15 
REMARK    5  A    between atoms: C_15  and  C_19 
REMARK    6  A    between atoms: C_19  and  C_22 
REMARK    7  A    between atoms: C_20  and  C_21 
REMARK    8  A    between atoms: C_21  and  C_22 
ROOT
HETATM    1  C           1     -23.092  -3.589  -9.273  0.00  0.00     0.274 C 
ENDROOT
BRANCH   1   2
HETATM    2  N           1     -23.870  -4.041  -8.073  0.00  0.00    -0.067 N 
HETATM    3  H           1     -24.616  -4.709  -8.372  0.00  0.00     0.275 HD
HETATM    4  H           1     -23.226  -4.517  -7.400  0.00  0.00     0.275 HD
HETATM    5  H           1     -24.308  -3.213  -7.609  0.00  0.00     0.275 HD
ENDBRANCH   1   2
BRANCH   1   6
HETATM    6  C           1     -24.042  -3.321 -10.415  0.00  0.00     0.248 C 
HETATM    7  N           1     -23.557  -3.149 -11.683  0.00  0.00    -0.349 N 
HETATM    8  H           1     -22.561  -3.201 -11.854  0.00  0.00     0.163 HD
HETATM    9  O           1     -25.231  -3.258 -10.208  0.00  0.00    -0.271 OA
BRANCH   7  10
HETATM   10  C           1     -24.470  -2.891 -12.780  0.00  0.00     0.235 C 
BRANCH  10  11
HETATM   11  C           1     -23.697  -2.373 -13.967  0.00  0.00     0.191 C 
HETATM   12  O           1     -22.612  -2.905 -14.287  0.00  0.00    -0.647 OA
HETATM   13  O           1     -24.142  -1.412 -14.631  0.00  0.00    -0.647 OA
ENDBRANCH  10  11
ENDBRANCH   7  10
ENDBRANCH   1   6
BRANCH   1  14
HETATM   14  C           1     -22.105  -4.676  -9.677  0.00  0.00     0.044 C 
BRANCH  14  15
HETATM   15  C           1     -20.686  -4.128  -9.603  0.00  0.00     0.023 C 
BRANCH  15  16
HETATM   16  C           1     -20.089  -4.447  -8.238  0.00  0.00     0.138 C 
BRANCH  16  17
HETATM   17  N           1     -20.481  -5.806  -7.836  0.00  0.00    -0.227 N 
HETATM   18  C           1     -20.689  -6.070  -6.616  0.00  0.00     0.665 C 
HETATM   19  N           1     -21.028  -7.240  -6.271  0.00  0.00    -0.235 N 
HETATM   20  N           1     -20.557  -5.140  -5.718  0.00  0.00    -0.235 N 
HETATM   21  H           1     -21.200  -7.459  -5.259  0.00  0.00     0.174 HD
HETATM   22  H           1     -21.135  -7.992  -6.997  0.00  0.00     0.174 HD
HETATM   23  H           1     -20.730  -5.358  -4.711  0.00  0.00     0.174 HD
HETATM   24  H           1     -20.279  -4.174  -6.004  0.00  0.00     0.174 HD
HETATM   25  H           1     -20.589  -6.557  -8.563  0.00  0.00     0.177 HD
ENDBRANCH  16  17
ENDBRANCH  15  16
ENDBRANCH  14  15
ENDBRANCH   1  14
TORSDOF 8
ENDMDL
MODEL 7
REMARK VINA RESULT:      -6.4     13.283     14.816
REMARK  8 active torsions:
REMARK  status: ('A' for Active; 'I' for Inactive)
REMARK       I    between atoms: C_1  and  N_2 
REMARK       I    between atoms: C_1  and  N_3 
REMARK    1  A    between atoms: N_4  and  C_21 
REMARK    2  A    between atoms: N_5  and  C_6 
REMARK       I    between atoms: N_5  and  C_20 
REMARK    3  A    between atoms: C_6  and  C_12 
REMARK    4  A    between atoms: N_7  and  C_15 
REMARK    5  A    between atoms: C_15  and  C_19 
REMARK    6  A    between atoms: C_19  and  C_22 
REMARK    7  A    between atoms: C_20  and  C_21 
REMARK    8  A    between atoms: C_21  and  C_22 
ROOT
HETATM    1  C           1     -21.883  -4.862  -8.432  0.00  0.00     0.274 C 
ENDROOT
BRANCH   1   2
HETATM    2  N           1     -23.003  -4.024  -7.894  0.00  0.00    -0.067 N 
HETATM    3  H           1     -22.609  -3.200  -7.386  0.00  0.00     0.275 HD
HETATM    4  H           1     -23.601  -3.692  -8.684  0.00  0.00     0.275 HD
HETATM    5  H           1     -23.580  -4.595  -7.235  0.00  0.00     0.275 HD
ENDBRANCH   1   2
BRANCH   1   6
HETATM    6  C           1     -21.134  -5.496  -7.285  0.00  0.00     0.248 C 
HETATM    7  N           1     -21.478  -5.198  -5.995  0.00  0.00    -0.349 N 
HETATM    8  H           1     -22.234  -4.552  -5.810  0.00  0.00     0.163 HD
HETATM    9  O           1     -20.231  -6.268  -7.508  0.00  0.00    -0.271 OA
BRANCH   7  10
HETATM   10  C           1     -20.758  -5.807  -4.893  0.00  0.00     0.235 C 
BRANCH  10  11
HETATM   11  C           1     -21.714  -6.618  -4.054  0.00  0.00     0.191 C 
HETATM   12  O           1     -21.835  -7.846  -4.254  0.00  0.00    -0.647 OA
HETATM   13  O           1     -22.385  -6.061  -3.158  0.00  0.00    -0.647 OA
ENDBRANCH  10  11
ENDBRANCH   7  10
ENDBRANCH   1   6
BRANCH   1  14
HETATM   14  C           1     -20.933  -3.984  -9.236  0.00  0.00     0.044 C 
BRANCH  14  15
HETATM   15  C           1     -21.034  -4.343 -10.712  0.00  0.00     0.023 C 
BRANCH  15  16
HETATM   16  C           1     -22.103  -3.480 -11.372  0.00  0.00     0.138 C 
BRANCH  16  17
HETATM   17  N           1     -21.956  -3.548 -12.833  0.00  0.00    -0.227 N 
HETATM   18  C           1     -22.749  -2.904 -13.580  0.00  0.00     0.665 C 
HETATM   19  N           1     -22.622  -2.963 -14.838  0.00  0.00    -0.235 N 
HETATM   20  N           1     -23.694  -2.182 -13.055  0.00  0.00    -0.235 N 
HETATM   21  H           1     -23.280  -2.429 -15.457  0.00  0.00     0.174 HD
HETATM   22  H           1     -21.859  -3.546 -15.263  0.00  0.00     0.174 HD
HETATM   23  H           1     -24.348  -1.649 -13.671  0.00  0.00     0.174 HD
HETATM   24  H           1     -23.798  -2.133 -12.017  0.00  0.00     0.174 HD
HETATM   25  H           1     -21.192  -4.132 -13.257  0.00  0.00     0.177 HD
ENDBRANCH  16  17
ENDBRANCH  15  16
ENDBRANCH  14  15
ENDBRANCH   1  14
TORSDOF 8
ENDMDL
MODEL 8
REMARK VINA RESULT:      -6.2     12.829     13.953
REMARK  8 active torsions:
REMARK  status: ('A' for Active; 'I' for Inactive)
REMARK       I    between atoms: C_1  and  N_2 
REMARK       I    between atoms: C_1  and  N_3 
REMARK    1  A    between atoms: N_4  and  C_21 
REMARK    2  A    between atoms: N_5  and  C_6 
REMARK       I    between atoms: N_5  and  C_20 
REMARK    3  A    between atoms: C_6  and  C_12 
REMARK    4  A    between atoms: N_7  and  C_15 
REMARK    5  A    between atoms: C_15  and  C_19 
REMARK    6  A    between atoms: C_19  and  C_22 
REMARK    7  A    between atoms: C_20  and  C_21 
REMARK    8  A    between atoms: C_21  and  C_22 
ROOT
HETATM    1  C           1     -20.675  -4.273  -8.028  0.00  0.00     0.274 C 
ENDROOT
BRANCH   1   2
HETATM    2  N           1     -21.445  -3.428  -7.057  0.00  0.00    -0.067 N 
HETATM    3  H           1     -22.462  -3.662  -7.121  0.00  0.00     0.275 HD
HETATM    4  H           1     -21.106  -3.616  -6.087  0.00  0.00     0.275 HD
HETATM    5  H           1     -21.305  -2.418  -7.286  0.00  0.00     0.275 HD
ENDBRANCH   1   2
BRANCH   1   6
HETATM    6  C           1     -21.441  -4.373  -9.325  0.00  0.00     0.248 C 
HETATM    7  N           1     -22.805  -4.488  -9.307  0.00  0.00    -0.349 N 
HETATM    8  H           1     -23.299  -4.506  -8.424  0.00  0.00     0.163 HD
HETATM    9  O           1     -20.850  -4.351 -10.378  0.00  0.00    -0.271 OA
BRANCH   7  10
HETATM   10  C           1     -23.541  -4.584 -10.553  0.00  0.00     0.235 C 
BRANCH  10  11
HETATM   11  C           1     -24.548  -3.464 -10.631  0.00  0.00     0.191 C 
HETATM   12  O           1     -24.970  -3.079 -11.743  0.00  0.00    -0.647 OA
HETATM   13  O           1     -24.961  -2.921  -9.583  0.00  0.00    -0.647 OA
ENDBRANCH  10  11
ENDBRANCH   7  10
ENDBRANCH   1   6
BRANCH   1  14
HETATM   14  C           1     -20.480  -5.666  -7.444  0.00  0.00     0.044 C 
BRANCH  14  15
HETATM   15  C           1     -20.246  -5.560  -5.943  0.00  0.00     0.023 C 
BRANCH  15  16
HETATM   16  C           1     -21.076  -6.616  -5.224  0.00  0.00     0.138 C 
BRANCH  16  17
HETATM   17  N           1     -21.829  -5.988  -4.129  0.00  0.00    -0.227 N 
HETATM   18  C           1     -21.704  -6.420  -2.946  0.00  0.00     0.665 C 
HETATM   19  N           1     -22.351  -5.878  -2.002  0.00  0.00    -0.235 N 
HETATM   20  N           1     -20.911  -7.419  -2.699  0.00  0.00    -0.235 N 
HETATM   21  H           1     -22.248  -6.237  -1.021  0.00  0.00     0.174 HD
HETATM   22  H           1     -22.992  -5.070  -2.201  0.00  0.00     0.174 HD
HETATM   23  H           1     -20.807  -7.775  -1.723  0.00  0.00     0.174 HD
HETATM   24  H           1     -20.376  -7.866  -3.478  0.00  0.00     0.174 HD
HETATM   25  H           1     -22.469  -5.179  -4.328  0.00  0.00     0.177 HD
ENDBRANCH  16  17
ENDBRANCH  15  16
ENDBRANCH  14  15
ENDBRANCH   1  14
TORSDOF 8
ENDMDL
MODEL 9
REMARK VINA RESULT:      -6.2     12.508     13.772
REMARK  8 active torsions:
REMARK  status: ('A' for Active; 'I' for Inactive)
REMARK       I    between atoms: C_1  and  N_2 
REMARK       I    between atoms: C_1  and  N_3 
REMARK    1  A    between atoms: N_4  and  C_21 
REMARK    2  A    between atoms: N_5  and  C_6 
REMARK       I    between atoms: N_5  and  C_20 
REMARK    3  A    between atoms: C_6  and  C_12 
REMARK    4  A    between atoms: N_7  and  C_15 
REMARK    5  A    between atoms: C_15  and  C_19 
REMARK    6  A    between atoms: C_19  and  C_22 
REMARK    7  A    between atoms: C_20  and  C_21 
REMARK    8  A    between atoms: C_21  and  C_22 
ROOT
HETATM    1  C           1     -21.151  -4.437 -10.920  0.00  0.00     0.274 C 
ENDROOT
BRANCH   1   2
HETATM    2  N           1     -20.125  -3.430 -11.345  0.00  0.00    -0.067 N 
HETATM    3  H           1     -20.272  -3.183 -12.349  0.00  0.00     0.275 HD
HETATM    4  H           1     -20.218  -2.570 -10.758  0.00  0.00     0.275 HD
HETATM    5  H           1     -19.168  -3.834 -11.222  0.00  0.00     0.275 HD
ENDBRANCH   1   2
BRANCH   1   6
HETATM    6  C           1     -22.404  -4.254 -11.741  0.00  0.00     0.248 C 
HETATM    7  N           1     -22.399  -3.412 -12.820  0.00  0.00    -0.349 N 
HETATM    8  H           1     -21.554  -2.912 -13.067  0.00  0.00     0.163 HD
HETATM    9  O           1     -23.412  -4.852 -11.445  0.00  0.00    -0.271 OA
BRANCH   7  10
HETATM   10  C           1     -23.603  -3.236 -13.609  0.00  0.00     0.235 C 
BRANCH  10  11
HETATM   11  C           1     -23.335  -2.261 -14.727  0.00  0.00     0.191 C 
HETATM   12  O           1     -22.406  -2.476 -15.535  0.00  0.00    -0.647 OA
HETATM   13  O           1     -24.042  -1.237 -14.846  0.00  0.00    -0.647 OA
ENDBRANCH  10  11
ENDBRANCH   7  10
ENDBRANCH   1   6
BRANCH   1  14
HETATM   14  C           1     -21.476  -4.239  -9.445  0.00  0.00     0.044 C 
BRANCH  14  15
HETATM   15  C           1     -20.188  -4.002  -8.668  0.00  0.00     0.023 C 
BRANCH  15  16
HETATM   16  C           1     -19.854  -5.241  -7.848  0.00  0.00     0.138 C 
BRANCH  16  17
HETATM   17  N           1     -20.248  -5.025  -6.449  0.00  0.00    -0.227 N 
HETATM   18  C           1     -20.785  -5.963  -5.790  0.00  0.00     0.665 C 
HETATM   19  N           1     -21.124  -5.776  -4.584  0.00  0.00    -0.235 N 
HETATM   20  N           1     -20.988  -7.117  -6.351  0.00  0.00    -0.235 N 
HETATM   21  H           1     -21.570  -6.554  -4.038  0.00  0.00     0.174 HD
HETATM   22  H           1     -20.960  -4.843  -4.131  0.00  0.00     0.174 HD
HETATM   23  H           1     -21.431  -7.892  -5.807  0.00  0.00     0.174 HD
HETATM   24  H           1     -20.707  -7.271  -7.345  0.00  0.00     0.174 HD
HETATM   25  H           1     -20.084  -4.092  -5.995  0.00  0.00     0.177 HD
ENDBRANCH  16  17
ENDBRANCH  15  16
ENDBRANCH  14  15
ENDBRANCH   1  14
TORSDOF 8
ENDMDL
