MODEL 1
REMARK VINA RESULT:      -6.4      0.000      0.000
REMARK  5 active torsions:
REMARK  status: ('A' for Active; 'I' for Inactive)
REMARK    1  A    between atoms: C_2  and  C_18 
REMARK    2  A    between atoms: S_3  and  C_19 
REMARK       I    between atoms: C_9  and  N_11 
REMARK    3  A    between atoms: C_9  and  C_10 
REMARK    4  A    between atoms: N_11  and  C_18 
REMARK    5  A    between atoms: C_18  and  C_19 
ROOT
HETATM    1  H           1     -34.400  -6.911 -12.415  0.00  0.00     0.274 HD
HETATM    2  H           1     -35.043  -5.357 -12.121  0.00  0.00     0.274 HD
HETATM    3  C           1     -32.394  -5.273 -11.736  0.00  0.00     0.027 C 
HETATM    4  C           1     -33.467  -5.885 -10.846  0.00  0.00     0.229 C 
HETATM    5  C           1     -34.812  -2.687 -11.431  0.00  0.00     0.274 C 
HETATM    6  H           1     -35.341  -4.631 -12.005  0.00  0.00     0.275 HD
HETATM    7  N           1     -34.670  -6.226 -11.674  0.00  0.00    -0.079 N 
HETATM    8  C           1     -33.329  -3.008 -11.309  0.00  0.00     0.042 C 
HETATM    9  C           1     -32.935  -4.008 -12.388  0.00  0.00     0.004 C 
HETATM   10  H           1     -36.629  -3.724 -11.348  0.00  0.00     0.275 HD
HETATM   11  N           1     -35.612  -3.946 -11.264  0.00  0.00    -0.067 N 
HETATM   12  H           1     -35.421  -4.357 -10.322  0.00  0.00     0.275 HD
HETATM   13  H           1     -35.407  -6.646 -11.064  0.00  0.00     0.274 HD
ENDROOT
BRANCH   5  14
HETATM   14  C           1     -35.089  -2.094 -12.790  0.00  0.00     0.249 C 
HETATM   15  N           1     -35.731  -0.889 -12.894  0.00  0.00    -0.344 N 
HETATM   16  H           1     -36.020  -0.396 -12.059  0.00  0.00     0.163 HD
HETATM   17  O           1     -34.744  -2.682 -13.788  0.00  0.00    -0.271 OA
BRANCH  15  18
HETATM   18  C           1     -35.997  -0.319 -14.201  0.00  0.00     0.194 C 
BRANCH  18  19
HETATM   19  C           1     -35.200   0.951 -14.367  0.00  0.00     0.197 C 
HETATM   20  O           1     -34.301   1.236 -13.546  0.00  0.00    -0.646 OA
HETATM   21  O           1     -35.438   1.718 -15.324  0.00  0.00    -0.646 OA
ENDBRANCH  18  19
BRANCH  18  22
HETATM   22  C           1     -37.483  -0.007 -14.325  0.00  0.00     0.106 C 
BRANCH  22  23
HETATM   23  S           1     -38.071  -0.501 -15.969  0.00  0.00    -0.180 SA
HETATM   24  H           1     -37.371   0.423 -16.652  0.00  0.00     0.101 HD
ENDBRANCH  22  23
ENDBRANCH  18  22
ENDBRANCH  15  18
ENDBRANCH   5  14
TORSDOF 5
ENDMDL
MODEL 2
REMARK VINA RESULT:      -6.0     13.241     14.900
REMARK  5 active torsions:
REMARK  status: ('A' for Active; 'I' for Inactive)
REMARK    1  A    between atoms: C_2  and  C_18 
REMARK    2  A    between atoms: S_3  and  C_19 
REMARK       I    between atoms: C_9  and  N_11 
REMARK    3  A    between atoms: C_9  and  C_10 
REMARK    4  A    between atoms: N_11  and  C_18 
REMARK    5  A    between atoms: C_18  and  C_19 
ROOT
HETATM    1  H           1     -22.513  -6.217  -3.516  0.00  0.00     0.274 HD
HETATM    2  H           1     -21.537  -5.246  -4.525  0.00  0.00     0.274 HD
HETATM    3  C           1     -21.471  -7.762  -5.439  0.00  0.00     0.027 C 
HETATM    4  C           1     -20.786  -7.175  -4.212  0.00  0.00     0.229 C 
HETATM    5  C           1     -19.854  -4.854  -6.686  0.00  0.00     0.274 C 
HETATM    6  H           1     -21.101  -4.788  -5.005  0.00  0.00     0.275 HD
HETATM    7  N           1     -21.530  -5.956  -3.758  0.00  0.00    -0.079 N 
HETATM    8  C           1     -20.052  -6.347  -6.911  0.00  0.00     0.042 C 
HETATM    9  C           1     -21.483  -6.729  -6.557  0.00  0.00     0.004 C 
HETATM   10  H           1     -19.983  -3.501  -5.093  0.00  0.00     0.275 HD
HETATM   11  N           1     -20.119  -4.526  -5.246  0.00  0.00    -0.067 N 
HETATM   12  H           1     -19.456  -5.060  -4.640  0.00  0.00     0.275 HD
HETATM   13  H           1     -21.060  -5.552  -2.916  0.00  0.00     0.274 HD
ENDROOT
BRANCH   5  14
HETATM   14  C           1     -20.811  -4.082  -7.561  0.00  0.00     0.249 C 
HETATM   15  N           1     -20.975  -4.433  -8.874  0.00  0.00    -0.344 N 
HETATM   16  H           1     -20.455  -5.212  -9.258  0.00  0.00     0.163 HD
HETATM   17  O           1     -21.433  -3.153  -7.102  0.00  0.00    -0.271 OA
BRANCH  15  18
HETATM   18  C           1     -21.895  -3.691  -9.714  0.00  0.00     0.194 C 
BRANCH  18  19
HETATM   19  C           1     -23.271  -4.302  -9.614  0.00  0.00     0.197 C 
HETATM   20  O           1     -23.517  -5.385 -10.187  0.00  0.00    -0.646 OA
HETATM   21  O           1     -24.166  -3.724  -8.959  0.00  0.00    -0.646 OA
ENDBRANCH  18  19
BRANCH  18  22
HETATM   22  C           1     -21.418  -3.745 -11.160  0.00  0.00     0.106 C 
BRANCH  22  23
HETATM   23  S           1     -22.524  -2.750 -12.200  0.00  0.00    -0.180 SA
HETATM   24  H           1     -23.238  -3.786 -12.676  0.00  0.00     0.101 HD
ENDBRANCH  22  23
ENDBRANCH  18  22
ENDBRANCH  15  18
ENDBRANCH   5  14
TORSDOF 5
ENDMDL
MODEL 3
REMARK VINA RESULT:      -5.8     14.992     16.863
REMARK  5 active torsions:
REMARK  status: ('A' for Active; 'I' for Inactive)
REMARK    1  A    between atoms: C_2  and  C_18 
REMARK    2  A    between atoms: S_3  and  C_19 
REMARK       I    between atoms: C_9  and  N_11 
REMARK    3  A    between atoms: C_9  and  C_10 
REMARK    4  A    between atoms: N_11  and  C_18 
REMARK    5  A    between atoms: C_18  and  C_19 
ROOT
HETATM    1  H           1     -20.562  -5.427 -11.230  0.00  0.00     0.274 HD
HETATM    2  H           1     -20.096  -5.274  -9.595  0.00  0.00     0.274 HD
HETATM    3  C           1     -22.363  -3.899  -9.969  0.00  0.00     0.027 C 
HETATM    4  C           1     -20.949  -3.541 -10.406  0.00  0.00     0.229 C 
HETATM    5  C           1     -20.435  -4.330  -7.015  0.00  0.00     0.274 C 
HETATM    6  H           1     -19.889  -5.221  -8.830  0.00  0.00     0.275 HD
HETATM    7  N           1     -20.129  -4.792 -10.522  0.00  0.00    -0.079 N 
HETATM    8  C           1     -21.686  -3.677  -7.586  0.00  0.00     0.042 C 
HETATM    9  C           1     -22.317  -4.601  -8.620  0.00  0.00     0.004 C 
HETATM   10  H           1     -18.598  -5.035  -7.729  0.00  0.00     0.275 HD
HETATM   11  N           1     -19.455  -4.586  -8.122  0.00  0.00    -0.067 N 
HETATM   12  H           1     -19.199  -3.681  -8.577  0.00  0.00     0.275 HD
HETATM   13  H           1     -19.158  -4.548 -10.821  0.00  0.00     0.274 HD
ENDROOT
BRANCH   5  14
HETATM   14  C           1     -20.805  -5.638  -6.360  0.00  0.00     0.249 C 
HETATM   15  N           1     -20.938  -5.708  -4.999  0.00  0.00    -0.344 N 
HETATM   16  H           1     -20.789  -4.883  -4.432  0.00  0.00     0.163 HD
HETATM   17  O           1     -20.983  -6.623  -7.036  0.00  0.00    -0.271 OA
BRANCH  15  18
HETATM   18  C           1     -21.293  -6.966  -4.369  0.00  0.00     0.194 C 
BRANCH  18  19
HETATM   19  C           1     -21.597  -6.729  -2.911  0.00  0.00     0.197 C 
HETATM   20  O           1     -22.496  -5.925  -2.583  0.00  0.00    -0.646 OA
HETATM   21  O           1     -20.949  -7.335  -2.030  0.00  0.00    -0.646 OA
ENDBRANCH  18  19
BRANCH  18  22
HETATM   22  C           1     -20.129  -7.941  -4.494  0.00  0.00     0.106 C 
BRANCH  22  23
HETATM   23  S           1     -20.761  -9.587  -4.927  0.00  0.00    -0.180 SA
HETATM   24  H           1     -20.917  -9.336  -6.239  0.00  0.00     0.101 HD
ENDBRANCH  22  23
ENDBRANCH  18  22
ENDBRANCH  15  18
ENDBRANCH   5  14
TORSDOF 5
ENDMDL
MODEL 4
REMARK VINA RESULT:      -5.8      1.768      2.140
REMARK  5 active torsions:
REMARK  status: ('A' for Active; 'I' for Inactive)
REMARK    1  A    between atoms: C_2  and  C_18 
REMARK    2  A    between atoms: S_3  and  C_19 
REMARK       I    between atoms: C_9  and  N_11 
REMARK    3  A    between atoms: C_9  and  C_10 
REMARK    4  A    between atoms: N_11  and  C_18 
REMARK    5  A    between atoms: C_18  and  C_19 
ROOT
HETATM    1  H           1     -34.721  -6.091 -12.617  0.00  0.00     0.274 HD
HETATM    2  H           1     -35.387  -4.730 -11.831  0.00  0.00     0.274 HD
HETATM    3  C           1     -32.740  -4.380 -12.050  0.00  0.00     0.027 C 
HETATM    4  C           1     -33.506  -5.298 -11.106  0.00  0.00     0.229 C 
HETATM    5  C           1     -35.197  -2.253 -10.611  0.00  0.00     0.274 C 
HETATM    6  H           1     -35.701  -4.088 -11.485  0.00  0.00     0.275 HD
HETATM    7  N           1     -34.848  -5.615 -11.695  0.00  0.00    -0.079 N 
HETATM    8  C           1     -33.710  -2.395 -10.907  0.00  0.00     0.042 C 
HETATM    9  C           1     -33.523  -3.090 -12.250  0.00  0.00     0.004 C 
HETATM   10  H           1     -36.849  -3.514 -10.360  0.00  0.00     0.275 HD
HETATM   11  N           1     -35.830  -3.613 -10.563  0.00  0.00    -0.067 N 
HETATM   12  H           1     -35.377  -4.181  -9.812  0.00  0.00     0.275 HD
HETATM   13  H           1     -35.374  -6.245 -11.048  0.00  0.00     0.274 HD
ENDROOT
BRANCH   5  14
HETATM   14  C           1     -35.851  -1.433 -11.696  0.00  0.00     0.249 C 
HETATM   15  N           1     -35.083  -0.825 -12.652  0.00  0.00    -0.344 N 
HETATM   16  H           1     -34.076  -0.926 -12.632  0.00  0.00     0.163 HD
HETATM   17  O           1     -37.053  -1.314 -11.721  0.00  0.00    -0.271 OA
BRANCH  15  18
HETATM   18  C           1     -35.712  -0.037 -13.694  0.00  0.00     0.194 C 
BRANCH  18  19
HETATM   19  C           1     -35.974  -0.912 -14.896  0.00  0.00     0.197 C 
HETATM   20  O           1     -37.113  -0.941 -15.410  0.00  0.00    -0.646 OA
HETATM   21  O           1     -35.053  -1.608 -15.375  0.00  0.00    -0.646 OA
ENDBRANCH  18  19
BRANCH  18  22
HETATM   22  C           1     -34.790   1.108 -14.091  0.00  0.00     0.106 C 
BRANCH  22  23
HETATM   23  S           1     -35.503   2.001 -15.501  0.00  0.00    -0.180 SA
HETATM   24  H           1     -36.383   1.042 -15.843  0.00  0.00     0.101 HD
ENDBRANCH  22  23
ENDBRANCH  18  22
ENDBRANCH  15  18
ENDBRANCH   5  14
TORSDOF 5
ENDMDL
MODEL 5
REMARK VINA RESULT:      -5.7     12.883     14.789
REMARK  5 active torsions:
REMARK  status: ('A' for Active; 'I' for Inactive)
REMARK    1  A    between atoms: C_2  and  C_18 
REMARK    2  A    between atoms: S_3  and  C_19 
REMARK       I    between atoms: C_9  and  N_11 
REMARK    3  A    between atoms: C_9  and  C_10 
REMARK    4  A    between atoms: N_11  and  C_18 
REMARK    5  A    between atoms: C_18  and  C_19 
ROOT
HETATM    1  H           1     -25.123  -1.981 -12.171  0.00  0.00     0.274 HD
HETATM    2  H           1     -24.646  -3.322 -11.229  0.00  0.00     0.274 HD
HETATM    3  C           1     -22.550  -2.511 -12.686  0.00  0.00     0.027 C 
HETATM    4  C           1     -23.789  -3.272 -13.140  0.00  0.00     0.229 C 
HETATM    5  C           1     -22.796  -5.187 -10.361  0.00  0.00     0.274 C 
HETATM    6  H           1     -24.420  -3.932 -10.775  0.00  0.00     0.275 HD
HETATM    7  N           1     -24.917  -3.005 -12.188  0.00  0.00    -0.079 N 
HETATM    8  C           1     -21.852  -4.463 -11.312  0.00  0.00     0.042 C 
HETATM    9  C           1     -22.154  -2.971 -11.290  0.00  0.00     0.004 C 
HETATM   10  H           1     -24.860  -5.453 -10.137  0.00  0.00     0.275 HD
HETATM   11  N           1     -24.214  -4.957 -10.791  0.00  0.00    -0.067 N 
HETATM   12  H           1     -24.348  -5.323 -11.760  0.00  0.00     0.275 HD
HETATM   13  H           1     -25.767  -3.527 -12.498  0.00  0.00     0.274 HD
ENDROOT
BRANCH   5  14
HETATM   14  C           1     -22.603  -4.657  -8.961  0.00  0.00     0.249 C 
HETATM   15  N           1     -21.635  -5.190  -8.153  0.00  0.00    -0.344 N 
HETATM   16  H           1     -21.048  -5.940  -8.495  0.00  0.00     0.163 HD
HETATM   17  O           1     -23.304  -3.761  -8.553  0.00  0.00    -0.271 OA
BRANCH  15  18
HETATM   18  C           1     -21.451  -4.680  -6.808  0.00  0.00     0.194 C 
BRANCH  18  19
HETATM   19  C           1     -19.976  -4.576  -6.508  0.00  0.00     0.197 C 
HETATM   20  O           1     -19.144  -4.629  -7.439  0.00  0.00    -0.646 OA
HETATM   21  O           1     -19.586  -4.438  -5.328  0.00  0.00    -0.646 OA
ENDBRANCH  18  19
BRANCH  18  22
HETATM   22  C           1     -22.107  -5.629  -5.812  0.00  0.00     0.106 C 
BRANCH  22  23
HETATM   23  S           1     -21.255  -7.231  -5.850  0.00  0.00    -0.180 SA
HETATM   24  H           1     -20.209  -6.816  -6.588  0.00  0.00     0.101 HD
ENDBRANCH  22  23
ENDBRANCH  18  22
ENDBRANCH  15  18
ENDBRANCH   5  14
TORSDOF 5
ENDMDL
MODEL 6
REMARK VINA RESULT:      -5.5      1.844      2.216
REMARK  5 active torsions:
REMARK  status: ('A' for Active; 'I' for Inactive)
REMARK    1  A    between atoms: C_2  and  C_18 
REMARK    2  A    between atoms: S_3  and  C_19 
REMARK       I    between atoms: C_9  and  N_11 
REMARK    3  A    between atoms: C_9  and  C_10 
REMARK    4  A    between atoms: N_11  and  C_18 
REMARK    5  A    between atoms: C_18  and  C_19 
ROOT
HETATM    1  H           1     -34.833  -5.951 -12.698  0.00  0.00     0.274 HD
HETATM    2  H           1     -35.319  -4.387 -12.216  0.00  0.00     0.274 HD
HETATM    3  C           1     -32.747  -4.725 -11.552  0.00  0.00     0.027 C 
HETATM    4  C           1     -33.987  -5.314 -10.892  0.00  0.00     0.229 C 
HETATM    5  C           1     -34.862  -1.910 -11.070  0.00  0.00     0.274 C 
HETATM    6  H           1     -35.541  -3.653 -12.012  0.00  0.00     0.275 HD
HETATM    7  N           1     -35.110  -5.357 -11.885  0.00  0.00    -0.079 N 
HETATM    8  C           1     -33.454  -2.446 -10.851  0.00  0.00     0.042 C 
HETATM    9  C           1     -33.050  -3.314 -12.036  0.00  0.00     0.004 C 
HETATM   10  H           1     -36.785  -2.690 -11.349  0.00  0.00     0.275 HD
HETATM   11  N           1     -35.819  -3.059 -11.199  0.00  0.00    -0.067 N 
HETATM   12  H           1     -35.796  -3.631 -10.325  0.00  0.00     0.275 HD
HETATM   13  H           1     -35.961  -5.760 -11.433  0.00  0.00     0.274 HD
ENDROOT
BRANCH   5  14
HETATM   14  C           1     -34.897  -1.085 -12.333  0.00  0.00     0.249 C 
HETATM   15  N           1     -35.327  -1.644 -13.506  0.00  0.00    -0.344 N 
HETATM   16  H           1     -35.623  -2.612 -13.526  0.00  0.00     0.163 HD
HETATM   17  O           1     -34.545   0.071 -12.308  0.00  0.00    -0.271 OA
BRANCH  15  18
HETATM   18  C           1     -35.360  -0.850 -14.718  0.00  0.00     0.194 C 
BRANCH  18  19
HETATM   19  C           1     -36.741  -0.271 -14.902  0.00  0.00     0.197 C 
HETATM   20  O           1     -36.922   0.674 -15.701  0.00  0.00    -0.646 OA
HETATM   21  O           1     -37.705  -0.735 -14.255  0.00  0.00    -0.646 OA
ENDBRANCH  18  19
BRANCH  18  22
HETATM   22  C           1     -35.016  -1.732 -15.912  0.00  0.00     0.106 C 
BRANCH  22  23
HETATM   23  S           1     -34.613  -3.404 -15.333  0.00  0.00    -0.180 SA
HETATM   24  H           1     -35.631  -4.019 -15.962  0.00  0.00     0.101 HD
ENDBRANCH  22  23
ENDBRANCH  18  22
ENDBRANCH  15  18
ENDBRANCH   5  14
TORSDOF 5
ENDMDL
MODEL 7
REMARK VINA RESULT:      -5.2     17.059     19.108
REMARK  5 active torsions:
REMARK  status: ('A' for Active; 'I' for Inactive)
REMARK    1  A    between atoms: C_2  and  C_18 
REMARK    2  A    between atoms: S_3  and  C_19 
REMARK       I    between atoms: C_9  and  N_11 
REMARK    3  A    between atoms: C_9  and  C_10 
REMARK    4  A    between atoms: N_11  and  C_18 
REMARK    5  A    between atoms: C_18  and  C_19 
ROOT
HETATM    1  H           1     -21.537  -8.750  -6.277  0.00  0.00     0.274 HD
HETATM    2  H           1     -21.021  -8.721  -4.650  0.00  0.00     0.274 HD
HETATM    3  C           1     -22.042  -6.323  -5.266  0.00  0.00     0.027 C 
HETATM    4  C           1     -20.705  -6.924  -5.678  0.00  0.00     0.229 C 
HETATM    5  C           1     -20.656  -7.478  -2.204  0.00  0.00     0.274 C 
HETATM    6  H           1     -20.800  -8.716  -3.887  0.00  0.00     0.275 HD
HETATM    7  N           1     -20.790  -8.420  -5.624  0.00  0.00    -0.079 N 
HETATM    8  C           1     -21.293  -6.280  -2.895  0.00  0.00     0.042 C 
HETATM    9  C           1     -22.380  -6.760  -3.848  0.00  0.00     0.004 C 
HETATM   10  H           1     -19.616  -9.208  -2.760  0.00  0.00     0.275 HD
HETATM   11  N           1     -20.053  -8.386  -3.235  0.00  0.00    -0.067 N 
HETATM   12  H           1     -19.324  -7.866  -3.773  0.00  0.00     0.275 HD
HETATM   13  H           1     -19.873  -8.833  -5.907  0.00  0.00     0.274 HD
ENDROOT
BRANCH   5  14
HETATM   14  C           1     -21.708  -8.230  -1.427  0.00  0.00     0.249 C 
HETATM   15  N           1     -21.790  -9.593  -1.526  0.00  0.00    -0.344 N 
HETATM   16  H           1     -21.144 -10.097  -2.120  0.00  0.00     0.163 HD
HETATM   17  O           1     -22.479  -7.628  -0.717  0.00  0.00    -0.271 OA
BRANCH  15  18
HETATM   18  C           1     -22.801 -10.314  -0.778  0.00  0.00     0.194 C 
BRANCH  18  19
HETATM   19  C           1     -22.138 -11.138   0.298  0.00  0.00     0.197 C 
HETATM   20  O           1     -21.097 -10.722   0.850  0.00  0.00    -0.646 OA
HETATM   21  O           1     -22.630 -12.236   0.637  0.00  0.00    -0.646 OA
ENDBRANCH  18  19
BRANCH  18  22
HETATM   22  C           1     -23.569 -11.233  -1.721  0.00  0.00     0.106 C 
BRANCH  22  23
HETATM   23  S           1     -22.625 -11.453  -3.255  0.00  0.00    -0.180 SA
HETATM   24  H           1     -23.465 -10.752  -4.038  0.00  0.00     0.101 HD
ENDBRANCH  22  23
ENDBRANCH  18  22
ENDBRANCH  15  18
ENDBRANCH   5  14
TORSDOF 5
ENDMDL
MODEL 8
REMARK VINA RESULT:      -5.2     14.964     16.650
REMARK  5 active torsions:
REMARK  status: ('A' for Active; 'I' for Inactive)
REMARK    1  A    between atoms: C_2  and  C_18 
REMARK    2  A    between atoms: S_3  and  C_19 
REMARK       I    between atoms: C_9  and  N_11 
REMARK    3  A    between atoms: C_9  and  C_10 
REMARK    4  A    between atoms: N_11  and  C_18 
REMARK    5  A    between atoms: C_18  and  C_19 
ROOT
HETATM    1  H           1     -20.480  -5.423 -11.310  0.00  0.00     0.274 HD
HETATM    2  H           1     -20.063  -4.717  -9.813  0.00  0.00     0.274 HD
HETATM    3  C           1     -22.733  -4.790 -10.009  0.00  0.00     0.027 C 
HETATM    4  C           1     -21.750  -3.867 -10.718  0.00  0.00     0.229 C 
HETATM    5  C           1     -20.685  -3.558  -7.379  0.00  0.00     0.274 C 
HETATM    6  H           1     -19.866  -4.408  -9.109  0.00  0.00     0.275 HD
HETATM    7  N           1     -20.404  -4.524 -10.783  0.00  0.00    -0.079 N 
HETATM    8  C           1     -22.126  -3.763  -7.827  0.00  0.00     0.042 C 
HETATM    9  C           1     -22.238  -5.072  -8.597  0.00  0.00     0.004 C 
HETATM   10  H           1     -18.802  -3.368  -8.273  0.00  0.00     0.275 HD
HETATM   11  N           1     -19.789  -3.509  -8.581  0.00  0.00    -0.067 N 
HETATM   12  H           1     -20.078  -2.717  -9.199  0.00  0.00     0.275 HD
HETATM   13  H           1     -19.728  -3.892 -11.269  0.00  0.00     0.274 HD
ENDROOT
BRANCH   5  14
HETATM   14  C           1     -20.267  -4.702  -6.488  0.00  0.00     0.249 C 
HETATM   15  N           1     -21.157  -5.235  -5.595  0.00  0.00    -0.344 N 
HETATM   16  H           1     -22.096  -4.863  -5.532  0.00  0.00     0.163 HD
HETATM   17  O           1     -19.147  -5.147  -6.564  0.00  0.00    -0.271 OA
BRANCH  15  18
HETATM   18  C           1     -20.755  -6.335  -4.739  0.00  0.00     0.194 C 
BRANCH  18  19
HETATM   19  C           1     -20.616  -7.589  -5.566  0.00  0.00     0.197 C 
HETATM   20  O           1     -21.554  -7.957  -6.306  0.00  0.00    -0.646 OA
HETATM   21  O           1     -19.563  -8.262  -5.509  0.00  0.00    -0.646 OA
ENDBRANCH  18  19
BRANCH  18  22
HETATM   22  C           1     -21.809  -6.550  -3.661  0.00  0.00     0.106 C 
BRANCH  22  23
HETATM   23  S           1     -21.079  -7.465  -2.273  0.00  0.00    -0.180 SA
HETATM   24  H           1     -20.199  -6.509  -1.924  0.00  0.00     0.101 HD
ENDBRANCH  22  23
ENDBRANCH  18  22
ENDBRANCH  15  18
ENDBRANCH   5  14
TORSDOF 5
ENDMDL
MODEL 9
REMARK VINA RESULT:      -5.2     17.528     19.091
REMARK  5 active torsions:
REMARK  status: ('A' for Active; 'I' for Inactive)
REMARK    1  A    between atoms: C_2  and  C_18 
REMARK    2  A    between atoms: S_3  and  C_19 
REMARK       I    between atoms: C_9  and  N_11 
REMARK    3  A    between atoms: C_9  and  C_10 
REMARK    4  A    between atoms: N_11  and  C_18 
REMARK    5  A    between atoms: C_18  and  C_19 
ROOT
HETATM    1  H           1     -21.724 -12.359   1.934  0.00  0.00     0.274 HD
HETATM    2  H           1     -21.152 -11.993   0.368  0.00  0.00     0.274 HD
HETATM    3  C           1     -23.826 -11.837   0.359  0.00  0.00     0.027 C 
HETATM    4  C           1     -22.944 -13.078   0.391  0.00  0.00     0.229 C 
HETATM    5  C           1     -21.514 -11.298  -2.286  0.00  0.00     0.274 C 
HETATM    6  H           1     -20.883 -11.803  -0.354  0.00  0.00     0.275 HD
HETATM    7  N           1     -21.603 -12.725   0.963  0.00  0.00    -0.079 N 
HETATM    8  C           1     -22.993 -11.302  -1.923  0.00  0.00     0.042 C 
HETATM    9  C           1     -23.171 -10.770  -0.507  0.00  0.00     0.004 C 
HETATM   10  H           1     -19.747 -12.166  -1.575  0.00  0.00     0.275 HD
HETATM   11  N           1     -20.761 -12.169  -1.325  0.00  0.00    -0.067 N 
HETATM   12  H           1     -21.130 -13.146  -1.378  0.00  0.00     0.275 HD
HETATM   13  H           1     -20.997 -13.576   0.985  0.00  0.00     0.274 HD
ENDROOT
BRANCH   5  14
HETATM   14  C           1     -20.981  -9.888  -2.209  0.00  0.00     0.249 C 
HETATM   15  N           1     -21.638  -8.871  -2.849  0.00  0.00    -0.344 N 
HETATM   16  H           1     -22.481  -9.065  -3.373  0.00  0.00     0.163 HD
HETATM   17  O           1     -19.975  -9.657  -1.582  0.00  0.00    -0.271 OA
BRANCH  15  18
HETATM   18  C           1     -21.125  -7.517  -2.774  0.00  0.00     0.194 C 
BRANCH  18  19
HETATM   19  C           1     -21.960  -6.716  -1.806  0.00  0.00     0.197 C 
HETATM   20  O           1     -22.325  -5.558  -2.106  0.00  0.00    -0.646 OA
HETATM   21  O           1     -22.286  -7.209  -0.705  0.00  0.00    -0.646 OA
ENDBRANCH  18  19
BRANCH  18  22
HETATM   22  C           1     -21.188  -6.874  -4.154  0.00  0.00     0.106 C 
BRANCH  22  23
HETATM   23  S           1     -20.076  -7.756  -5.285  0.00  0.00    -0.180 SA
HETATM   24  H           1     -20.247  -8.970  -4.732  0.00  0.00     0.101 HD
ENDBRANCH  22  23
ENDBRANCH  18  22
ENDBRANCH  15  18
ENDBRANCH   5  14
TORSDOF 5
ENDMDL
