MODEL 1
REMARK VINA RESULT:      -7.6      0.000      0.000
REMARK  8 active torsions:
REMARK  status: ('A' for Active; 'I' for Inactive)
REMARK    1  A    between atoms: N_1  and  C_8 
REMARK       I    between atoms: N_1  and  C_21 
REMARK       I    between atoms: N_4  and  C_5 
REMARK    2  A    between atoms: C_5  and  C_19 
REMARK    3  A    between atoms: C_7  and  C_8 
REMARK    4  A    between atoms: C_8  and  C_19 
REMARK    5  A    between atoms: C_13  and  C_20 
REMARK    6  A    between atoms: C_13  and  C_14 
REMARK    7  A    between atoms: N_15  and  C_20 
REMARK    8  A    between atoms: C_20  and  C_21 
ROOT
HETATM    1  N           1     -23.298  -4.257  -8.776  0.00  0.00    -0.344 N 
HETATM    2  H           1     -24.145  -4.709  -8.458  0.00  0.00     0.163 HD
HETATM    3  O           1     -21.185  -3.677  -8.344  0.00  0.00    -0.271 OA
HETATM    4  C           1     -22.196  -4.218  -7.965  0.00  0.00     0.249 C 
ENDROOT
BRANCH   4   5
HETATM    5  C           1     -22.244  -4.851  -6.596  0.00  0.00     0.278 C 
BRANCH   5   6
HETATM    6  C           1     -21.354  -6.087  -6.576  0.00  0.00     0.081 C 
BRANCH   6   7
HETATM    7  C           1     -21.372  -6.694  -5.207  0.00  0.00    -0.056 A 
HETATM    8  C           1     -21.256  -5.878  -4.081  0.00  0.00     0.007 A 
HETATM    9  C           1     -21.273  -6.443  -2.807  0.00  0.00     0.001 A 
HETATM   10  C           1     -21.406  -7.824  -2.657  0.00  0.00     0.000 A 
HETATM   11  C           1     -21.523  -8.640  -3.783  0.00  0.00     0.001 A 
HETATM   12  C           1     -21.506  -8.073  -5.058  0.00  0.00     0.007 A 
ENDBRANCH   6   7
ENDBRANCH   5   6
BRANCH   5  13
HETATM   13  N           1     -23.656  -5.246  -6.278  0.00  0.00    -0.066 N 
HETATM   14  H           1     -24.306  -4.480  -6.567  0.00  0.00     0.275 HD
HETATM   15  H           1     -23.748  -5.411  -5.250  0.00  0.00     0.275 HD
HETATM   16  H           1     -23.896  -6.122  -6.794  0.00  0.00     0.275 HD
ENDBRANCH   5  13
ENDBRANCH   4   5
BRANCH   1  17
HETATM   17  C           1     -23.252  -3.649 -10.092  0.00  0.00     0.194 C 
BRANCH  17  18
HETATM   18  C           1     -24.649  -3.274 -10.522  0.00  0.00     0.197 C 
HETATM   19  O           1     -24.898  -3.075 -11.730  0.00  0.00    -0.646 OA
HETATM   20  O           1     -25.557  -3.164  -9.670  0.00  0.00    -0.646 OA
ENDBRANCH  17  18
BRANCH  17  21
HETATM   21  C           1     -22.663  -4.639 -11.088  0.00  0.00     0.138 C 
BRANCH  21  22
HETATM   22  C           1     -21.615  -3.948 -11.926  0.00  0.00     0.217 C 
HETATM   23  N           1     -21.955  -3.402 -13.135  0.00  0.00    -0.370 N 
HETATM   24  H           1     -22.909  -3.463 -13.467  0.00  0.00     0.159 HD
HETATM   25  H           1     -21.252  -2.939 -13.696  0.00  0.00     0.159 HD
HETATM   26  O           1     -20.476  -3.876 -11.530  0.00  0.00    -0.274 OA
ENDBRANCH  21  22
ENDBRANCH  17  21
ENDBRANCH   1  17
TORSDOF 8
ENDMDL
MODEL 2
REMARK VINA RESULT:      -7.3      3.457      7.698
REMARK  8 active torsions:
REMARK  status: ('A' for Active; 'I' for Inactive)
REMARK    1  A    between atoms: N_1  and  C_8 
REMARK       I    between atoms: N_1  and  C_21 
REMARK       I    between atoms: N_4  and  C_5 
REMARK    2  A    between atoms: C_5  and  C_19 
REMARK    3  A    between atoms: C_7  and  C_8 
REMARK    4  A    between atoms: C_8  and  C_19 
REMARK    5  A    between atoms: C_13  and  C_20 
REMARK    6  A    between atoms: C_13  and  C_14 
REMARK    7  A    between atoms: N_15  and  C_20 
REMARK    8  A    between atoms: C_20  and  C_21 
ROOT
HETATM    1  N           1     -21.624  -6.861  -5.112  0.00  0.00    -0.344 N 
HETATM    2  H           1     -22.386  -7.434  -5.447  0.00  0.00     0.163 HD
HETATM    3  O           1     -20.467  -4.959  -5.288  0.00  0.00    -0.271 OA
HETATM    4  C           1     -21.378  -5.644  -5.687  0.00  0.00     0.249 C 
ENDROOT
BRANCH   4   5
HETATM    5  C           1     -22.246  -5.156  -6.821  0.00  0.00     0.278 C 
BRANCH   5   6
HETATM    6  C           1     -21.680  -3.854  -7.372  0.00  0.00     0.081 C 
BRANCH   6   7
HETATM    7  C           1     -21.622  -3.927  -8.867  0.00  0.00    -0.056 A 
HETATM    8  C           1     -22.778  -3.721  -9.620  0.00  0.00     0.007 A 
HETATM    9  C           1     -22.723  -3.789 -11.012  0.00  0.00     0.001 A 
HETATM   10  C           1     -21.513  -4.062 -11.650  0.00  0.00     0.000 A 
HETATM   11  C           1     -20.357  -4.266 -10.897  0.00  0.00     0.001 A 
HETATM   12  C           1     -20.412  -4.198  -9.505  0.00  0.00     0.007 A 
ENDBRANCH   6   7
ENDBRANCH   5   6
BRANCH   5  13
HETATM   13  N           1     -23.640  -4.921  -6.318  0.00  0.00    -0.066 N 
HETATM   14  H           1     -24.299  -4.877  -7.128  0.00  0.00     0.275 HD
HETATM   15  H           1     -23.674  -4.019  -5.793  0.00  0.00     0.275 HD
HETATM   16  H           1     -23.917  -5.704  -5.685  0.00  0.00     0.275 HD
ENDBRANCH   5  13
ENDBRANCH   4   5
BRANCH   1  17
HETATM   17  C           1     -20.789  -7.330  -4.022  0.00  0.00     0.194 C 
BRANCH  17  18
HETATM   18  C           1     -19.866  -8.412  -4.525  0.00  0.00     0.197 C 
HETATM   19  O           1     -18.996  -8.892  -3.767  0.00  0.00    -0.646 OA
HETATM   20  O           1     -19.973  -8.829  -5.698  0.00  0.00    -0.646 OA
ENDBRANCH  17  18
BRANCH  17  21
HETATM   21  C           1     -21.670  -7.889  -2.913  0.00  0.00     0.138 C 
BRANCH  21  22
HETATM   22  C           1     -22.020  -6.788  -1.943  0.00  0.00     0.217 C 
HETATM   23  N           1     -22.326  -7.093  -0.643  0.00  0.00    -0.370 N 
HETATM   24  H           1     -22.318  -8.055  -0.334  0.00  0.00     0.159 HD
HETATM   25  H           1     -22.560  -6.353   0.008  0.00  0.00     0.159 HD
HETATM   26  O           1     -22.030  -5.638  -2.312  0.00  0.00    -0.274 OA
ENDBRANCH  21  22
ENDBRANCH  17  21
ENDBRANCH   1  17
TORSDOF 8
ENDMDL
MODEL 3
REMARK VINA RESULT:      -6.8      5.408      8.742
REMARK  8 active torsions:
REMARK  status: ('A' for Active; 'I' for Inactive)
REMARK    1  A    between atoms: N_1  and  C_8 
REMARK       I    between atoms: N_1  and  C_21 
REMARK       I    between atoms: N_4  and  C_5 
REMARK    2  A    between atoms: C_5  and  C_19 
REMARK    3  A    between atoms: C_7  and  C_8 
REMARK    4  A    between atoms: C_8  and  C_19 
REMARK    5  A    between atoms: C_13  and  C_20 
REMARK    6  A    between atoms: C_13  and  C_14 
REMARK    7  A    between atoms: N_15  and  C_20 
REMARK    8  A    between atoms: C_20  and  C_21 
ROOT
HETATM    1  N           1     -21.253  -8.586  -2.555  0.00  0.00    -0.344 N 
HETATM    2  H           1     -22.149  -8.181  -2.791  0.00  0.00     0.163 HD
HETATM    3  O           1     -19.133  -8.965  -3.147  0.00  0.00    -0.271 OA
HETATM    4  C           1     -20.203  -8.480  -3.427  0.00  0.00     0.249 C 
ENDROOT
BRANCH   4   5
HETATM    5  C           1     -20.382  -7.756  -4.739  0.00  0.00     0.278 C 
BRANCH   5   6
HETATM    6  C           1     -21.182  -6.480  -4.511  0.00  0.00     0.081 C 
BRANCH   6   7
HETATM    7  C           1     -21.085  -5.605  -5.722  0.00  0.00    -0.056 A 
HETATM    8  C           1     -22.243  -5.206  -6.389  0.00  0.00     0.007 A 
HETATM    9  C           1     -22.152  -4.391  -7.517  0.00  0.00     0.001 A 
HETATM   10  C           1     -20.903  -3.976  -7.978  0.00  0.00     0.000 A 
HETATM   11  C           1     -19.745  -4.374  -7.311  0.00  0.00     0.001 A 
HETATM   12  C           1     -19.836  -5.190  -6.183  0.00  0.00     0.007 A 
ENDBRANCH   6   7
ENDBRANCH   5   6
BRANCH   5  13
HETATM   13  N           1     -21.117  -8.641  -5.702  0.00  0.00    -0.066 N 
HETATM   14  H           1     -22.072  -8.253  -5.872  0.00  0.00     0.275 HD
HETATM   15  H           1     -21.199  -9.602  -5.300  0.00  0.00     0.275 HD
HETATM   16  H           1     -20.592  -8.684  -6.604  0.00  0.00     0.275 HD
ENDBRANCH   5  13
ENDBRANCH   4   5
BRANCH   1  17
HETATM   17  C           1     -21.081  -9.282  -1.294  0.00  0.00     0.194 C 
BRANCH  17  18
HETATM   18  C           1     -22.143 -10.345  -1.157  0.00  0.00     0.197 C 
HETATM   19  O           1     -22.367 -10.863  -0.042  0.00  0.00    -0.646 OA
HETATM   20  O           1     -22.799 -10.706  -2.158  0.00  0.00    -0.646 OA
ENDBRANCH  17  18
BRANCH  17  21
HETATM   21  C           1     -21.205  -8.290  -0.146  0.00  0.00     0.138 C 
BRANCH  21  22
HETATM   22  C           1     -22.528  -7.570  -0.243  0.00  0.00     0.217 C 
HETATM   23  N           1     -23.565  -7.932   0.575  0.00  0.00    -0.370 N 
HETATM   24  H           1     -23.445  -8.681   1.244  0.00  0.00     0.159 HD
HETATM   25  H           1     -24.453  -7.449   0.510  0.00  0.00     0.159 HD
HETATM   26  O           1     -22.673  -6.676  -1.042  0.00  0.00    -0.274 OA
ENDBRANCH  21  22
ENDBRANCH  17  21
ENDBRANCH   1  17
TORSDOF 8
ENDMDL
MODEL 4
REMARK VINA RESULT:      -6.8      1.761      3.373
REMARK  8 active torsions:
REMARK  status: ('A' for Active; 'I' for Inactive)
REMARK    1  A    between atoms: N_1  and  C_8 
REMARK       I    between atoms: N_1  and  C_21 
REMARK       I    between atoms: N_4  and  C_5 
REMARK    2  A    between atoms: C_5  and  C_19 
REMARK    3  A    between atoms: C_7  and  C_8 
REMARK    4  A    between atoms: C_8  and  C_19 
REMARK    5  A    between atoms: C_13  and  C_20 
REMARK    6  A    between atoms: C_13  and  C_14 
REMARK    7  A    between atoms: N_15  and  C_20 
REMARK    8  A    between atoms: C_20  and  C_21 
ROOT
HETATM    1  N           1     -21.656  -4.689  -7.209  0.00  0.00    -0.344 N 
HETATM    2  H           1     -21.716  -3.856  -6.639  0.00  0.00     0.163 HD
HETATM    3  O           1     -21.155  -6.861  -7.340  0.00  0.00    -0.271 OA
HETATM    4  C           1     -21.227  -5.867  -6.659  0.00  0.00     0.249 C 
ENDROOT
BRANCH   4   5
HETATM    5  C           1     -20.847  -5.923  -5.200  0.00  0.00     0.278 C 
BRANCH   5   6
HETATM    6  C           1     -22.098  -6.123  -4.355  0.00  0.00     0.081 C 
BRANCH   6   7
HETATM    7  C           1     -21.733  -6.813  -3.077  0.00  0.00    -0.056 A 
HETATM    8  C           1     -20.771  -7.823  -3.080  0.00  0.00     0.007 A 
HETATM    9  C           1     -20.431  -8.465  -1.889  0.00  0.00     0.001 A 
HETATM   10  C           1     -21.054  -8.097  -0.696  0.00  0.00     0.000 A 
HETATM   11  C           1     -22.016  -7.087  -0.693  0.00  0.00     0.001 A 
HETATM   12  C           1     -22.355  -6.445  -1.884  0.00  0.00     0.007 A 
ENDBRANCH   6   7
ENDBRANCH   5   6
BRANCH   5  13
HETATM   13  N           1     -20.180  -4.637  -4.808  0.00  0.00    -0.066 N 
HETATM   14  H           1     -20.867  -4.028  -4.308  0.00  0.00     0.275 HD
HETATM   15  H           1     -19.838  -4.146  -5.664  0.00  0.00     0.275 HD
HETATM   16  H           1     -19.372  -4.843  -4.177  0.00  0.00     0.275 HD
ENDBRANCH   5  13
ENDBRANCH   4   5
BRANCH   1  17
HETATM   17  C           1     -22.022  -4.635  -8.612  0.00  0.00     0.194 C 
BRANCH  17  18
HETATM   18  C           1     -20.807  -4.287  -9.436  0.00  0.00     0.197 C 
HETATM   19  O           1     -19.810  -3.769  -8.890  0.00  0.00    -0.646 OA
HETATM   20  O           1     -20.799  -4.518 -10.665  0.00  0.00    -0.646 OA
ENDBRANCH  17  18
BRANCH  17  21
HETATM   21  C           1     -23.094  -3.573  -8.816  0.00  0.00     0.138 C 
BRANCH  21  22
HETATM   22  C           1     -24.079  -4.045  -9.857  0.00  0.00     0.217 C 
HETATM   23  N           1     -23.889  -5.248 -10.484  0.00  0.00    -0.370 N 
HETATM   24  H           1     -23.089  -5.820 -10.249  0.00  0.00     0.159 HD
HETATM   25  H           1     -24.550  -5.564 -11.183  0.00  0.00     0.159 HD
HETATM   26  O           1     -25.035  -3.362 -10.139  0.00  0.00    -0.274 OA
ENDBRANCH  21  22
ENDBRANCH  17  21
ENDBRANCH   1  17
TORSDOF 8
ENDMDL
MODEL 5
REMARK VINA RESULT:      -6.6      1.401      2.555
REMARK  8 active torsions:
REMARK  status: ('A' for Active; 'I' for Inactive)
REMARK    1  A    between atoms: N_1  and  C_8 
REMARK       I    between atoms: N_1  and  C_21 
REMARK       I    between atoms: N_4  and  C_5 
REMARK    2  A    between atoms: C_5  and  C_19 
REMARK    3  A    between atoms: C_7  and  C_8 
REMARK    4  A    between atoms: C_8  and  C_19 
REMARK    5  A    between atoms: C_13  and  C_20 
REMARK    6  A    between atoms: C_13  and  C_14 
REMARK    7  A    between atoms: N_15  and  C_20 
REMARK    8  A    between atoms: C_20  and  C_21 
ROOT
HETATM    1  N           1     -22.066  -4.024  -9.426  0.00  0.00    -0.344 N 
HETATM    2  H           1     -22.818  -3.429  -9.104  0.00  0.00     0.163 HD
HETATM    3  O           1     -20.214  -5.169  -8.929  0.00  0.00    -0.271 OA
HETATM    4  C           1     -21.113  -4.459  -8.545  0.00  0.00     0.249 C 
ENDROOT
BRANCH   4   5
HETATM    5  C           1     -21.186  -4.054  -7.094  0.00  0.00     0.278 C 
BRANCH   5   6
HETATM    6  C           1     -20.046  -4.710  -6.325  0.00  0.00     0.081 C 
BRANCH   6   7
HETATM    7  C           1     -20.586  -5.834  -5.495  0.00  0.00    -0.056 A 
HETATM    8  C           1     -20.919  -5.616  -4.158  0.00  0.00     0.007 A 
HETATM    9  C           1     -21.421  -6.663  -3.385  0.00  0.00     0.001 A 
HETATM   10  C           1     -21.590  -7.928  -3.949  0.00  0.00     0.000 A 
HETATM   11  C           1     -21.257  -8.146  -5.286  0.00  0.00     0.001 A 
HETATM   12  C           1     -20.755  -7.098  -6.059  0.00  0.00     0.007 A 
ENDBRANCH   6   7
ENDBRANCH   5   6
BRANCH   5  13
HETATM   13  N           1     -22.498  -4.495  -6.516  0.00  0.00    -0.066 N 
HETATM   14  H           1     -22.779  -5.405  -6.947  0.00  0.00     0.275 HD
HETATM   15  H           1     -23.227  -3.775  -6.717  0.00  0.00     0.275 HD
HETATM   16  H           1     -22.400  -4.614  -5.483  0.00  0.00     0.275 HD
ENDBRANCH   5  13
ENDBRANCH   4   5
BRANCH   1  17
HETATM   17  C           1     -21.997  -4.413 -10.821  0.00  0.00     0.194 C 
BRANCH  17  18
HETATM   18  C           1     -21.467  -3.262 -11.639  0.00  0.00     0.197 C 
HETATM   19  O           1     -22.083  -2.885 -12.659  0.00  0.00    -0.646 OA
HETATM   20  O           1     -20.412  -2.685 -11.297  0.00  0.00    -0.646 OA
ENDBRANCH  17  18
BRANCH  17  21
HETATM   21  C           1     -23.388  -4.787 -11.313  0.00  0.00     0.138 C 
BRANCH  21  22
HETATM   22  C           1     -24.426  -4.088 -10.470  0.00  0.00     0.217 C 
HETATM   23  N           1     -25.119  -4.787  -9.518  0.00  0.00    -0.370 N 
HETATM   24  H           1     -24.935  -5.771  -9.380  0.00  0.00     0.159 HD
HETATM   25  H           1     -25.815  -4.317  -8.952  0.00  0.00     0.159 HD
HETATM   26  O           1     -24.646  -2.911 -10.635  0.00  0.00    -0.274 OA
ENDBRANCH  21  22
ENDBRANCH  17  21
ENDBRANCH   1  17
TORSDOF 8
ENDMDL
MODEL 6
REMARK VINA RESULT:      -6.6      2.494      4.682
REMARK  8 active torsions:
REMARK  status: ('A' for Active; 'I' for Inactive)
REMARK    1  A    between atoms: N_1  and  C_8 
REMARK       I    between atoms: N_1  and  C_21 
REMARK       I    between atoms: N_4  and  C_5 
REMARK    2  A    between atoms: C_5  and  C_19 
REMARK    3  A    between atoms: C_7  and  C_8 
REMARK    4  A    between atoms: C_8  and  C_19 
REMARK    5  A    between atoms: C_13  and  C_20 
REMARK    6  A    between atoms: C_13  and  C_14 
REMARK    7  A    between atoms: N_15  and  C_20 
REMARK    8  A    between atoms: C_20  and  C_21 
ROOT
HETATM    1  N           1     -21.720  -6.423  -5.587  0.00  0.00    -0.344 N 
HETATM    2  H           1     -22.501  -6.230  -4.974  0.00  0.00     0.163 HD
HETATM    3  O           1     -20.040  -7.786  -6.141  0.00  0.00    -0.271 OA
HETATM    4  C           1     -20.973  -7.556  -5.409  0.00  0.00     0.249 C 
ENDROOT
BRANCH   4   5
HETATM    5  C           1     -21.315  -8.518  -4.299  0.00  0.00     0.278 C 
BRANCH   5   6
HETATM    6  C           1     -20.295  -8.383  -3.176  0.00  0.00     0.081 C 
BRANCH   6   7
HETATM    7  C           1     -21.008  -8.275  -1.863  0.00  0.00    -0.056 A 
HETATM    8  C           1     -21.855  -7.195  -1.616  0.00  0.00     0.007 A 
HETATM    9  C           1     -22.518  -7.095  -0.394  0.00  0.00     0.001 A 
HETATM   10  C           1     -22.335  -8.075   0.582  0.00  0.00     0.000 A 
HETATM   11  C           1     -21.488  -9.156   0.335  0.00  0.00     0.001 A 
HETATM   12  C           1     -20.824  -9.255  -0.888  0.00  0.00     0.007 A 
ENDBRANCH   6   7
ENDBRANCH   5   6
BRANCH   5  13
HETATM   13  N           1     -21.291  -9.922  -4.828  0.00  0.00    -0.066 N 
HETATM   14  H           1     -20.571  -9.997  -5.583  0.00  0.00     0.275 HD
HETATM   15  H           1     -22.229 -10.164  -5.218  0.00  0.00     0.275 HD
HETATM   16  H           1     -21.054 -10.581  -4.054  0.00  0.00     0.275 HD
ENDBRANCH   5  13
ENDBRANCH   4   5
BRANCH   1  17
HETATM   17  C           1     -21.391  -5.498  -6.654  0.00  0.00     0.194 C 
BRANCH  17  18
HETATM   18  C           1     -20.123  -4.758  -6.307  0.00  0.00     0.197 C 
HETATM   19  O           1     -19.260  -4.551  -7.187  0.00  0.00    -0.646 OA
HETATM   20  O           1     -19.936  -4.352  -5.139  0.00  0.00    -0.646 OA
ENDBRANCH  17  18
BRANCH  17  21
HETATM   21  C           1     -22.528  -4.500  -6.829  0.00  0.00     0.138 C 
BRANCH  21  22
HETATM   22  C           1     -22.870  -4.376  -8.293  0.00  0.00     0.217 C 
HETATM   23  N           1     -24.045  -3.785  -8.674  0.00  0.00    -0.370 N 
HETATM   24  H           1     -24.684  -3.431  -7.974  0.00  0.00     0.159 HD
HETATM   25  H           1     -24.274  -3.702  -9.657  0.00  0.00     0.159 HD
HETATM   26  O           1     -22.108  -4.799  -9.130  0.00  0.00    -0.274 OA
ENDBRANCH  21  22
ENDBRANCH  17  21
ENDBRANCH   1  17
TORSDOF 8
ENDMDL
MODEL 7
REMARK VINA RESULT:      -6.4      3.940      7.569
REMARK  8 active torsions:
REMARK  status: ('A' for Active; 'I' for Inactive)
REMARK    1  A    between atoms: N_1  and  C_8 
REMARK       I    between atoms: N_1  and  C_21 
REMARK       I    between atoms: N_4  and  C_5 
REMARK    2  A    between atoms: C_5  and  C_19 
REMARK    3  A    between atoms: C_7  and  C_8 
REMARK    4  A    between atoms: C_8  and  C_19 
REMARK    5  A    between atoms: C_13  and  C_20 
REMARK    6  A    between atoms: C_13  and  C_14 
REMARK    7  A    between atoms: N_15  and  C_20 
REMARK    8  A    between atoms: C_20  and  C_21 
ROOT
HETATM    1  N           1     -20.530  -7.098  -4.502  0.00  0.00    -0.344 N 
HETATM    2  H           1     -20.163  -6.350  -3.929  0.00  0.00     0.163 HD
HETATM    3  O           1     -21.362  -7.739  -6.472  0.00  0.00    -0.271 OA
HETATM    4  C           1     -20.924  -6.846  -5.788  0.00  0.00     0.249 C 
ENDROOT
BRANCH   4   5
HETATM    5  C           1     -20.811  -5.451  -6.351  0.00  0.00     0.278 C 
BRANCH   5   6
HETATM    6  C           1     -19.988  -5.485  -7.632  0.00  0.00     0.081 C 
BRANCH   6   7
HETATM    7  C           1     -20.739  -4.793  -8.728  0.00  0.00    -0.056 A 
HETATM    8  C           1     -20.125  -4.570  -9.961  0.00  0.00     0.007 A 
HETATM    9  C           1     -20.824  -3.925 -10.981  0.00  0.00     0.001 A 
HETATM   10  C           1     -22.137  -3.503 -10.768  0.00  0.00     0.000 A 
HETATM   11  C           1     -22.751  -3.727  -9.536  0.00  0.00     0.001 A 
HETATM   12  C           1     -22.051  -4.372  -8.515  0.00  0.00     0.007 A 
ENDBRANCH   6   7
ENDBRANCH   5   6
BRANCH   5  13
HETATM   13  N           1     -20.139  -4.560  -5.349  0.00  0.00    -0.066 N 
HETATM   14  H           1     -19.318  -4.092  -5.795  0.00  0.00     0.275 HD
HETATM   15  H           1     -19.815  -5.130  -4.536  0.00  0.00     0.275 HD
HETATM   16  H           1     -20.816  -3.836  -5.019  0.00  0.00     0.275 HD
ENDBRANCH   5  13
ENDBRANCH   4   5
BRANCH   1  17
HETATM   17  C           1     -20.638  -8.439  -3.959  0.00  0.00     0.194 C 
BRANCH  17  18
HETATM   18  C           1     -21.341  -8.387  -2.625  0.00  0.00     0.197 C 
HETATM   19  O           1     -21.496  -7.293  -2.043  0.00  0.00    -0.646 OA
HETATM   20  O           1     -21.769  -9.440  -2.103  0.00  0.00    -0.646 OA
ENDBRANCH  17  18
BRANCH  17  21
HETATM   21  C           1     -19.245  -9.026  -3.776  0.00  0.00     0.138 C 
BRANCH  21  22
HETATM   22  C           1     -18.837  -9.755  -5.033  0.00  0.00     0.217 C 
HETATM   23  N           1     -19.790 -10.321  -5.837  0.00  0.00    -0.370 N 
HETATM   24  H           1     -20.768 -10.249  -5.589  0.00  0.00     0.159 HD
HETATM   25  H           1     -19.515 -10.810  -6.680  0.00  0.00     0.159 HD
HETATM   26  O           1     -17.668  -9.841  -5.329  0.00  0.00    -0.274 OA
ENDBRANCH  21  22
ENDBRANCH  17  21
ENDBRANCH   1  17
TORSDOF 8
ENDMDL
MODEL 8
REMARK VINA RESULT:      -6.4      4.476      8.536
REMARK  8 active torsions:
REMARK  status: ('A' for Active; 'I' for Inactive)
REMARK    1  A    between atoms: N_1  and  C_8 
REMARK       I    between atoms: N_1  and  C_21 
REMARK       I    between atoms: N_4  and  C_5 
REMARK    2  A    between atoms: C_5  and  C_19 
REMARK    3  A    between atoms: C_7  and  C_8 
REMARK    4  A    between atoms: C_8  and  C_19 
REMARK    5  A    between atoms: C_13  and  C_20 
REMARK    6  A    between atoms: C_13  and  C_14 
REMARK    7  A    between atoms: N_15  and  C_20 
REMARK    8  A    between atoms: C_20  and  C_21 
ROOT
HETATM    1  N           1     -20.784  -7.994  -3.704  0.00  0.00    -0.344 N 
HETATM    2  H           1     -20.771  -8.645  -4.478  0.00  0.00     0.163 HD
HETATM    3  O           1     -21.184  -5.918  -2.984  0.00  0.00    -0.271 OA
HETATM    4  C           1     -21.169  -6.696  -3.907  0.00  0.00     0.249 C 
ENDROOT
BRANCH   4   5
HETATM    5  C           1     -21.575  -6.237  -5.286  0.00  0.00     0.278 C 
BRANCH   5   6
HETATM    6  C           1     -20.857  -4.936  -5.620  0.00  0.00     0.081 C 
BRANCH   6   7
HETATM    7  C           1     -20.983  -4.658  -7.087  0.00  0.00    -0.056 A 
HETATM    8  C           1     -22.115  -4.009  -7.579  0.00  0.00     0.007 A 
HETATM    9  C           1     -22.232  -3.750  -8.944  0.00  0.00     0.001 A 
HETATM   10  C           1     -21.216  -4.141  -9.818  0.00  0.00     0.000 A 
HETATM   11  C           1     -20.083  -4.789  -9.325  0.00  0.00     0.001 A 
HETATM   12  C           1     -19.967  -5.048  -7.959  0.00  0.00     0.007 A 
ENDBRANCH   6   7
ENDBRANCH   5   6
BRANCH   5  13
HETATM   13  N           1     -23.057  -6.012  -5.322  0.00  0.00    -0.066 N 
HETATM   14  H           1     -23.539  -6.908  -5.562  0.00  0.00     0.275 HD
HETATM   15  H           1     -23.284  -5.292  -6.043  0.00  0.00     0.275 HD
HETATM   16  H           1     -23.382  -5.682  -4.385  0.00  0.00     0.275 HD
ENDBRANCH   5  13
ENDBRANCH   4   5
BRANCH   1  17
HETATM   17  C           1     -20.394  -8.436  -2.379  0.00  0.00     0.194 C 
BRANCH  17  18
HETATM   18  C           1     -19.248  -9.410  -2.490  0.00  0.00     0.197 C 
HETATM   19  O           1     -19.212 -10.419  -1.754  0.00  0.00    -0.646 OA
HETATM   20  O           1     -18.334  -9.208  -3.320  0.00  0.00    -0.646 OA
ENDBRANCH  17  18
BRANCH  17  21
HETATM   21  C           1     -21.576  -9.118  -1.703  0.00  0.00     0.138 C 
BRANCH  21  22
HETATM   22  C           1     -21.959  -8.351  -0.461  0.00  0.00     0.217 C 
HETATM   23  N           1     -22.531  -7.112  -0.571  0.00  0.00    -0.370 N 
HETATM   24  H           1     -22.698  -6.711  -1.485  0.00  0.00     0.159 HD
HETATM   25  H           1     -22.788  -6.598   0.262  0.00  0.00     0.159 HD
HETATM   26  O           1     -21.759  -8.829   0.630  0.00  0.00    -0.274 OA
ENDBRANCH  21  22
ENDBRANCH  17  21
ENDBRANCH   1  17
TORSDOF 8
ENDMDL
MODEL 9
REMARK VINA RESULT:      -6.4      3.924      7.804
REMARK  8 active torsions:
REMARK  status: ('A' for Active; 'I' for Inactive)
REMARK    1  A    between atoms: N_1  and  C_8 
REMARK       I    between atoms: N_1  and  C_21 
REMARK       I    between atoms: N_4  and  C_5 
REMARK    2  A    between atoms: C_5  and  C_19 
REMARK    3  A    between atoms: C_7  and  C_8 
REMARK    4  A    between atoms: C_8  and  C_19 
REMARK    5  A    between atoms: C_13  and  C_20 
REMARK    6  A    between atoms: C_13  and  C_14 
REMARK    7  A    between atoms: N_15  and  C_20 
REMARK    8  A    between atoms: C_20  and  C_21 
ROOT
HETATM    1  N           1     -20.633  -7.968  -4.931  0.00  0.00    -0.344 N 
HETATM    2  H           1     -21.481  -7.971  -4.379  0.00  0.00     0.163 HD
HETATM    3  O           1     -19.465  -7.056  -6.602  0.00  0.00    -0.271 OA
HETATM    4  C           1     -20.477  -7.060  -5.942  0.00  0.00     0.249 C 
ENDROOT
BRANCH   4   5
HETATM    5  C           1     -21.569  -6.060  -6.233  0.00  0.00     0.278 C 
BRANCH   5   6
HETATM    6  C           1     -20.947  -4.714  -6.581  0.00  0.00     0.081 C 
BRANCH   6   7
HETATM    7  C           1     -21.226  -4.390  -8.017  0.00  0.00    -0.056 A 
HETATM    8  C           1     -20.199  -4.459  -8.959  0.00  0.00     0.007 A 
HETATM    9  C           1     -20.459  -4.157 -10.295  0.00  0.00     0.001 A 
HETATM   10  C           1     -21.745  -3.787 -10.690  0.00  0.00     0.000 A 
HETATM   11  C           1     -22.772  -3.720  -9.748  0.00  0.00     0.001 A 
HETATM   12  C           1     -22.511  -4.021  -8.411  0.00  0.00     0.007 A 
ENDBRANCH   6   7
ENDBRANCH   5   6
BRANCH   5  13
HETATM   13  N           1     -22.443  -5.908  -5.024  0.00  0.00    -0.066 N 
HETATM   14  H           1     -23.432  -5.755  -5.326  0.00  0.00     0.275 HD
HETATM   15  H           1     -22.121  -5.089  -4.461  0.00  0.00     0.275 HD
HETATM   16  H           1     -22.386  -6.774  -4.443  0.00  0.00     0.275 HD
ENDBRANCH   5  13
ENDBRANCH   4   5
BRANCH   1  17
HETATM   17  C           1     -19.583  -8.929  -4.651  0.00  0.00     0.194 C 
BRANCH  17  18
HETATM   18  C           1     -20.013 -10.296  -5.124  0.00  0.00     0.197 C 
HETATM   19  O           1     -20.839 -10.403  -6.055  0.00  0.00    -0.646 OA
HETATM   20  O           1     -19.541 -11.321  -4.585  0.00  0.00    -0.646 OA
ENDBRANCH  17  18
BRANCH  17  21
HETATM   21  C           1     -19.320  -8.971  -3.152  0.00  0.00     0.138 C 
BRANCH  21  22
HETATM   22  C           1     -20.569  -8.561  -2.409  0.00  0.00     0.217 C 
HETATM   23  N           1     -21.456  -9.513  -1.984  0.00  0.00    -0.370 N 
HETATM   24  H           1     -21.275 -10.491  -2.168  0.00  0.00     0.159 HD
HETATM   25  H           1     -22.293  -9.238  -1.486  0.00  0.00     0.159 HD
HETATM   26  O           1     -20.786  -7.393  -2.191  0.00  0.00    -0.274 OA
ENDBRANCH  21  22
ENDBRANCH  17  21
ENDBRANCH   1  17
TORSDOF 8
ENDMDL
