MODEL 1
REMARK VINA RESULT:      -6.5      0.000      0.000
REMARK  10 active torsions:
REMARK  status: ('A' for Active; 'I' for Inactive)
REMARK    1  A    between atoms: C_5  and  C_21 
REMARK    2  A    between atoms: C_5  and  C_15 
REMARK    3  A    between atoms: C_5  and  N_16 
REMARK    4  A    between atoms: C_6  and  C_15 
REMARK    5  A    between atoms: C_6  and  C_13 
REMARK    6  A    between atoms: C_10  and  C_23 
REMARK    7  A    between atoms: C_10  and  C_12 
REMARK    8  A    between atoms: C_12  and  C_14 
REMARK    9  A    between atoms: C_12  and  N_19 
REMARK   10  A    between atoms: C_13  and  N_22 
REMARK       I    between atoms: N_19  and  C_21 
ROOT
HETATM    1  C           1     -34.272  -4.057 -12.422  0.00  0.00     0.274 C 
ENDROOT
BRANCH   1   2
HETATM    2  C           1     -34.386  -2.612 -12.002  0.00  0.00     0.249 C 
HETATM    3  O           1     -33.572  -2.136 -11.248  0.00  0.00    -0.271 OA
HETATM    4  N           1     -35.412  -1.840 -12.478  0.00  0.00    -0.344 N 
HETATM    5  H           1     -36.095  -2.239 -13.109  0.00  0.00     0.163 HD
BRANCH   4   6
HETATM    6  C           1     -35.522  -0.452 -12.075  0.00  0.00     0.189 C 
BRANCH   6   7
HETATM    7  C           1     -35.850   0.404 -13.292  0.00  0.00     0.014 C 
HETATM    8  C           1     -34.575   1.054 -13.813  0.00  0.00     0.012 C 
BRANCH   7   9
HETATM    9  C           1     -36.456  -0.471 -14.379  0.00  0.00     0.002 C 
HETATM   10  C           1     -35.773  -0.177 -15.708  0.00  0.00     0.005 C 
ENDBRANCH   7   9
ENDBRANCH   6   7
BRANCH   6  11
HETATM   11  C           1     -36.618  -0.311 -11.049  0.00  0.00     0.197 C 
HETATM   12  O           1     -36.538   0.569 -10.165  0.00  0.00    -0.646 OA
HETATM   13  O           1     -37.608  -1.074 -11.083  0.00  0.00    -0.646 OA
ENDBRANCH   6  11
ENDBRANCH   4   6
ENDBRANCH   1   2
BRANCH   1  14
HETATM   14  C           1     -33.434  -4.817 -11.401  0.00  0.00     0.044 C 
BRANCH  14  15
HETATM   15  C           1     -34.351  -5.465 -10.372  0.00  0.00     0.030 C 
BRANCH  15  16
HETATM   16  C           1     -34.430  -6.962 -10.633  0.00  0.00     0.230 C 
BRANCH  16  17
HETATM   17  N           1     -34.991  -7.652  -9.425  0.00  0.00    -0.079 N 
HETATM   18  H           1     -35.069  -6.969  -8.639  0.00  0.00     0.274 HD
HETATM   19  H           1     -34.357  -8.434  -9.146  0.00  0.00     0.274 HD
HETATM   20  H           1     -35.937  -8.035  -9.649  0.00  0.00     0.274 HD
ENDBRANCH  16  17
ENDBRANCH  15  16
ENDBRANCH  14  15
ENDBRANCH   1  14
BRANCH   1  21
HETATM   21  N           1     -33.615  -4.137 -13.767  0.00  0.00    -0.067 N 
HETATM   22  H           1     -32.596  -4.334 -13.647  0.00  0.00     0.275 HD
HETATM   23  H           1     -33.737  -3.228 -14.269  0.00  0.00     0.275 HD
HETATM   24  H           1     -34.054  -4.905 -14.323  0.00  0.00     0.275 HD
ENDBRANCH   1  21
TORSDOF 10
ENDMDL
MODEL 2
REMARK VINA RESULT:      -6.2     12.400     14.082
REMARK  10 active torsions:
REMARK  status: ('A' for Active; 'I' for Inactive)
REMARK    1  A    between atoms: C_5  and  C_21 
REMARK    2  A    between atoms: C_5  and  C_15 
REMARK    3  A    between atoms: C_5  and  N_16 
REMARK    4  A    between atoms: C_6  and  C_15 
REMARK    5  A    between atoms: C_6  and  C_13 
REMARK    6  A    between atoms: C_10  and  C_23 
REMARK    7  A    between atoms: C_10  and  C_12 
REMARK    8  A    between atoms: C_12  and  C_14 
REMARK    9  A    between atoms: C_12  and  N_19 
REMARK   10  A    between atoms: C_13  and  N_22 
REMARK       I    between atoms: N_19  and  C_21 
ROOT
HETATM    1  C           1     -21.221  -5.823  -6.853  0.00  0.00     0.274 C 
ENDROOT
BRANCH   1   2
HETATM    2  C           1     -21.735  -4.643  -7.641  0.00  0.00     0.249 C 
HETATM    3  O           1     -21.587  -3.523  -7.216  0.00  0.00    -0.271 OA
HETATM    4  N           1     -22.367  -4.843  -8.839  0.00  0.00    -0.344 N 
HETATM    5  H           1     -22.491  -5.782  -9.195  0.00  0.00     0.163 HD
BRANCH   4   6
HETATM    6  C           1     -22.860  -3.710  -9.596  0.00  0.00     0.189 C 
BRANCH   6   7
HETATM    7  C           1     -22.281  -3.751 -11.005  0.00  0.00     0.014 C 
HETATM    8  C           1     -23.051  -2.787 -11.898  0.00  0.00     0.012 C 
BRANCH   7   9
HETATM    9  C           1     -20.815  -3.343 -10.963  0.00  0.00     0.002 C 
HETATM   10  C           1     -19.946  -4.584 -10.809  0.00  0.00     0.005 C 
ENDBRANCH   7   9
ENDBRANCH   6   7
BRANCH   6  11
HETATM   11  C           1     -24.365  -3.769  -9.668  0.00  0.00     0.197 C 
HETATM   12  O           1     -25.043  -2.739  -9.466  0.00  0.00    -0.646 OA
HETATM   13  O           1     -24.937  -4.850  -9.931  0.00  0.00    -0.646 OA
ENDBRANCH   6  11
ENDBRANCH   4   6
ENDBRANCH   1   2
BRANCH   1  14
HETATM   14  C           1     -21.101  -5.439  -5.384  0.00  0.00     0.044 C 
BRANCH  14  15
HETATM   15  C           1     -21.934  -6.392  -4.539  0.00  0.00     0.030 C 
BRANCH  15  16
HETATM   16  C           1     -21.386  -6.424  -3.119  0.00  0.00     0.230 C 
BRANCH  16  17
HETATM   17  N           1     -22.422  -5.900  -2.170  0.00  0.00    -0.079 N 
HETATM   18  H           1     -21.954  -5.348  -1.415  0.00  0.00     0.274 HD
HETATM   19  H           1     -22.943  -6.700  -1.746  0.00  0.00     0.274 HD
HETATM   20  H           1     -23.090  -5.284  -2.687  0.00  0.00     0.274 HD
ENDBRANCH  16  17
ENDBRANCH  15  16
ENDBRANCH  14  15
ENDBRANCH   1  14
BRANCH   1  21
HETATM   21  N           1     -19.875  -6.226  -7.376  0.00  0.00    -0.067 N 
HETATM   22  H           1     -19.503  -5.476  -8.000  0.00  0.00     0.275 HD
HETATM   23  H           1     -19.965  -7.116  -7.917  0.00  0.00     0.275 HD
HETATM   24  H           1     -19.220  -6.369  -6.574  0.00  0.00     0.275 HD
ENDBRANCH   1  21
TORSDOF 10
ENDMDL
MODEL 3
REMARK VINA RESULT:      -5.9      2.793      5.112
REMARK  10 active torsions:
REMARK  status: ('A' for Active; 'I' for Inactive)
REMARK    1  A    between atoms: C_5  and  C_21 
REMARK    2  A    between atoms: C_5  and  C_15 
REMARK    3  A    between atoms: C_5  and  N_16 
REMARK    4  A    between atoms: C_6  and  C_15 
REMARK    5  A    between atoms: C_6  and  C_13 
REMARK    6  A    between atoms: C_10  and  C_23 
REMARK    7  A    between atoms: C_10  and  C_12 
REMARK    8  A    between atoms: C_12  and  C_14 
REMARK    9  A    between atoms: C_12  and  N_19 
REMARK   10  A    between atoms: C_13  and  N_22 
REMARK       I    between atoms: N_19  and  C_21 
ROOT
HETATM    1  C           1     -36.117   0.359 -14.676  0.00  0.00     0.274 C 
ENDROOT
BRANCH   1   2
HETATM    2  C           1     -36.656  -0.334 -13.449  0.00  0.00     0.249 C 
HETATM    3  O           1     -37.787  -0.758 -13.442  0.00  0.00    -0.271 OA
HETATM    4  N           1     -35.863  -0.483 -12.343  0.00  0.00    -0.344 N 
HETATM    5  H           1     -34.916  -0.127 -12.348  0.00  0.00     0.163 HD
BRANCH   4   6
HETATM    6  C           1     -36.381  -1.149 -11.164  0.00  0.00     0.189 C 
BRANCH   6   7
HETATM    7  C           1     -35.319  -2.087 -10.604  0.00  0.00     0.014 C 
HETATM    8  C           1     -35.763  -3.531 -10.802  0.00  0.00     0.012 C 
BRANCH   7   9
HETATM    9  C           1     -34.003  -1.856 -11.334  0.00  0.00     0.002 C 
HETATM   10  C           1     -33.178  -3.136 -11.312  0.00  0.00     0.005 C 
ENDBRANCH   7   9
ENDBRANCH   6   7
BRANCH   6  11
HETATM   11  C           1     -36.743  -0.120 -10.123  0.00  0.00     0.197 C 
HETATM   12  O           1     -37.629   0.728 -10.364  0.00  0.00    -0.646 OA
HETATM   13  O           1     -36.157  -0.114  -9.018  0.00  0.00    -0.646 OA
ENDBRANCH   6  11
ENDBRANCH   4   6
ENDBRANCH   1   2
BRANCH   1  14
HETATM   14  C           1     -36.445  -0.468 -15.912  0.00  0.00     0.044 C 
BRANCH  14  15
HETATM   15  C           1     -35.154  -0.964 -16.549  0.00  0.00     0.030 C 
BRANCH  15  16
HETATM   16  C           1     -35.099  -2.484 -16.470  0.00  0.00     0.230 C 
BRANCH  16  17
HETATM   17  N           1     -33.883  -2.980 -17.192  0.00  0.00    -0.079 N 
HETATM   18  H           1     -33.905  -2.644 -18.182  0.00  0.00     0.274 HD
HETATM   19  H           1     -33.872  -4.024 -17.179  0.00  0.00     0.274 HD
HETATM   20  H           1     -33.024  -2.617 -16.720  0.00  0.00     0.274 HD
ENDBRANCH  16  17
ENDBRANCH  15  16
ENDBRANCH  14  15
ENDBRANCH   1  14
BRANCH   1  21
HETATM   21  N           1     -34.630   0.507 -14.554  0.00  0.00    -0.067 N 
HETATM   22  H           1     -34.190   0.405 -15.496  0.00  0.00     0.275 HD
HETATM   23  H           1     -34.258  -0.231 -13.914  0.00  0.00     0.275 HD
HETATM   24  H           1     -34.405   1.452 -14.167  0.00  0.00     0.275 HD
ENDBRANCH   1  21
TORSDOF 10
ENDMDL
MODEL 4
REMARK VINA RESULT:      -5.7     14.364     16.997
REMARK  10 active torsions:
REMARK  status: ('A' for Active; 'I' for Inactive)
REMARK    1  A    between atoms: C_5  and  C_21 
REMARK    2  A    between atoms: C_5  and  C_15 
REMARK    3  A    between atoms: C_5  and  N_16 
REMARK    4  A    between atoms: C_6  and  C_15 
REMARK    5  A    between atoms: C_6  and  C_13 
REMARK    6  A    between atoms: C_10  and  C_23 
REMARK    7  A    between atoms: C_10  and  C_12 
REMARK    8  A    between atoms: C_12  and  C_14 
REMARK    9  A    between atoms: C_12  and  N_19 
REMARK   10  A    between atoms: C_13  and  N_22 
REMARK       I    between atoms: N_19  and  C_21 
ROOT
HETATM    1  C           1     -20.485  -5.042  -6.461  0.00  0.00     0.274 C 
ENDROOT
BRANCH   1   2
HETATM    2  C           1     -21.332  -5.882  -5.537  0.00  0.00     0.249 C 
HETATM    3  O           1     -22.536  -5.798  -5.578  0.00  0.00    -0.271 OA
HETATM    4  N           1     -20.735  -6.740  -4.654  0.00  0.00    -0.344 N 
HETATM    5  H           1     -19.727  -6.810  -4.619  0.00  0.00     0.163 HD
BRANCH   4   6
HETATM    6  C           1     -21.549  -7.547  -3.766  0.00  0.00     0.189 C 
BRANCH   6   7
HETATM    7  C           1     -20.917  -8.925  -3.612  0.00  0.00     0.014 C 
HETATM    8  C           1     -21.853  -9.979  -4.188  0.00  0.00     0.012 C 
BRANCH   7   9
HETATM    9  C           1     -19.590  -8.960  -4.357  0.00  0.00     0.002 C 
HETATM   10  C           1     -18.480  -9.368  -3.398  0.00  0.00     0.005 C 
ENDBRANCH   7   9
ENDBRANCH   6   7
BRANCH   6  11
HETATM   11  C           1     -21.636  -6.879  -2.417  0.00  0.00     0.197 C 
HETATM   12  O           1     -22.376  -5.884  -2.257  0.00  0.00    -0.646 OA
HETATM   13  O           1     -20.968  -7.320  -1.456  0.00  0.00    -0.646 OA
ENDBRANCH   6  11
ENDBRANCH   4   6
ENDBRANCH   1   2
BRANCH   1  14
HETATM   14  C           1     -21.335  -3.925  -7.055  0.00  0.00     0.044 C 
BRANCH  14  15
HETATM   15  C           1     -21.444  -4.116  -8.562  0.00  0.00     0.030 C 
BRANCH  15  16
HETATM   16  C           1     -22.889  -3.911  -8.997  0.00  0.00     0.230 C 
BRANCH  16  17
HETATM   17  N           1     -23.801  -4.131  -7.827  0.00  0.00    -0.079 N 
HETATM   18  H           1     -23.446  -3.594  -7.003  0.00  0.00     0.274 HD
HETATM   19  H           1     -23.829  -5.149  -7.594  0.00  0.00     0.274 HD
HETATM   20  H           1     -24.763  -3.802  -8.068  0.00  0.00     0.274 HD
ENDBRANCH  16  17
ENDBRANCH  15  16
ENDBRANCH  14  15
ENDBRANCH   1  14
BRANCH   1  21
HETATM   21  N           1     -19.947  -5.901  -7.566  0.00  0.00    -0.067 N 
HETATM   22  H           1     -18.936  -6.098  -7.394  0.00  0.00     0.275 HD
HETATM   23  H           1     -20.054  -5.402  -8.479  0.00  0.00     0.275 HD
HETATM   24  H           1     -20.477  -6.801  -7.596  0.00  0.00     0.275 HD
ENDBRANCH   1  21
TORSDOF 10
ENDMDL
MODEL 5
REMARK VINA RESULT:      -5.6     12.193     14.799
REMARK  10 active torsions:
REMARK  status: ('A' for Active; 'I' for Inactive)
REMARK    1  A    between atoms: C_5  and  C_21 
REMARK    2  A    between atoms: C_5  and  C_15 
REMARK    3  A    between atoms: C_5  and  N_16 
REMARK    4  A    between atoms: C_6  and  C_15 
REMARK    5  A    between atoms: C_6  and  C_13 
REMARK    6  A    between atoms: C_10  and  C_23 
REMARK    7  A    between atoms: C_10  and  C_12 
REMARK    8  A    between atoms: C_12  and  C_14 
REMARK    9  A    between atoms: C_12  and  N_19 
REMARK   10  A    between atoms: C_13  and  N_22 
REMARK       I    between atoms: N_19  and  C_21 
ROOT
HETATM    1  C           1     -24.138  -4.689  -9.890  0.00  0.00     0.274 C 
ENDROOT
BRANCH   1   2
HETATM    2  C           1     -23.009  -4.174  -9.031  0.00  0.00     0.249 C 
HETATM    3  O           1     -22.861  -2.986  -8.877  0.00  0.00    -0.271 OA
HETATM    4  N           1     -22.154  -5.054  -8.425  0.00  0.00    -0.344 N 
HETATM    5  H           1     -22.277  -6.050  -8.554  0.00  0.00     0.163 HD
BRANCH   4   6
HETATM    6  C           1     -21.069  -4.559  -7.600  0.00  0.00     0.189 C 
BRANCH   6   7
HETATM    7  C           1     -20.887  -5.477  -6.398  0.00  0.00     0.014 C 
HETATM    8  C           1     -20.178  -4.719  -5.284  0.00  0.00     0.012 C 
BRANCH   7   9
HETATM    9  C           1     -22.250  -5.945  -5.906  0.00  0.00     0.002 C 
HETATM   10  C           1     -22.088  -6.685  -4.585  0.00  0.00     0.005 C 
ENDBRANCH   7   9
ENDBRANCH   6   7
BRANCH   6  11
HETATM   11  C           1     -19.796  -4.530  -8.408  0.00  0.00     0.197 C 
HETATM   12  O           1     -18.734  -4.124  -7.888  0.00  0.00    -0.646 OA
HETATM   13  O           1     -19.801  -4.912  -9.599  0.00  0.00    -0.646 OA
ENDBRANCH   6  11
ENDBRANCH   4   6
ENDBRANCH   1   2
BRANCH   1  14
HETATM   14  C           1     -23.702  -4.700 -11.349  0.00  0.00     0.044 C 
BRANCH  14  15
HETATM   15  C           1     -24.194  -3.432 -12.036  0.00  0.00     0.030 C 
BRANCH  15  16
HETATM   16  C           1     -23.000  -2.588 -12.459  0.00  0.00     0.230 C 
BRANCH  16  17
HETATM   17  N           1     -22.232  -3.305 -13.528  0.00  0.00    -0.079 N 
HETATM   18  H           1     -21.317  -3.629 -13.141  0.00  0.00     0.274 HD
HETATM   19  H           1     -22.062  -2.657 -14.329  0.00  0.00     0.274 HD
HETATM   20  H           1     -22.781  -4.131 -13.858  0.00  0.00     0.274 HD
ENDBRANCH  16  17
ENDBRANCH  15  16
ENDBRANCH  14  15
ENDBRANCH   1  14
BRANCH   1  21
HETATM   21  N           1     -25.334  -3.798  -9.732  0.00  0.00    -0.067 N 
HETATM   22  H           1     -26.177  -4.273 -10.123  0.00  0.00     0.275 HD
HETATM   23  H           1     -25.169  -2.902 -10.244  0.00  0.00     0.275 HD
HETATM   24  H           1     -25.486  -3.598  -8.717  0.00  0.00     0.275 HD
ENDBRANCH   1  21
TORSDOF 10
ENDMDL
MODEL 6
REMARK VINA RESULT:      -5.6     13.835     16.510
REMARK  10 active torsions:
REMARK  status: ('A' for Active; 'I' for Inactive)
REMARK    1  A    between atoms: C_5  and  C_21 
REMARK    2  A    between atoms: C_5  and  C_15 
REMARK    3  A    between atoms: C_5  and  N_16 
REMARK    4  A    between atoms: C_6  and  C_15 
REMARK    5  A    between atoms: C_6  and  C_13 
REMARK    6  A    between atoms: C_10  and  C_23 
REMARK    7  A    between atoms: C_10  and  C_12 
REMARK    8  A    between atoms: C_12  and  C_14 
REMARK    9  A    between atoms: C_12  and  N_19 
REMARK   10  A    between atoms: C_13  and  N_22 
REMARK       I    between atoms: N_19  and  C_21 
ROOT
HETATM    1  C           1     -22.023  -4.588  -7.176  0.00  0.00     0.274 C 
ENDROOT
BRANCH   1   2
HETATM    2  C           1     -21.089  -5.413  -6.325  0.00  0.00     0.249 C 
HETATM    3  O           1     -19.895  -5.247  -6.403  0.00  0.00    -0.271 OA
HETATM    4  N           1     -21.594  -6.349  -5.464  0.00  0.00    -0.344 N 
HETATM    5  H           1     -22.594  -6.488  -5.398  0.00  0.00     0.163 HD
BRANCH   4   6
HETATM    6  C           1     -20.697  -7.141  -4.646  0.00  0.00     0.189 C 
BRANCH   6   7
HETATM    7  C           1     -21.392  -7.510  -3.341  0.00  0.00     0.014 C 
HETATM    8  C           1     -20.409  -8.232  -2.429  0.00  0.00     0.012 C 
BRANCH   7   9
HETATM    9  C           1     -21.886  -6.244  -2.655  0.00  0.00     0.002 C 
HETATM   10  C           1     -22.288  -6.567  -1.222  0.00  0.00     0.005 C 
ENDBRANCH   7   9
ENDBRANCH   6   7
BRANCH   6  11
HETATM   11  C           1     -20.318  -8.398  -5.387  0.00  0.00     0.197 C 
HETATM   12  O           1     -19.122  -8.618  -5.675  0.00  0.00    -0.646 OA
HETATM   13  O           1     -21.200  -9.221  -5.715  0.00  0.00    -0.646 OA
ENDBRANCH   6  11
ENDBRANCH   4   6
ENDBRANCH   1   2
BRANCH   1  14
HETATM   14  C           1     -21.893  -5.015  -8.633  0.00  0.00     0.044 C 
BRANCH  14  15
HETATM   15  C           1     -22.598  -4.001  -9.525  0.00  0.00     0.030 C 
BRANCH  15  16
HETATM   16  C           1     -23.725  -4.689 -10.283  0.00  0.00     0.230 C 
BRANCH  16  17
HETATM   17  N           1     -25.021  -4.469  -9.562  0.00  0.00    -0.079 N 
HETATM   18  H           1     -25.816  -4.727 -10.189  0.00  0.00     0.274 HD
HETATM   19  H           1     -25.103  -3.464  -9.290  0.00  0.00     0.274 HD
HETATM   20  H           1     -25.048  -5.065  -8.704  0.00  0.00     0.274 HD
ENDBRANCH  16  17
ENDBRANCH  15  16
ENDBRANCH  14  15
ENDBRANCH   1  14
BRANCH   1  21
HETATM   21  N           1     -21.668  -3.137  -7.047  0.00  0.00    -0.067 N 
HETATM   22  H           1     -22.539  -2.562  -7.063  0.00  0.00     0.275 HD
HETATM   23  H           1     -21.051  -2.858  -7.844  0.00  0.00     0.275 HD
HETATM   24  H           1     -21.164  -2.982  -6.145  0.00  0.00     0.275 HD
ENDBRANCH   1  21
TORSDOF 10
ENDMDL
MODEL 7
REMARK VINA RESULT:      -5.6      2.777      5.582
REMARK  10 active torsions:
REMARK  status: ('A' for Active; 'I' for Inactive)
REMARK    1  A    between atoms: C_5  and  C_21 
REMARK    2  A    between atoms: C_5  and  C_15 
REMARK    3  A    between atoms: C_5  and  N_16 
REMARK    4  A    between atoms: C_6  and  C_15 
REMARK    5  A    between atoms: C_6  and  C_13 
REMARK    6  A    between atoms: C_10  and  C_23 
REMARK    7  A    between atoms: C_10  and  C_12 
REMARK    8  A    between atoms: C_12  and  C_14 
REMARK    9  A    between atoms: C_12  and  N_19 
REMARK   10  A    between atoms: C_13  and  N_22 
REMARK       I    between atoms: N_19  and  C_21 
ROOT
HETATM    1  C           1     -35.802   0.286 -14.180  0.00  0.00     0.274 C 
ENDROOT
BRANCH   1   2
HETATM    2  C           1     -36.418  -0.425 -13.000  0.00  0.00     0.249 C 
HETATM    3  O           1     -37.577  -0.763 -13.036  0.00  0.00    -0.271 OA
HETATM    4  N           1     -35.662  -0.689 -11.890  0.00  0.00    -0.344 N 
HETATM    5  H           1     -34.691  -0.405 -11.859  0.00  0.00     0.163 HD
BRANCH   4   6
HETATM    6  C           1     -36.253  -1.372 -10.756  0.00  0.00     0.189 C 
BRANCH   6   7
HETATM    7  C           1     -35.283  -2.426 -10.237  0.00  0.00     0.014 C 
HETATM    8  C           1     -35.596  -3.768 -10.884  0.00  0.00     0.012 C 
BRANCH   7   9
HETATM    9  C           1     -33.858  -2.015 -10.581  0.00  0.00     0.002 C 
HETATM   10  C           1     -33.166  -3.153 -11.320  0.00  0.00     0.005 C 
ENDBRANCH   7   9
ENDBRANCH   6   7
BRANCH   6  11
HETATM   11  C           1     -36.546  -0.375  -9.664  0.00  0.00     0.197 C 
HETATM   12  O           1     -36.297   0.837  -9.840  0.00  0.00    -0.646 OA
HETATM   13  O           1     -37.039  -0.760  -8.581  0.00  0.00    -0.646 OA
ENDBRANCH   6  11
ENDBRANCH   4   6
ENDBRANCH   1   2
BRANCH   1  14
HETATM   14  C           1     -35.487  -0.725 -15.275  0.00  0.00     0.044 C 
BRANCH  14  15
HETATM   15  C           1     -36.286  -0.385 -16.526  0.00  0.00     0.030 C 
BRANCH  15  16
HETATM   16  C           1     -37.750  -0.190 -16.157  0.00  0.00     0.230 C 
BRANCH  16  17
HETATM   17  N           1     -38.067   1.275 -16.122  0.00  0.00    -0.079 N 
HETATM   18  H           1     -38.197   1.626 -17.097  0.00  0.00     0.274 HD
HETATM   19  H           1     -37.281   1.791 -15.667  0.00  0.00     0.274 HD
HETATM   20  H           1     -38.946   1.429 -15.577  0.00  0.00     0.274 HD
ENDBRANCH  16  17
ENDBRANCH  15  16
ENDBRANCH  14  15
ENDBRANCH   1  14
BRANCH   1  21
HETATM   21  N           1     -34.537   0.967 -13.750  0.00  0.00    -0.067 N 
HETATM   22  H           1     -34.711   1.991 -13.641  0.00  0.00     0.275 HD
HETATM   23  H           1     -33.797   0.814 -14.472  0.00  0.00     0.275 HD
HETATM   24  H           1     -34.222   0.569 -12.836  0.00  0.00     0.275 HD
ENDBRANCH   1  21
TORSDOF 10
ENDMDL
MODEL 8
REMARK VINA RESULT:      -5.1      2.050      6.155
REMARK  10 active torsions:
REMARK  status: ('A' for Active; 'I' for Inactive)
REMARK    1  A    between atoms: C_5  and  C_21 
REMARK    2  A    between atoms: C_5  and  C_15 
REMARK    3  A    between atoms: C_5  and  N_16 
REMARK    4  A    between atoms: C_6  and  C_15 
REMARK    5  A    between atoms: C_6  and  C_13 
REMARK    6  A    between atoms: C_10  and  C_23 
REMARK    7  A    between atoms: C_10  and  C_12 
REMARK    8  A    between atoms: C_12  and  C_14 
REMARK    9  A    between atoms: C_12  and  N_19 
REMARK   10  A    between atoms: C_13  and  N_22 
REMARK       I    between atoms: N_19  and  C_21 
ROOT
HETATM    1  C           1     -36.011   0.048 -13.533  0.00  0.00     0.274 C 
ENDROOT
BRANCH   1   2
HETATM    2  C           1     -35.732  -0.698 -12.251  0.00  0.00     0.249 C 
HETATM    3  O           1     -35.852  -0.138 -11.188  0.00  0.00    -0.271 OA
HETATM    4  N           1     -35.344  -2.010 -12.294  0.00  0.00    -0.344 N 
HETATM    5  H           1     -35.243  -2.479 -13.184  0.00  0.00     0.163 HD
BRANCH   4   6
HETATM    6  C           1     -35.075  -2.727 -11.062  0.00  0.00     0.189 C 
BRANCH   6   7
HETATM    7  C           1     -35.125  -4.226 -11.327  0.00  0.00     0.014 C 
HETATM    8  C           1     -34.640  -4.507 -12.743  0.00  0.00     0.012 C 
BRANCH   7   9
HETATM    9  C           1     -34.228  -4.947 -10.331  0.00  0.00     0.002 C 
HETATM   10  C           1     -34.519  -6.441 -10.374  0.00  0.00     0.005 C 
ENDBRANCH   7   9
ENDBRANCH   6   7
BRANCH   6  11
HETATM   11  C           1     -33.708  -2.351 -10.549  0.00  0.00     0.197 C 
HETATM   12  O           1     -33.596  -1.658  -9.515  0.00  0.00    -0.646 OA
HETATM   13  O           1     -32.685  -2.732 -11.158  0.00  0.00    -0.646 OA
ENDBRANCH   6  11
ENDBRANCH   4   6
ENDBRANCH   1   2
BRANCH   1  14
HETATM   14  C           1     -37.435  -0.244 -13.990  0.00  0.00     0.044 C 
BRANCH  14  15
HETATM   15  C           1     -37.512  -0.146 -15.508  0.00  0.00     0.030 C 
BRANCH  15  16
HETATM   16  C           1     -38.073   1.213 -15.902  0.00  0.00     0.230 C 
BRANCH  16  17
HETATM   17  N           1     -36.947   2.138 -16.255  0.00  0.00    -0.079 N 
HETATM   18  H           1     -37.149   2.597 -17.171  0.00  0.00     0.274 HD
HETATM   19  H           1     -36.059   1.593 -16.326  0.00  0.00     0.274 HD
HETATM   20  H           1     -36.850   2.868 -15.513  0.00  0.00     0.274 HD
ENDBRANCH  16  17
ENDBRANCH  15  16
ENDBRANCH  14  15
ENDBRANCH   1  14
BRANCH   1  21
HETATM   21  N           1     -35.046  -0.396 -14.591  0.00  0.00    -0.067 N 
HETATM   22  H           1     -35.170   0.191 -15.446  0.00  0.00     0.275 HD
HETATM   23  H           1     -35.227  -1.398 -14.828  0.00  0.00     0.275 HD
HETATM   24  H           1     -34.069  -0.292 -14.236  0.00  0.00     0.275 HD
ENDBRANCH   1  21
TORSDOF 10
ENDMDL
MODEL 9
REMARK VINA RESULT:      -5.0     15.829     17.944
REMARK  10 active torsions:
REMARK  status: ('A' for Active; 'I' for Inactive)
REMARK    1  A    between atoms: C_5  and  C_21 
REMARK    2  A    between atoms: C_5  and  C_15 
REMARK    3  A    between atoms: C_5  and  N_16 
REMARK    4  A    between atoms: C_6  and  C_15 
REMARK    5  A    between atoms: C_6  and  C_13 
REMARK    6  A    between atoms: C_10  and  C_23 
REMARK    7  A    between atoms: C_10  and  C_12 
REMARK    8  A    between atoms: C_12  and  C_14 
REMARK    9  A    between atoms: C_12  and  N_19 
REMARK   10  A    between atoms: C_13  and  N_22 
REMARK       I    between atoms: N_19  and  C_21 
ROOT
HETATM    1  C           1     -21.300  -6.969  -5.737  0.00  0.00     0.274 C 
ENDROOT
BRANCH   1   2
HETATM    2  C           1     -20.706  -7.695  -4.555  0.00  0.00     0.249 C 
HETATM    3  O           1     -19.594  -8.159  -4.627  0.00  0.00    -0.271 OA
HETATM    4  N           1     -21.429  -7.827  -3.400  0.00  0.00    -0.344 N 
HETATM    5  H           1     -22.361  -7.439  -3.339  0.00  0.00     0.163 HD
BRANCH   4   6
HETATM    6  C           1     -20.859  -8.525  -2.264  0.00  0.00     0.189 C 
BRANCH   6   7
HETATM    7  C           1     -21.347  -7.878  -0.974  0.00  0.00     0.014 C 
HETATM    8  C           1     -22.178  -6.646  -1.308  0.00  0.00     0.012 C 
BRANCH   7   9
HETATM    9  C           1     -22.200  -8.873  -0.200  0.00  0.00     0.002 C 
HETATM   10  C           1     -23.228  -8.119   0.634  0.00  0.00     0.005 C 
ENDBRANCH   7   9
ENDBRANCH   6   7
BRANCH   6  11
HETATM   11  C           1     -21.286  -9.971  -2.296  0.00  0.00     0.197 C 
HETATM   12  O           1     -20.570 -10.847  -1.766  0.00  0.00    -0.646 OA
HETATM   13  O           1     -22.358 -10.294  -2.852  0.00  0.00    -0.646 OA
ENDBRANCH   6  11
ENDBRANCH   4   6
ENDBRANCH   1   2
BRANCH   1  14
HETATM   14  C           1     -20.227  -6.112  -6.397  0.00  0.00     0.044 C 
BRANCH  14  15
HETATM   15  C           1     -20.514  -4.641  -6.128  0.00  0.00     0.030 C 
BRANCH  15  16
HETATM   16  C           1     -20.668  -3.902  -7.450  0.00  0.00     0.230 C 
BRANCH  16  17
HETATM   17  N           1     -22.080  -3.419  -7.593  0.00  0.00    -0.079 N 
HETATM   18  H           1     -22.250  -2.639  -6.919  0.00  0.00     0.274 HD
HETATM   19  H           1     -22.739  -4.204  -7.391  0.00  0.00     0.274 HD
HETATM   20  H           1     -22.235  -3.077  -8.568  0.00  0.00     0.274 HD
ENDBRANCH  16  17
ENDBRANCH  15  16
ENDBRANCH  14  15
ENDBRANCH   1  14
BRANCH   1  21
HETATM   21  N           1     -22.424  -6.091  -5.272  0.00  0.00    -0.067 N 
HETATM   22  H           1     -22.273  -5.118  -5.619  0.00  0.00     0.275 HD
HETATM   23  H           1     -22.454  -6.089  -4.228  0.00  0.00     0.275 HD
HETATM   24  H           1     -23.328  -6.458  -5.647  0.00  0.00     0.275 HD
ENDBRANCH   1  21
TORSDOF 10
ENDMDL
