MODEL 1
REMARK VINA RESULT:      -7.3      0.000      0.000
REMARK  7 active torsions:
REMARK  status: ('A' for Active; 'I' for Inactive)
REMARK    1  A    between atoms: C_6  and  C_7 
REMARK    2  A    between atoms: C_6  and  C_17 
REMARK    3  A    between atoms: C_7  and  C_16 
REMARK    4  A    between atoms: C_7  and  N_8 
REMARK       I    between atoms: N_8  and  C_15 
REMARK    5  A    between atoms: N_12  and  C_25 
REMARK    6  A    between atoms: C_15  and  C_25 
REMARK    7  A    between atoms: C_21  and  C_25 
ROOT
HETATM    1  C           1     -21.080  -6.132  -7.084  0.00  0.00     0.190 C 
ENDROOT
BRANCH   1   2
HETATM    2  C           1     -21.606  -4.732  -6.794  0.00  0.00     0.077 C 
BRANCH   2   3
HETATM    3  C           1     -22.476  -4.281  -7.926  0.00  0.00    -0.028 A 
HETATM    4  C           1     -22.042  -3.973  -9.245  0.00  0.00    -0.002 A 
HETATM    5  C           1     -23.172  -3.597  -9.972  0.00  0.00     0.042 A 
HETATM    6  C           1     -20.791  -3.977  -9.892  0.00  0.00     0.014 A 
HETATM    7  N           1     -24.248  -3.678  -9.116  0.00  0.00    -0.365 N 
HETATM    8  C           1     -23.114  -3.224 -11.320  0.00  0.00     0.030 A 
HETATM    9  C           1     -23.838  -4.090  -7.876  0.00  0.00     0.096 A 
HETATM   10  H           1     -25.241  -3.455  -9.377  0.00  0.00     0.165 HD
HETATM   11  C           1     -21.861  -3.236 -11.940  0.00  0.00     0.002 A 
HETATM   12  C           1     -20.715  -3.606 -11.240  0.00  0.00     0.001 A 
ENDBRANCH   2   3
ENDBRANCH   1   2
BRANCH   1  13
HETATM   13  C           1     -19.586  -6.163  -6.872  0.00  0.00     0.197 C 
HETATM   14  O           1     -19.009  -7.248  -6.648  0.00  0.00    -0.646 OA
HETATM   15  O           1     -18.926  -5.103  -6.922  0.00  0.00    -0.646 OA
ENDBRANCH   1  13
BRANCH   1  16
HETATM   16  N           1     -21.713  -7.081  -6.189  0.00  0.00    -0.344 N 
HETATM   17  C           1     -22.182  -6.664  -4.972  0.00  0.00     0.249 C 
HETATM   18  O           1     -23.319  -6.268  -4.866  0.00  0.00    -0.271 OA
HETATM   19  H           1     -21.807  -8.050  -6.462  0.00  0.00     0.163 HD
BRANCH  17  20
HETATM   20  C           1     -21.280  -6.699  -3.762  0.00  0.00     0.278 C 
BRANCH  20  21
HETATM   21  N           1     -21.866  -5.843  -2.678  0.00  0.00    -0.066 N 
HETATM   22  H           1     -22.016  -6.421  -1.820  0.00  0.00     0.275 HD
HETATM   23  H           1     -21.208  -5.061  -2.459  0.00  0.00     0.275 HD
HETATM   24  H           1     -22.780  -5.452  -2.999  0.00  0.00     0.275 HD
ENDBRANCH  20  21
BRANCH  20  25
HETATM   25  C           1     -21.155  -8.133  -3.264  0.00  0.00     0.017 C 
HETATM   26  C           1     -19.751  -8.650  -3.550  0.00  0.00     0.012 C 
HETATM   27  C           1     -21.414  -8.173  -1.764  0.00  0.00     0.012 C 
ENDBRANCH  20  25
ENDBRANCH  17  20
ENDBRANCH   1  16
TORSDOF 7
ENDMDL
MODEL 2
REMARK VINA RESULT:      -7.3      2.828      4.244
REMARK  7 active torsions:
REMARK  status: ('A' for Active; 'I' for Inactive)
REMARK    1  A    between atoms: C_6  and  C_7 
REMARK    2  A    between atoms: C_6  and  C_17 
REMARK    3  A    between atoms: C_7  and  C_16 
REMARK    4  A    between atoms: C_7  and  N_8 
REMARK       I    between atoms: N_8  and  C_15 
REMARK    5  A    between atoms: N_12  and  C_25 
REMARK    6  A    between atoms: C_15  and  C_25 
REMARK    7  A    between atoms: C_21  and  C_25 
ROOT
HETATM    1  C           1     -20.792  -9.171  -4.289  0.00  0.00     0.190 C 
ENDROOT
BRANCH   1   2
HETATM    2  C           1     -20.042  -7.909  -4.693  0.00  0.00     0.077 C 
BRANCH   2   3
HETATM    3  C           1     -21.011  -6.907  -5.241  0.00  0.00    -0.028 A 
HETATM    4  C           1     -20.741  -5.949  -6.256  0.00  0.00    -0.002 A 
HETATM    5  C           1     -21.915  -5.222  -6.459  0.00  0.00     0.042 A 
HETATM    6  C           1     -19.605  -5.629  -7.026  0.00  0.00     0.014 A 
HETATM    7  N           1     -22.857  -5.729  -5.592  0.00  0.00    -0.365 N 
HETATM    8  C           1     -22.011  -4.188  -7.397  0.00  0.00     0.030 A 
HETATM    9  C           1     -22.321  -6.748  -4.851  0.00  0.00     0.096 A 
HETATM   10  H           1     -23.846  -5.383  -5.512  0.00  0.00     0.165 HD
HETATM   11  C           1     -20.870  -3.889  -8.148  0.00  0.00     0.002 A 
HETATM   12  C           1     -19.684  -4.597  -7.968  0.00  0.00     0.001 A 
ENDBRANCH   2   3
ENDBRANCH   1   2
BRANCH   1  13
HETATM   13  C           1     -20.386 -10.309  -5.194  0.00  0.00     0.197 C 
HETATM   14  O           1     -21.072 -10.581  -6.203  0.00  0.00    -0.646 OA
HETATM   15  O           1     -19.363 -10.979  -4.936  0.00  0.00    -0.646 OA
ENDBRANCH   1  13
BRANCH   1  16
HETATM   16  N           1     -20.467  -9.509  -2.917  0.00  0.00    -0.344 N 
HETATM   17  C           1     -21.399 -10.125  -2.125  0.00  0.00     0.249 C 
HETATM   18  O           1     -21.457 -11.331  -2.089  0.00  0.00    -0.271 OA
HETATM   19  H           1     -19.553  -9.288  -2.544  0.00  0.00     0.163 HD
BRANCH  17  20
HETATM   20  C           1     -22.352  -9.298  -1.297  0.00  0.00     0.278 C 
BRANCH  20  21
HETATM   21  N           1     -22.938 -10.150  -0.212  0.00  0.00    -0.066 N 
HETATM   22  H           1     -22.233 -10.859   0.095  0.00  0.00     0.275 HD
HETATM   23  H           1     -23.200  -9.548   0.601  0.00  0.00     0.275 HD
HETATM   24  H           1     -23.788 -10.639  -0.573  0.00  0.00     0.275 HD
ENDBRANCH  20  21
BRANCH  20  25
HETATM   25  C           1     -21.602  -8.128  -0.675  0.00  0.00     0.017 C 
HETATM   26  C           1     -22.222  -6.818  -1.143  0.00  0.00     0.012 C 
HETATM   27  C           1     -21.691  -8.217   0.843  0.00  0.00     0.012 C 
ENDBRANCH  20  25
ENDBRANCH  17  20
ENDBRANCH   1  16
TORSDOF 7
ENDMDL
MODEL 3
REMARK VINA RESULT:      -7.1      1.942      3.005
REMARK  7 active torsions:
REMARK  status: ('A' for Active; 'I' for Inactive)
REMARK    1  A    between atoms: C_6  and  C_7 
REMARK    2  A    between atoms: C_6  and  C_17 
REMARK    3  A    between atoms: C_7  and  C_16 
REMARK    4  A    between atoms: C_7  and  N_8 
REMARK       I    between atoms: N_8  and  C_15 
REMARK    5  A    between atoms: N_12  and  C_25 
REMARK    6  A    between atoms: C_15  and  C_25 
REMARK    7  A    between atoms: C_21  and  C_25 
ROOT
HETATM    1  C           1     -21.726  -6.685  -5.199  0.00  0.00     0.190 C 
ENDROOT
BRANCH   1   2
HETATM    2  C           1     -20.877  -5.422  -5.137  0.00  0.00     0.077 C 
BRANCH   2   3
HETATM    3  C           1     -20.566  -4.962  -6.528  0.00  0.00    -0.028 A 
HETATM    4  C           1     -21.513  -4.569  -7.512  0.00  0.00    -0.002 A 
HETATM    5  C           1     -20.796  -4.217  -8.656  0.00  0.00     0.042 A 
HETATM    6  C           1     -22.919  -4.478  -7.539  0.00  0.00     0.014 A 
HETATM    7  N           1     -19.462  -4.394  -8.366  0.00  0.00    -0.365 N 
HETATM    8  C           1     -21.416  -3.777  -9.831  0.00  0.00     0.030 A 
HETATM    9  C           1     -19.311  -4.845  -7.081  0.00  0.00     0.096 A 
HETATM   10  H           1     -18.672  -4.210  -9.035  0.00  0.00     0.165 HD
HETATM   11  C           1     -22.812  -3.696  -9.834  0.00  0.00     0.002 A 
HETATM   12  C           1     -23.555  -4.040  -8.707  0.00  0.00     0.001 A 
ENDBRANCH   2   3
ENDBRANCH   1   2
BRANCH   1  13
HETATM   13  C           1     -20.824  -7.894  -5.266  0.00  0.00     0.197 C 
HETATM   14  O           1     -21.266  -8.980  -5.699  0.00  0.00    -0.646 OA
HETATM   15  O           1     -19.636  -7.809  -4.890  0.00  0.00    -0.646 OA
ENDBRANCH   1  13
BRANCH   1  16
HETATM   16  N           1     -22.555  -6.769  -4.012  0.00  0.00    -0.344 N 
HETATM   17  C           1     -21.978  -6.726  -2.771  0.00  0.00     0.249 C 
HETATM   18  O           1     -21.818  -5.665  -2.215  0.00  0.00    -0.271 OA
HETATM   19  H           1     -23.558  -6.859  -4.100  0.00  0.00     0.163 HD
BRANCH  17  20
HETATM   20  C           1     -21.543  -8.005  -2.096  0.00  0.00     0.278 C 
BRANCH  20  21
HETATM   21  N           1     -20.086  -7.916  -1.752  0.00  0.00    -0.066 N 
HETATM   22  H           1     -19.590  -8.763  -2.113  0.00  0.00     0.275 HD
HETATM   23  H           1     -19.676  -7.061  -2.192  0.00  0.00     0.275 HD
HETATM   24  H           1     -19.975  -7.863  -0.715  0.00  0.00     0.275 HD
ENDBRANCH  20  21
BRANCH  20  25
HETATM   25  C           1     -22.353  -8.208  -0.823  0.00  0.00     0.017 C 
HETATM   26  C           1     -22.841  -9.650  -0.756  0.00  0.00     0.012 C 
HETATM   27  C           1     -21.479  -7.912   0.388  0.00  0.00     0.012 C 
ENDBRANCH  20  25
ENDBRANCH  17  20
ENDBRANCH   1  16
TORSDOF 7
ENDMDL
MODEL 4
REMARK VINA RESULT:      -7.1      1.550      2.279
REMARK  7 active torsions:
REMARK  status: ('A' for Active; 'I' for Inactive)
REMARK    1  A    between atoms: C_6  and  C_7 
REMARK    2  A    between atoms: C_6  and  C_17 
REMARK    3  A    between atoms: C_7  and  C_16 
REMARK    4  A    between atoms: C_7  and  N_8 
REMARK       I    between atoms: N_8  and  C_15 
REMARK    5  A    between atoms: N_12  and  C_25 
REMARK    6  A    between atoms: C_15  and  C_25 
REMARK    7  A    between atoms: C_21  and  C_25 
ROOT
HETATM    1  C           1     -21.498  -5.505  -6.882  0.00  0.00     0.190 C 
ENDROOT
BRANCH   1   2
HETATM    2  C           1     -21.831  -4.115  -7.410  0.00  0.00     0.077 C 
BRANCH   2   3
HETATM    3  C           1     -21.539  -4.056  -8.878  0.00  0.00    -0.028 A 
HETATM    4  C           1     -22.478  -3.778  -9.908  0.00  0.00    -0.002 A 
HETATM    5  C           1     -21.786  -3.823 -11.119  0.00  0.00     0.042 A 
HETATM    6  C           1     -23.857  -3.490  -9.927  0.00  0.00     0.014 A 
HETATM    7  N           1     -20.474  -4.119 -10.822  0.00  0.00    -0.365 N 
HETATM    8  C           1     -22.406  -3.594 -12.353  0.00  0.00     0.030 A 
HETATM    9  C           1     -20.314  -4.263  -9.470  0.00  0.00     0.096 A 
HETATM   10  H           1     -19.706  -4.221 -11.533  0.00  0.00     0.165 HD
HETATM   11  C           1     -23.775  -3.311 -12.346  0.00  0.00     0.002 A 
HETATM   12  C           1     -24.493  -3.259 -11.153  0.00  0.00     0.001 A 
ENDBRANCH   2   3
ENDBRANCH   1   2
BRANCH   1  13
HETATM   13  C           1     -20.027  -5.578  -6.552  0.00  0.00     0.197 C 
HETATM   14  O           1     -19.383  -6.621  -6.797  0.00  0.00    -0.646 OA
HETATM   15  O           1     -19.452  -4.596  -6.035  0.00  0.00    -0.646 OA
ENDBRANCH   1  13
BRANCH   1  16
HETATM   16  N           1     -22.273  -5.765  -5.684  0.00  0.00    -0.344 N 
HETATM   17  C           1     -21.698  -6.416  -4.626  0.00  0.00     0.249 C 
HETATM   18  O           1     -21.138  -5.786  -3.761  0.00  0.00    -0.271 OA
HETATM   19  H           1     -23.238  -5.467  -5.631  0.00  0.00     0.163 HD
BRANCH  17  20
HETATM   20  C           1     -21.763  -7.922  -4.540  0.00  0.00     0.278 C 
BRANCH  20  21
HETATM   21  N           1     -21.273  -8.517  -5.826  0.00  0.00    -0.066 N 
HETATM   22  H           1     -22.091  -8.811  -6.408  0.00  0.00     0.275 HD
HETATM   23  H           1     -20.714  -7.805  -6.348  0.00  0.00     0.275 HD
HETATM   24  H           1     -20.675  -9.348  -5.620  0.00  0.00     0.275 HD
ENDBRANCH  20  21
BRANCH  20  25
HETATM   25  C           1     -20.887  -8.403  -3.392  0.00  0.00     0.017 C 
HETATM   26  C           1     -21.609  -9.507  -2.629  0.00  0.00     0.012 C 
HETATM   27  C           1     -19.576  -8.945  -3.946  0.00  0.00     0.012 C 
ENDBRANCH  20  25
ENDBRANCH  17  20
ENDBRANCH   1  16
TORSDOF 7
ENDMDL
MODEL 5
REMARK VINA RESULT:      -7.1      1.533      6.887
REMARK  7 active torsions:
REMARK  status: ('A' for Active; 'I' for Inactive)
REMARK    1  A    between atoms: C_6  and  C_7 
REMARK    2  A    between atoms: C_6  and  C_17 
REMARK    3  A    between atoms: C_7  and  C_16 
REMARK    4  A    between atoms: C_7  and  N_8 
REMARK       I    between atoms: N_8  and  C_15 
REMARK    5  A    between atoms: N_12  and  C_25 
REMARK    6  A    between atoms: C_15  and  C_25 
REMARK    7  A    between atoms: C_21  and  C_25 
ROOT
HETATM    1  C           1     -20.746  -5.057  -6.278  0.00  0.00     0.190 C 
ENDROOT
BRANCH   1   2
HETATM    2  C           1     -21.536  -6.351  -6.133  0.00  0.00     0.077 C 
BRANCH   2   3
HETATM    3  C           1     -20.949  -7.172  -5.026  0.00  0.00    -0.028 A 
HETATM    4  C           1     -21.294  -7.091  -3.649  0.00  0.00    -0.002 A 
HETATM    5  C           1     -20.511  -8.028  -2.973  0.00  0.00     0.042 A 
HETATM    6  C           1     -22.201  -6.307  -2.910  0.00  0.00     0.014 A 
HETATM    7  N           1     -19.722  -8.649  -3.916  0.00  0.00    -0.365 N 
HETATM    8  C           1     -20.590  -8.221  -1.589  0.00  0.00     0.030 A 
HETATM    9  C           1     -19.979  -8.139  -5.160  0.00  0.00     0.096 A 
HETATM   10  H           1     -19.024  -9.407  -3.709  0.00  0.00     0.165 HD
HETATM   11  C           1     -21.497  -7.431  -0.877  0.00  0.00     0.002 A 
HETATM   12  C           1     -22.293  -6.487  -1.524  0.00  0.00     0.001 A 
ENDBRANCH   2   3
ENDBRANCH   1   2
BRANCH   1  13
HETATM   13  C           1     -19.563  -5.288  -7.186  0.00  0.00     0.197 C 
HETATM   14  O           1     -18.615  -4.474  -7.198  0.00  0.00    -0.646 OA
HETATM   15  O           1     -19.530  -6.295  -7.926  0.00  0.00    -0.646 OA
ENDBRANCH   1  13
BRANCH   1  16
HETATM   16  N           1     -21.598  -4.032  -6.849  0.00  0.00    -0.344 N 
HETATM   17  C           1     -22.784  -4.380  -7.439  0.00  0.00     0.249 C 
HETATM   18  O           1     -23.796  -4.426  -6.780  0.00  0.00    -0.271 OA
HETATM   19  H           1     -21.317  -3.061  -6.813  0.00  0.00     0.163 HD
BRANCH  17  20
HETATM   20  C           1     -22.828  -4.705  -8.912  0.00  0.00     0.278 C 
BRANCH  20  21
HETATM   21  N           1     -24.255  -4.728  -9.375  0.00  0.00    -0.066 N 
HETATM   22  H           1     -24.593  -5.717  -9.412  0.00  0.00     0.275 HD
HETATM   23  H           1     -24.846  -4.184  -8.707  0.00  0.00     0.275 HD
HETATM   24  H           1     -24.319  -4.302 -10.327  0.00  0.00     0.275 HD
ENDBRANCH  20  21
BRANCH  20  25
HETATM   25  C           1     -22.060  -3.644  -9.689  0.00  0.00     0.017 C 
HETATM   26  C           1     -20.844  -4.280 -10.351  0.00  0.00     0.012 C 
HETATM   27  C           1     -22.963  -3.045 -10.759  0.00  0.00     0.012 C 
ENDBRANCH  20  25
ENDBRANCH  17  20
ENDBRANCH   1  16
TORSDOF 7
ENDMDL
MODEL 6
REMARK VINA RESULT:      -7.0      1.782      7.546
REMARK  7 active torsions:
REMARK  status: ('A' for Active; 'I' for Inactive)
REMARK    1  A    between atoms: C_6  and  C_7 
REMARK    2  A    between atoms: C_6  and  C_17 
REMARK    3  A    between atoms: C_7  and  C_16 
REMARK    4  A    between atoms: C_7  and  N_8 
REMARK       I    between atoms: N_8  and  C_15 
REMARK    5  A    between atoms: N_12  and  C_25 
REMARK    6  A    between atoms: C_15  and  C_25 
REMARK    7  A    between atoms: C_21  and  C_25 
ROOT
HETATM    1  C           1     -21.200  -7.221  -5.757  0.00  0.00     0.190 C 
ENDROOT
BRANCH   1   2
HETATM    2  C           1     -20.228  -8.001  -4.882  0.00  0.00     0.077 C 
BRANCH   2   3
HETATM    3  C           1     -20.987  -8.993  -4.055  0.00  0.00    -0.028 A 
HETATM    4  C           1     -21.259  -8.890  -2.663  0.00  0.00    -0.002 A 
HETATM    5  C           1     -21.987 -10.025  -2.302  0.00  0.00     0.042 A 
HETATM    6  C           1     -20.954  -7.937  -1.672  0.00  0.00     0.014 A 
HETATM    7  N           1     -22.145 -10.782  -3.441  0.00  0.00    -0.365 N 
HETATM    8  C           1     -22.428 -10.254  -0.993  0.00  0.00     0.030 A 
HETATM    9  C           1     -21.544 -10.168  -4.507  0.00  0.00     0.096 A 
HETATM   10  H           1     -22.655 -11.700  -3.485  0.00  0.00     0.165 HD
HETATM   11  C           1     -22.112  -9.294  -0.027  0.00  0.00     0.002 A 
HETATM   12  C           1     -21.387  -8.152  -0.358  0.00  0.00     0.001 A 
ENDBRANCH   2   3
ENDBRANCH   1   2
BRANCH   1  13
HETATM   13  C           1     -21.968  -6.239  -4.905  0.00  0.00     0.197 C 
HETATM   14  O           1     -21.382  -5.603  -4.003  0.00  0.00    -0.646 OA
HETATM   15  O           1     -23.189  -6.061  -5.103  0.00  0.00    -0.646 OA
ENDBRANCH   1  13
BRANCH   1  16
HETATM   16  N           1     -20.462  -6.500  -6.775  0.00  0.00    -0.344 N 
HETATM   17  C           1     -20.808  -5.213  -7.088  0.00  0.00     0.249 C 
HETATM   18  O           1     -20.300  -4.290  -6.496  0.00  0.00    -0.271 OA
HETATM   19  H           1     -19.693  -6.947  -7.256  0.00  0.00     0.163 HD
BRANCH  17  20
HETATM   20  C           1     -21.824  -4.945  -8.171  0.00  0.00     0.278 C 
BRANCH  20  21
HETATM   21  N           1     -23.022  -4.267  -7.576  0.00  0.00    -0.066 N 
HETATM   22  H           1     -23.726  -4.987  -7.294  0.00  0.00     0.275 HD
HETATM   23  H           1     -22.730  -3.721  -6.734  0.00  0.00     0.275 HD
HETATM   24  H           1     -23.445  -3.623  -8.281  0.00  0.00     0.275 HD
ENDBRANCH  20  21
BRANCH  20  25
HETATM   25  C           1     -21.208  -4.046  -9.235  0.00  0.00     0.017 C 
HETATM   26  C           1     -20.118  -4.808  -9.977  0.00  0.00     0.012 C 
HETATM   27  C           1     -22.286  -3.614 -10.221  0.00  0.00     0.012 C 
ENDBRANCH  20  25
ENDBRANCH  17  20
ENDBRANCH   1  16
TORSDOF 7
ENDMDL
MODEL 7
REMARK VINA RESULT:      -7.0      1.432      6.686
REMARK  7 active torsions:
REMARK  status: ('A' for Active; 'I' for Inactive)
REMARK    1  A    between atoms: C_6  and  C_7 
REMARK    2  A    between atoms: C_6  and  C_17 
REMARK    3  A    between atoms: C_7  and  C_16 
REMARK    4  A    between atoms: C_7  and  N_8 
REMARK       I    between atoms: N_8  and  C_15 
REMARK    5  A    between atoms: N_12  and  C_25 
REMARK    6  A    between atoms: C_15  and  C_25 
REMARK    7  A    between atoms: C_21  and  C_25 
ROOT
HETATM    1  C           1     -20.806  -4.888  -6.352  0.00  0.00     0.190 C 
ENDROOT
BRANCH   1   2
HETATM    2  C           1     -21.669  -6.117  -6.096  0.00  0.00     0.077 C 
BRANCH   2   3
HETATM    3  C           1     -21.420  -6.621  -4.708  0.00  0.00    -0.028 A 
HETATM    4  C           1     -20.515  -7.655  -4.342  0.00  0.00    -0.002 A 
HETATM    5  C           1     -20.598  -7.803  -2.957  0.00  0.00     0.042 A 
HETATM    6  C           1     -19.630  -8.483  -5.060  0.00  0.00     0.014 A 
HETATM    7  N           1     -21.523  -6.887  -2.508  0.00  0.00    -0.365 N 
HETATM    8  C           1     -19.837  -8.741  -2.251  0.00  0.00     0.030 A 
HETATM    9  C           1     -22.027  -6.167  -3.559  0.00  0.00     0.096 A 
HETATM   10  H           1     -21.803  -6.759  -1.503  0.00  0.00     0.165 HD
HETATM   11  C           1     -18.966  -9.552  -2.985  0.00  0.00     0.002 A 
HETATM   12  C           1     -18.861  -9.427  -4.368  0.00  0.00     0.001 A 
ENDBRANCH   2   3
ENDBRANCH   1   2
BRANCH   1  13
HETATM   13  C           1     -19.565  -5.293  -7.110  0.00  0.00     0.197 C 
HETATM   14  O           1     -19.494  -6.427  -7.631  0.00  0.00    -0.646 OA
HETATM   15  O           1     -18.610  -4.495  -7.219  0.00  0.00    -0.646 OA
ENDBRANCH   1  13
BRANCH   1  16
HETATM   16  N           1     -21.556  -3.925  -7.135  0.00  0.00    -0.344 N 
HETATM   17  C           1     -22.618  -4.340  -7.892  0.00  0.00     0.249 C 
HETATM   18  O           1     -23.728  -4.362  -7.416  0.00  0.00    -0.271 OA
HETATM   19  H           1     -21.294  -2.949  -7.123  0.00  0.00     0.163 HD
BRANCH  17  20
HETATM   20  C           1     -22.404  -4.769  -9.324  0.00  0.00     0.278 C 
BRANCH  20  21
HETATM   21  N           1     -23.724  -4.818 -10.033  0.00  0.00    -0.066 N 
HETATM   22  H           1     -23.866  -3.931 -10.568  0.00  0.00     0.275 HD
HETATM   23  H           1     -23.735  -5.627 -10.694  0.00  0.00     0.275 HD
HETATM   24  H           1     -24.492  -4.929  -9.332  0.00  0.00     0.275 HD
ENDBRANCH  20  21
BRANCH  20  25
HETATM   25  C           1     -21.489  -3.772 -10.022  0.00  0.00     0.017 C 
HETATM   26  C           1     -20.275  -4.501 -10.583  0.00  0.00     0.012 C 
HETATM   27  C           1     -22.247  -3.099 -11.159  0.00  0.00     0.012 C 
ENDBRANCH  20  25
ENDBRANCH  17  20
ENDBRANCH   1  16
TORSDOF 7
ENDMDL
MODEL 8
REMARK VINA RESULT:      -6.9      3.447      7.219
REMARK  7 active torsions:
REMARK  status: ('A' for Active; 'I' for Inactive)
REMARK    1  A    between atoms: C_6  and  C_7 
REMARK    2  A    between atoms: C_6  and  C_17 
REMARK    3  A    between atoms: C_7  and  C_16 
REMARK    4  A    between atoms: C_7  and  N_8 
REMARK       I    between atoms: N_8  and  C_15 
REMARK    5  A    between atoms: N_12  and  C_25 
REMARK    6  A    between atoms: C_15  and  C_25 
REMARK    7  A    between atoms: C_21  and  C_25 
ROOT
HETATM    1  C           1     -21.386  -8.769  -2.139  0.00  0.00     0.190 C 
ENDROOT
BRANCH   1   2
HETATM    2  C           1     -20.198  -9.721  -2.100  0.00  0.00     0.077 C 
BRANCH   2   3
HETATM    3  C           1     -19.655  -9.898  -3.484  0.00  0.00    -0.028 A 
HETATM    4  C           1     -18.285  -9.835  -3.861  0.00  0.00    -0.002 A 
HETATM    5  C           1     -18.227 -10.055  -5.238  0.00  0.00     0.042 A 
HETATM    6  C           1     -17.084  -9.611  -3.160  0.00  0.00     0.014 A 
HETATM    7  N           1     -19.521 -10.242  -5.671  0.00  0.00    -0.365 N 
HETATM    8  C           1     -17.023 -10.062  -5.952  0.00  0.00     0.030 A 
HETATM    9  C           1     -20.392 -10.150  -4.619  0.00  0.00     0.096 A 
HETATM   10  H           1     -19.799 -10.431  -6.667  0.00  0.00     0.165 HD
HETATM   11  C           1     -15.845  -9.836  -5.234  0.00  0.00     0.002 A 
HETATM   12  C           1     -15.871  -9.615  -3.859  0.00  0.00     0.001 A 
ENDBRANCH   2   3
ENDBRANCH   1   2
BRANCH   1  13
HETATM   13  C           1     -22.011  -8.688  -0.767  0.00  0.00     0.197 C 
HETATM   14  O           1     -21.571  -7.875   0.073  0.00  0.00    -0.646 OA
HETATM   15  O           1     -22.971  -9.433  -0.472  0.00  0.00    -0.646 OA
ENDBRANCH   1  13
BRANCH   1  16
HETATM   16  N           1     -20.936  -7.451  -2.541  0.00  0.00    -0.344 N 
HETATM   17  C           1     -21.788  -6.611  -3.206  0.00  0.00     0.249 C 
HETATM   18  O           1     -22.492  -5.849  -2.586  0.00  0.00    -0.271 OA
HETATM   19  H           1     -19.993  -7.152  -2.332  0.00  0.00     0.163 HD
BRANCH  17  20
HETATM   20  C           1     -21.849  -6.636  -4.714  0.00  0.00     0.278 C 
BRANCH  20  21
HETATM   21  N           1     -23.152  -6.048  -5.170  0.00  0.00    -0.066 N 
HETATM   22  H           1     -23.851  -6.105  -4.395  0.00  0.00     0.275 HD
HETATM   23  H           1     -23.008  -5.047  -5.435  0.00  0.00     0.275 HD
HETATM   24  H           1     -23.504  -6.581  -5.997  0.00  0.00     0.275 HD
ENDBRANCH  20  21
BRANCH  20  25
HETATM   25  C           1     -20.697  -5.819  -5.283  0.00  0.00     0.017 C 
HETATM   26  C           1     -19.778  -6.728  -6.089  0.00  0.00     0.012 C 
HETATM   27  C           1     -21.248  -4.725  -6.187  0.00  0.00     0.012 C 
ENDBRANCH  20  25
ENDBRANCH  17  20
ENDBRANCH   1  16
TORSDOF 7
ENDMDL
MODEL 9
REMARK VINA RESULT:      -6.9      4.938      8.011
REMARK  7 active torsions:
REMARK  status: ('A' for Active; 'I' for Inactive)
REMARK    1  A    between atoms: C_6  and  C_7 
REMARK    2  A    between atoms: C_6  and  C_17 
REMARK    3  A    between atoms: C_7  and  C_16 
REMARK    4  A    between atoms: C_7  and  N_8 
REMARK       I    between atoms: N_8  and  C_15 
REMARK    5  A    between atoms: N_12  and  C_25 
REMARK    6  A    between atoms: C_15  and  C_25 
REMARK    7  A    between atoms: C_21  and  C_25 
ROOT
HETATM    1  C           1     -21.072  -7.792  -3.520  0.00  0.00     0.190 C 
ENDROOT
BRANCH   1   2
HETATM    2  C           1     -20.509  -7.947  -2.114  0.00  0.00     0.077 C 
BRANCH   2   3
HETATM    3  C           1     -21.587  -8.433  -1.195  0.00  0.00    -0.028 A 
HETATM    4  C           1     -22.274  -9.674  -1.293  0.00  0.00    -0.002 A 
HETATM    5  C           1     -23.191  -9.720  -0.242  0.00  0.00     0.042 A 
HETATM    6  C           1     -22.203 -10.768  -2.178  0.00  0.00     0.014 A 
HETATM    7  N           1     -23.058  -8.544   0.462  0.00  0.00    -0.365 N 
HETATM    8  C           1     -24.045 -10.809  -0.031  0.00  0.00     0.030 A 
HETATM    9  C           1     -22.090  -7.758  -0.106  0.00  0.00     0.096 A 
HETATM   10  H           1     -23.618  -8.286   1.313  0.00  0.00     0.165 HD
HETATM   11  C           1     -23.957 -11.882  -0.923  0.00  0.00     0.002 A 
HETATM   12  C           1     -23.050 -11.865  -1.981  0.00  0.00     0.001 A 
ENDBRANCH   2   3
ENDBRANCH   1   2
BRANCH   1  13
HETATM   13  C           1     -21.532  -6.368  -3.723  0.00  0.00     0.197 C 
HETATM   14  O           1     -20.951  -5.636  -4.552  0.00  0.00    -0.646 OA
HETATM   15  O           1     -22.495  -5.922  -3.063  0.00  0.00    -0.646 OA
ENDBRANCH   1  13
BRANCH   1  16
HETATM   16  N           1     -20.043  -8.108  -4.491  0.00  0.00    -0.344 N 
HETATM   17  C           1     -19.852  -9.404  -4.888  0.00  0.00     0.249 C 
HETATM   18  O           1     -20.458  -9.840  -5.839  0.00  0.00    -0.271 OA
HETATM   19  H           1     -19.465  -7.371  -4.874  0.00  0.00     0.163 HD
BRANCH  17  20
HETATM   20  C           1     -18.887 -10.290  -4.139  0.00  0.00     0.278 C 
BRANCH  20  21
HETATM   21  N           1     -18.699 -11.573  -4.892  0.00  0.00    -0.066 N 
HETATM   22  H           1     -17.868 -11.490  -5.522  0.00  0.00     0.275 HD
HETATM   23  H           1     -18.545 -12.354  -4.216  0.00  0.00     0.275 HD
HETATM   24  H           1     -19.552 -11.768  -5.465  0.00  0.00     0.275 HD
ENDBRANCH  20  21
BRANCH  20  25
HETATM   25  C           1     -17.546  -9.580  -4.004  0.00  0.00     0.017 C 
HETATM   26  C           1     -16.911  -9.942  -2.668  0.00  0.00     0.012 C 
HETATM   27  C           1     -16.626 -10.014  -5.138  0.00  0.00     0.012 C 
ENDBRANCH  20  25
ENDBRANCH  17  20
ENDBRANCH   1  16
TORSDOF 7
ENDMDL
