MODEL 1
REMARK VINA RESULT:      -5.9      0.000      0.000
REMARK  8 active torsions:
REMARK  status: ('A' for Active; 'I' for Inactive)
REMARK    1  A    between atoms: O_2  and  P_4 
REMARK    2  A    between atoms: C_3  and  C_7 
REMARK    3  A    between atoms: P_4  and  O_5 
REMARK    4  A    between atoms: O_5  and  C_6 
REMARK    5  A    between atoms: C_6  and  C_7 
REMARK    6  A    between atoms: C_7  and  N_10 
REMARK       I    between atoms: N_10  and  C_11 
REMARK    7  A    between atoms: C_11  and  C_12 
REMARK    8  A    between atoms: C_12  and  N_13 
ROOT
HETATM    1  C           1     -34.972  -0.245 -12.425  0.00  0.00     0.210 C 
ENDROOT
BRANCH   1   2
HETATM    2  C           1     -36.312  -0.130 -11.739  0.00  0.00     0.198 C 
HETATM    3  O           1     -36.405   0.474 -10.648  0.00  0.00    -0.646 OA
HETATM    4  O           1     -37.327  -0.637 -12.262  0.00  0.00    -0.646 OA
ENDBRANCH   1   2
BRANCH   1   5
HETATM    5  C           1     -34.994   0.553 -13.721  0.00  0.00     0.217 C 
BRANCH   5   6
HETATM    6  O           1     -35.049  -0.326 -14.812  0.00  0.00    -0.287 OA
BRANCH   6   7
HETATM    7  P           1     -36.313  -0.149 -15.801  0.00  0.00     0.406 P 
HETATM    8  O           1     -36.507   1.287 -16.100  0.00  0.00    -0.624 OA
HETATM    9  O           1     -36.062  -0.886 -17.059  0.00  0.00    -0.624 OA
BRANCH   7  10
HETATM   10  O           1     -37.639  -0.736 -15.089  0.00  0.00    -0.300 OA
HETATM   11  H           1     -38.019  -0.001 -14.638  0.00  0.00     0.223 HD
ENDBRANCH   7  10
ENDBRANCH   6   7
ENDBRANCH   5   6
ENDBRANCH   1   5
BRANCH   1  12
HETATM   12  N           1     -34.700  -1.639 -12.720  0.00  0.00    -0.343 N 
HETATM   13  C           1     -33.976  -2.396 -11.838  0.00  0.00     0.243 C 
HETATM   14  O           1     -33.564  -1.903 -10.815  0.00  0.00    -0.272 OA
HETATM   15  H           1     -35.045  -2.052 -13.576  0.00  0.00     0.163 HD
BRANCH  13  16
HETATM   16  C           1     -33.693  -3.846 -12.145  0.00  0.00     0.332 C 
BRANCH  16  17
HETATM   17  N           1     -33.709  -4.057 -13.631  0.00  0.00    -0.071 N 
HETATM   18  H           1     -34.676  -4.309 -13.936  0.00  0.00     0.274 HD
HETATM   19  H           1     -33.411  -3.177 -14.109  0.00  0.00     0.274 HD
HETATM   20  H           1     -33.052  -4.829 -13.880  0.00  0.00     0.274 HD
ENDBRANCH  16  17
ENDBRANCH  13  16
ENDBRANCH   1  12
TORSDOF 8
ENDMDL
MODEL 2
REMARK VINA RESULT:      -5.9     11.926     13.321
REMARK  8 active torsions:
REMARK  status: ('A' for Active; 'I' for Inactive)
REMARK    1  A    between atoms: O_2  and  P_4 
REMARK    2  A    between atoms: C_3  and  C_7 
REMARK    3  A    between atoms: P_4  and  O_5 
REMARK    4  A    between atoms: O_5  and  C_6 
REMARK    5  A    between atoms: C_6  and  C_7 
REMARK    6  A    between atoms: C_7  and  N_10 
REMARK       I    between atoms: N_10  and  C_11 
REMARK    7  A    between atoms: C_11  and  C_12 
REMARK    8  A    between atoms: C_12  and  N_13 
ROOT
HETATM    1  C           1     -22.658  -3.633 -10.257  0.00  0.00     0.210 C 
ENDROOT
BRANCH   1   2
HETATM    2  C           1     -24.141  -3.829 -10.062  0.00  0.00     0.198 C 
HETATM    3  O           1     -24.635  -4.975 -10.137  0.00  0.00    -0.646 OA
HETATM    4  O           1     -24.876  -2.846  -9.826  0.00  0.00    -0.646 OA
ENDBRANCH   1   2
BRANCH   1   5
HETATM    5  C           1     -22.323  -3.727 -11.739  0.00  0.00     0.217 C 
BRANCH   5   6
HETATM    6  O           1     -22.710  -2.543 -12.382  0.00  0.00    -0.287 OA
BRANCH   6   7
HETATM    7  P           1     -23.561  -2.722 -13.744  0.00  0.00     0.406 P 
HETATM    8  O           1     -22.635  -2.843 -14.892  0.00  0.00    -0.624 OA
HETATM    9  O           1     -24.391  -3.943 -13.649  0.00  0.00    -0.624 OA
BRANCH   7  10
HETATM   10  O           1     -24.516  -1.436 -13.954  0.00  0.00    -0.300 OA
HETATM   11  H           1     -24.612  -1.355 -14.888  0.00  0.00     0.223 HD
ENDBRANCH   7  10
ENDBRANCH   6   7
ENDBRANCH   5   6
ENDBRANCH   1   5
BRANCH   1  12
HETATM   12  N           1     -21.937  -4.662  -9.532  0.00  0.00    -0.343 N 
HETATM   13  C           1     -21.514  -4.428  -8.251  0.00  0.00     0.243 C 
HETATM   14  O           1     -21.743  -3.365  -7.724  0.00  0.00    -0.272 OA
HETATM   15  H           1     -21.745  -5.552  -9.973  0.00  0.00     0.163 HD
BRANCH  13  16
HETATM   16  C           1     -20.764  -5.498  -7.497  0.00  0.00     0.332 C 
BRANCH  16  17
HETATM   17  N           1     -20.299  -4.950  -6.180  0.00  0.00    -0.071 N 
HETATM   18  H           1     -20.959  -5.248  -5.426  0.00  0.00     0.274 HD
HETATM   19  H           1     -19.343  -5.315  -5.969  0.00  0.00     0.274 HD
HETATM   20  H           1     -20.272  -3.908  -6.227  0.00  0.00     0.274 HD
ENDBRANCH  16  17
ENDBRANCH  13  16
ENDBRANCH   1  12
TORSDOF 8
ENDMDL
MODEL 3
REMARK VINA RESULT:      -5.7     11.727     13.978
REMARK  8 active torsions:
REMARK  status: ('A' for Active; 'I' for Inactive)
REMARK    1  A    between atoms: O_2  and  P_4 
REMARK    2  A    between atoms: C_3  and  C_7 
REMARK    3  A    between atoms: P_4  and  O_5 
REMARK    4  A    between atoms: O_5  and  C_6 
REMARK    5  A    between atoms: C_6  and  C_7 
REMARK    6  A    between atoms: C_7  and  N_10 
REMARK       I    between atoms: N_10  and  C_11 
REMARK    7  A    between atoms: C_11  and  C_12 
REMARK    8  A    between atoms: C_12  and  N_13 
ROOT
HETATM    1  C           1     -23.090  -3.423 -11.504  0.00  0.00     0.210 C 
ENDROOT
BRANCH   1   2
HETATM    2  C           1     -24.321  -3.228 -10.653  0.00  0.00     0.198 C 
HETATM    3  O           1     -25.450  -3.185 -11.188  0.00  0.00    -0.646 OA
HETATM    4  O           1     -24.212  -3.109  -9.414  0.00  0.00    -0.646 OA
ENDBRANCH   1   2
BRANCH   1   5
HETATM    5  C           1     -21.850  -3.376 -10.622  0.00  0.00     0.217 C 
BRANCH   5   6
HETATM    6  O           1     -21.695  -4.606  -9.967  0.00  0.00    -0.287 OA
BRANCH   6   7
HETATM    7  P           1     -21.134  -4.536  -8.454  0.00  0.00     0.406 P 
HETATM    8  O           1     -21.018  -5.907  -7.907  0.00  0.00    -0.624 OA
HETATM    9  O           1     -19.804  -3.889  -8.450  0.00  0.00    -0.624 OA
BRANCH   7  10
HETATM   10  O           1     -22.154  -3.677  -7.542  0.00  0.00    -0.300 OA
HETATM   11  H           1     -21.602  -3.171  -6.971  0.00  0.00     0.223 HD
ENDBRANCH   7  10
ENDBRANCH   6   7
ENDBRANCH   5   6
ENDBRANCH   1   5
BRANCH   1  12
HETATM   12  N           1     -23.018  -2.368 -12.496  0.00  0.00    -0.343 N 
HETATM   13  C           1     -23.491  -2.586 -13.762  0.00  0.00     0.243 C 
HETATM   14  O           1     -23.970  -3.657 -14.053  0.00  0.00    -0.272 OA
HETATM   15  H           1     -22.618  -1.471 -12.254  0.00  0.00     0.163 HD
BRANCH  13  16
HETATM   16  C           1     -23.416  -1.488 -14.795  0.00  0.00     0.332 C 
BRANCH  16  17
HETATM   17  N           1     -24.582  -0.559 -14.625  0.00  0.00    -0.071 N 
HETATM   18  H           1     -24.397   0.089 -13.826  0.00  0.00     0.274 HD
HETATM   19  H           1     -24.714  -0.003 -15.500  0.00  0.00     0.274 HD
HETATM   20  H           1     -25.444  -1.114 -14.431  0.00  0.00     0.274 HD
ENDBRANCH  16  17
ENDBRANCH  13  16
ENDBRANCH   1  12
TORSDOF 8
ENDMDL
MODEL 4
REMARK VINA RESULT:      -5.5     11.544     13.560
REMARK  8 active torsions:
REMARK  status: ('A' for Active; 'I' for Inactive)
REMARK    1  A    between atoms: O_2  and  P_4 
REMARK    2  A    between atoms: C_3  and  C_7 
REMARK    3  A    between atoms: P_4  and  O_5 
REMARK    4  A    between atoms: O_5  and  C_6 
REMARK    5  A    between atoms: C_6  and  C_7 
REMARK    6  A    between atoms: C_7  and  N_10 
REMARK       I    between atoms: N_10  and  C_11 
REMARK    7  A    between atoms: C_11  and  C_12 
REMARK    8  A    between atoms: C_12  and  N_13 
ROOT
HETATM    1  C           1     -24.180  -4.023 -11.143  0.00  0.00     0.210 C 
ENDROOT
BRANCH   1   2
HETATM    2  C           1     -24.770  -3.470  -9.869  0.00  0.00     0.198 C 
HETATM    3  O           1     -24.103  -3.489  -8.812  0.00  0.00    -0.646 OA
HETATM    4  O           1     -25.925  -2.994  -9.870  0.00  0.00    -0.646 OA
ENDBRANCH   1   2
BRANCH   1   5
HETATM    5  C           1     -23.022  -4.953 -10.806  0.00  0.00     0.217 C 
BRANCH   5   6
HETATM    6  O           1     -21.902  -4.602 -11.573  0.00  0.00    -0.287 OA
BRANCH   6   7
HETATM    7  P           1     -20.633  -4.033 -10.751  0.00  0.00     0.406 P 
HETATM    8  O           1     -21.014  -3.826  -9.336  0.00  0.00    -0.624 OA
HETATM    9  O           1     -19.520  -5.005 -10.826  0.00  0.00    -0.624 OA
BRANCH   7  10
HETATM   10  O           1     -20.164  -2.627 -11.394  0.00  0.00    -0.300 OA
HETATM   11  H           1     -19.659  -2.207 -10.719  0.00  0.00     0.223 HD
ENDBRANCH   7  10
ENDBRANCH   6   7
ENDBRANCH   5   6
ENDBRANCH   1   5
BRANCH   1  12
HETATM   12  N           1     -23.698  -2.930 -11.965  0.00  0.00    -0.343 N 
HETATM   13  C           1     -23.903  -2.950 -13.318  0.00  0.00     0.243 C 
HETATM   14  O           1     -24.485  -3.878 -13.828  0.00  0.00    -0.272 OA
HETATM   15  H           1     -23.210  -2.153 -11.540  0.00  0.00     0.163 HD
BRANCH  13  16
HETATM   16  C           1     -23.401  -1.813 -14.175  0.00  0.00     0.332 C 
BRANCH  16  17
HETATM   17  N           1     -24.528  -0.864 -14.458  0.00  0.00    -0.071 N 
HETATM   18  H           1     -24.490  -0.066 -13.784  0.00  0.00     0.274 HD
HETATM   19  H           1     -24.440  -0.500 -15.433  0.00  0.00     0.274 HD
HETATM   20  H           1     -25.439  -1.364 -14.353  0.00  0.00     0.274 HD
ENDBRANCH  16  17
ENDBRANCH  13  16
ENDBRANCH   1  12
TORSDOF 8
ENDMDL
MODEL 5
REMARK VINA RESULT:      -5.2     12.996     15.073
REMARK  8 active torsions:
REMARK  status: ('A' for Active; 'I' for Inactive)
REMARK    1  A    between atoms: O_2  and  P_4 
REMARK    2  A    between atoms: C_3  and  C_7 
REMARK    3  A    between atoms: P_4  and  O_5 
REMARK    4  A    between atoms: O_5  and  C_6 
REMARK    5  A    between atoms: C_6  and  C_7 
REMARK    6  A    between atoms: C_7  and  N_10 
REMARK       I    between atoms: N_10  and  C_11 
REMARK    7  A    between atoms: C_11  and  C_12 
REMARK    8  A    between atoms: C_12  and  N_13 
ROOT
HETATM    1  C           1     -21.619  -4.882  -8.258  0.00  0.00     0.210 C 
ENDROOT
BRANCH   1   2
HETATM    2  C           1     -20.369  -4.358  -8.920  0.00  0.00     0.198 C 
HETATM    3  O           1     -20.180  -4.551 -10.140  0.00  0.00    -0.646 OA
HETATM    4  O           1     -19.522  -3.731  -8.248  0.00  0.00    -0.646 OA
ENDBRANCH   1   2
BRANCH   1   5
HETATM    5  C           1     -22.817  -4.053  -8.704  0.00  0.00     0.217 C 
BRANCH   5   6
HETATM    6  O           1     -23.507  -4.735  -9.716  0.00  0.00    -0.287 OA
BRANCH   6   7
HETATM    7  P           1     -23.695  -3.937 -11.107  0.00  0.00     0.406 P 
HETATM    8  O           1     -23.732  -4.902 -12.228  0.00  0.00    -0.624 OA
HETATM    9  O           1     -24.961  -3.173 -11.071  0.00  0.00    -0.624 OA
BRANCH   7  10
HETATM   10  O           1     -22.457  -2.918 -11.313  0.00  0.00    -0.300 OA
HETATM   11  H           1     -22.355  -2.489 -10.481  0.00  0.00     0.223 HD
ENDBRANCH   7  10
ENDBRANCH   6   7
ENDBRANCH   5   6
ENDBRANCH   1   5
BRANCH   1  12
HETATM   12  N           1     -21.477  -4.789  -6.817  0.00  0.00    -0.343 N 
HETATM   13  C           1     -21.167  -5.905  -6.088  0.00  0.00     0.243 C 
HETATM   14  O           1     -21.011  -6.967  -6.643  0.00  0.00    -0.272 OA
HETATM   15  H           1     -21.607  -3.901  -6.352  0.00  0.00     0.163 HD
BRANCH  13  16
HETATM   16  C           1     -21.019  -5.810  -4.589  0.00  0.00     0.332 C 
BRANCH  16  17
HETATM   17  N           1     -22.299  -6.235  -3.931  0.00  0.00    -0.071 N 
HETATM   18  H           1     -22.491  -7.237  -4.158  0.00  0.00     0.274 HD
HETATM   19  H           1     -22.211  -6.124  -2.896  0.00  0.00     0.274 HD
HETATM   20  H           1     -23.084  -5.642  -4.281  0.00  0.00     0.274 HD
ENDBRANCH  16  17
ENDBRANCH  13  16
ENDBRANCH   1  12
TORSDOF 8
ENDMDL
MODEL 6
REMARK VINA RESULT:      -5.1      2.649      5.052
REMARK  8 active torsions:
REMARK  status: ('A' for Active; 'I' for Inactive)
REMARK    1  A    between atoms: O_2  and  P_4 
REMARK    2  A    between atoms: C_3  and  C_7 
REMARK    3  A    between atoms: P_4  and  O_5 
REMARK    4  A    between atoms: O_5  and  C_6 
REMARK    5  A    between atoms: C_6  and  C_7 
REMARK    6  A    between atoms: C_7  and  N_10 
REMARK       I    between atoms: N_10  and  C_11 
REMARK    7  A    between atoms: C_11  and  C_12 
REMARK    8  A    between atoms: C_12  and  N_13 
ROOT
HETATM    1  C           1     -35.035  -1.348 -12.349  0.00  0.00     0.210 C 
ENDROOT
BRANCH   1   2
HETATM    2  C           1     -34.648  -2.797 -12.513  0.00  0.00     0.198 C 
HETATM    3  O           1     -34.348  -3.239 -13.643  0.00  0.00    -0.646 OA
HETATM    4  O           1     -34.626  -3.554 -11.519  0.00  0.00    -0.646 OA
ENDBRANCH   1   2
BRANCH   1   5
HETATM    5  C           1     -35.670  -1.143 -10.980  0.00  0.00     0.217 C 
BRANCH   5   6
HETATM    6  O           1     -36.138   0.175 -10.874  0.00  0.00    -0.287 OA
BRANCH   6   7
HETATM    7  P           1     -36.974   0.523  -9.536  0.00  0.00     0.406 P 
HETATM    8  O           1     -38.074   1.454  -9.871  0.00  0.00    -0.624 OA
HETATM    9  O           1     -37.537  -0.722  -8.968  0.00  0.00    -0.624 OA
BRANCH   7  10
HETATM   10  O           1     -35.993   1.214  -8.454  0.00  0.00    -0.300 OA
HETATM   11  H           1     -36.550   1.779  -7.947  0.00  0.00     0.223 HD
ENDBRANCH   7  10
ENDBRANCH   6   7
ENDBRANCH   5   6
ENDBRANCH   1   5
BRANCH   1  12
HETATM   12  N           1     -35.986  -0.984 -13.382  0.00  0.00    -0.343 N 
HETATM   13  C           1     -35.631  -0.085 -14.351  0.00  0.00     0.243 C 
HETATM   14  O           1     -34.527   0.405 -14.347  0.00  0.00    -0.272 OA
HETATM   15  H           1     -36.911  -1.393 -13.387  0.00  0.00     0.163 HD
BRANCH  13  16
HETATM   16  C           1     -36.620   0.295 -15.427  0.00  0.00     0.332 C 
BRANCH  16  17
HETATM   17  N           1     -36.432  -0.597 -16.618  0.00  0.00    -0.071 N 
HETATM   18  H           1     -37.352  -1.009 -16.894  0.00  0.00     0.274 HD
HETATM   19  H           1     -36.049  -0.039 -17.414  0.00  0.00     0.274 HD
HETATM   20  H           1     -35.765  -1.364 -16.377  0.00  0.00     0.274 HD
ENDBRANCH  16  17
ENDBRANCH  13  16
ENDBRANCH   1  12
TORSDOF 8
ENDMDL
MODEL 7
REMARK VINA RESULT:      -5.0     12.370     14.328
REMARK  8 active torsions:
REMARK  status: ('A' for Active; 'I' for Inactive)
REMARK    1  A    between atoms: O_2  and  P_4 
REMARK    2  A    between atoms: C_3  and  C_7 
REMARK    3  A    between atoms: P_4  and  O_5 
REMARK    4  A    between atoms: O_5  and  C_6 
REMARK    5  A    between atoms: C_6  and  C_7 
REMARK    6  A    between atoms: C_7  and  N_10 
REMARK       I    between atoms: N_10  and  C_11 
REMARK    7  A    between atoms: C_11  and  C_12 
REMARK    8  A    between atoms: C_12  and  N_13 
ROOT
HETATM    1  C           1     -23.086  -4.033 -10.067  0.00  0.00     0.210 C 
ENDROOT
BRANCH   1   2
HETATM    2  C           1     -24.541  -3.908  -9.688  0.00  0.00     0.198 C 
HETATM    3  O           1     -25.257  -4.931  -9.614  0.00  0.00    -0.646 OA
HETATM    4  O           1     -25.030  -2.784  -9.448  0.00  0.00    -0.646 OA
ENDBRANCH   1   2
BRANCH   1   5
HETATM    5  C           1     -22.216  -3.736  -8.853  0.00  0.00     0.217 C 
BRANCH   5   6
HETATM    6  O           1     -22.744  -4.387  -7.729  0.00  0.00    -0.287 OA
BRANCH   6   7
HETATM    7  P           1     -21.671  -5.096  -6.752  0.00  0.00     0.406 P 
HETATM    8  O           1     -20.691  -4.090  -6.283  0.00  0.00    -0.624 OA
HETATM    9  O           1     -22.374  -5.680  -5.588  0.00  0.00    -0.624 OA
BRANCH   7  10
HETATM   10  O           1     -20.901  -6.265  -7.558  0.00  0.00    -0.300 OA
HETATM   11  H           1     -21.061  -6.079  -8.468  0.00  0.00     0.223 HD
ENDBRANCH   7  10
ENDBRANCH   6   7
ENDBRANCH   5   6
ENDBRANCH   1   5
BRANCH   1  12
HETATM   12  N           1     -22.780  -3.087 -11.123  0.00  0.00    -0.343 N 
HETATM   13  C           1     -23.227  -3.316 -12.397  0.00  0.00     0.243 C 
HETATM   14  O           1     -23.877  -4.305 -12.641  0.00  0.00    -0.272 OA
HETATM   15  H           1     -22.237  -2.258 -10.920  0.00  0.00     0.163 HD
BRANCH  13  16
HETATM   16  C           1     -22.910  -2.331 -13.496  0.00  0.00     0.332 C 
BRANCH  16  17
HETATM   17  N           1     -22.545  -3.077 -14.746  0.00  0.00    -0.071 N 
HETATM   18  H           1     -23.415  -3.412 -15.218  0.00  0.00     0.274 HD
HETATM   19  H           1     -22.022  -2.442 -15.390  0.00  0.00     0.274 HD
HETATM   20  H           1     -21.945  -3.896 -14.500  0.00  0.00     0.274 HD
ENDBRANCH  16  17
ENDBRANCH  13  16
ENDBRANCH   1  12
TORSDOF 8
ENDMDL
MODEL 8
REMARK VINA RESULT:      -4.8     12.676     15.349
REMARK  8 active torsions:
REMARK  status: ('A' for Active; 'I' for Inactive)
REMARK    1  A    between atoms: O_2  and  P_4 
REMARK    2  A    between atoms: C_3  and  C_7 
REMARK    3  A    between atoms: P_4  and  O_5 
REMARK    4  A    between atoms: O_5  and  C_6 
REMARK    5  A    between atoms: C_6  and  C_7 
REMARK    6  A    between atoms: C_7  and  N_10 
REMARK       I    between atoms: N_10  and  C_11 
REMARK    7  A    between atoms: C_11  and  C_12 
REMARK    8  A    between atoms: C_12  and  N_13 
ROOT
HETATM    1  C           1     -21.915  -3.817  -9.411  0.00  0.00     0.210 C 
ENDROOT
BRANCH   1   2
HETATM    2  C           1     -20.448  -4.116  -9.601  0.00  0.00     0.198 C 
HETATM    3  O           1     -20.056  -4.680 -10.646  0.00  0.00    -0.646 OA
HETATM    4  O           1     -19.626  -3.801  -8.715  0.00  0.00    -0.646 OA
ENDBRANCH   1   2
BRANCH   1   5
HETATM    5  C           1     -22.544  -4.891  -8.533  0.00  0.00     0.217 C 
BRANCH   5   6
HETATM    6  O           1     -22.461  -4.503  -7.188  0.00  0.00    -0.287 OA
BRANCH   6   7
HETATM    7  P           1     -21.618  -5.482  -6.219  0.00  0.00     0.406 P 
HETATM    8  O           1     -21.003  -6.561  -7.024  0.00  0.00    -0.624 OA
HETATM    9  O           1     -20.557  -4.708  -5.539  0.00  0.00    -0.624 OA
BRANCH   7  10
HETATM   10  O           1     -22.605  -6.128  -5.116  0.00  0.00    -0.300 OA
HETATM   11  H           1     -23.473  -5.998  -5.460  0.00  0.00     0.223 HD
ENDBRANCH   7  10
ENDBRANCH   6   7
ENDBRANCH   5   6
ENDBRANCH   1   5
BRANCH   1  12
HETATM   12  N           1     -22.575  -3.801 -10.703  0.00  0.00    -0.343 N 
HETATM   13  C           1     -23.837  -3.283 -10.819  0.00  0.00     0.243 C 
HETATM   14  O           1     -24.401  -2.840  -9.847  0.00  0.00    -0.272 OA
HETATM   15  H           1     -22.104  -4.172 -11.517  0.00  0.00     0.163 HD
BRANCH  13  16
HETATM   16  C           1     -24.525  -3.267 -12.162  0.00  0.00     0.332 C 
BRANCH  16  17
HETATM   17  N           1     -23.689  -4.010 -13.162  0.00  0.00    -0.071 N 
HETATM   18  H           1     -24.228  -4.827 -13.529  0.00  0.00     0.274 HD
HETATM   19  H           1     -23.444  -3.373 -13.953  0.00  0.00     0.274 HD
HETATM   20  H           1     -22.815  -4.348 -12.703  0.00  0.00     0.274 HD
ENDBRANCH  16  17
ENDBRANCH  13  16
ENDBRANCH   1  12
TORSDOF 8
ENDMDL
MODEL 9
REMARK VINA RESULT:      -4.7     14.557     16.413
REMARK  8 active torsions:
REMARK  status: ('A' for Active; 'I' for Inactive)
REMARK    1  A    between atoms: O_2  and  P_4 
REMARK    2  A    between atoms: C_3  and  C_7 
REMARK    3  A    between atoms: P_4  and  O_5 
REMARK    4  A    between atoms: O_5  and  C_6 
REMARK    5  A    between atoms: C_6  and  C_7 
REMARK    6  A    between atoms: C_7  and  N_10 
REMARK       I    between atoms: N_10  and  C_11 
REMARK    7  A    between atoms: C_11  and  C_12 
REMARK    8  A    between atoms: C_12  and  N_13 
ROOT
HETATM    1  C           1     -21.311  -5.147  -8.280  0.00  0.00     0.210 C 
ENDROOT
BRANCH   1   2
HETATM    2  C           1     -22.096  -4.189  -7.417  0.00  0.00     0.198 C 
HETATM    3  O           1     -23.321  -4.365  -7.244  0.00  0.00    -0.646 OA
HETATM    4  O           1     -21.521  -3.221  -6.876  0.00  0.00    -0.646 OA
ENDBRANCH   1   2
BRANCH   1   5
HETATM    5  C           1     -20.174  -5.750  -7.466  0.00  0.00     0.217 C 
BRANCH   5   6
HETATM    6  O           1     -20.616  -6.928  -6.847  0.00  0.00    -0.287 OA
BRANCH   6   7
HETATM    7  P           1     -20.918  -6.826  -5.263  0.00  0.00     0.406 P 
HETATM    8  O           1     -22.346  -7.120  -5.014  0.00  0.00    -0.624 OA
HETATM    9  O           1     -20.078  -7.803  -4.537  0.00  0.00    -0.624 OA
BRANCH   7  10
HETATM   10  O           1     -20.577  -5.333  -4.747  0.00  0.00    -0.300 OA
HETATM   11  H           1     -20.834  -4.767  -5.454  0.00  0.00     0.223 HD
ENDBRANCH   7  10
ENDBRANCH   6   7
ENDBRANCH   5   6
ENDBRANCH   1   5
BRANCH   1  12
HETATM   12  N           1     -20.764  -4.433  -9.418  0.00  0.00    -0.343 N 
HETATM   13  C           1     -21.517  -4.271 -10.550  0.00  0.00     0.243 C 
HETATM   14  O           1     -22.637  -4.723 -10.601  0.00  0.00    -0.272 OA
HETATM   15  H           1     -19.827  -4.055  -9.376  0.00  0.00     0.163 HD
BRANCH  13  16
HETATM   16  C           1     -20.949  -3.529 -11.735  0.00  0.00     0.332 C 
BRANCH  16  17
HETATM   17  N           1     -21.883  -3.657 -12.902  0.00  0.00    -0.071 N 
HETATM   18  H           1     -22.474  -4.511 -12.783  0.00  0.00     0.274 HD
HETATM   19  H           1     -22.498  -2.813 -12.949  0.00  0.00     0.274 HD
HETATM   20  H           1     -21.330  -3.736 -13.783  0.00  0.00     0.274 HD
ENDBRANCH  16  17
ENDBRANCH  13  16
ENDBRANCH   1  12
TORSDOF 8
ENDMDL
