MODEL 1
REMARK VINA RESULT:      -6.9      0.000      0.000
REMARK  11 active torsions:
REMARK  status: ('A' for Active; 'I' for Inactive)
REMARK    1  A    between atoms: C_1  and  C_16 
REMARK    2  A    between atoms: C_5  and  C_16 
REMARK    3  A    between atoms: C_5  and  C_12 
REMARK    4  A    between atoms: C_5  and  N_21 
REMARK    5  A    between atoms: N_10  and  C_19 
REMARK    6  A    between atoms: N_11  and  C_23 
REMARK    7  A    between atoms: C_18  and  C_19 
REMARK    8  A    between atoms: C_18  and  C_25 
REMARK    9  A    between atoms: C_19  and  C_20 
REMARK       I    between atoms: C_20  and  N_21 
REMARK   10  A    between atoms: C_23  and  C_24 
REMARK   11  A    between atoms: C_24  and  C_25 
ROOT
HETATM    1  C           1     -34.285  -3.820 -12.174  0.00  0.00     0.274 C 
ENDROOT
BRANCH   1   2
HETATM    2  N           1     -33.492  -4.005 -13.434  0.00  0.00    -0.067 N 
HETATM    3  H           1     -33.085  -3.089 -13.728  0.00  0.00     0.275 HD
HETATM    4  H           1     -32.721  -4.689 -13.261  0.00  0.00     0.275 HD
HETATM    5  H           1     -34.117  -4.368 -14.189  0.00  0.00     0.275 HD
ENDBRANCH   1   2
BRANCH   1   6
HETATM    6  C           1     -33.471  -4.316 -10.986  0.00  0.00     0.042 C 
BRANCH   6   7
HETATM    7  C           1     -34.292  -5.324 -10.192  0.00  0.00     0.004 C 
BRANCH   7   8
HETATM    8  C           1     -34.387  -6.628 -10.972  0.00  0.00     0.027 C 
BRANCH   8   9
HETATM    9  C           1     -34.626  -7.782 -10.008  0.00  0.00     0.229 C 
BRANCH   9  10
HETATM   10  N           1     -33.613  -8.860 -10.255  0.00  0.00    -0.079 N 
HETATM   11  H           1     -34.017  -9.785  -9.987  0.00  0.00     0.274 HD
HETATM   12  H           1     -32.758  -8.673  -9.683  0.00  0.00     0.274 HD
HETATM   13  H           1     -33.356  -8.871 -11.269  0.00  0.00     0.274 HD
ENDBRANCH   9  10
ENDBRANCH   8   9
ENDBRANCH   7   8
ENDBRANCH   6   7
ENDBRANCH   1   6
BRANCH   1  14
HETATM   14  C           1     -34.602  -2.356 -11.991  0.00  0.00     0.249 C 
HETATM   15  O           1     -33.871  -1.658 -11.328  0.00  0.00    -0.271 OA
HETATM   16  N           1     -35.717  -1.818 -12.575  0.00  0.00    -0.345 N 
HETATM   17  H           1     -36.329  -2.403 -13.130  0.00  0.00     0.163 HD
BRANCH  16  18
HETATM   18  C           1     -36.022  -0.412 -12.398  0.00  0.00     0.185 C 
BRANCH  18  19
HETATM   19  C           1     -36.805   0.092 -13.604  0.00  0.00     0.040 C 
BRANCH  19  20
HETATM   20  C           1     -35.842   0.705 -14.613  0.00  0.00    -0.020 C 
HETATM   21  C           1     -34.547   1.088 -13.910  0.00  0.00     0.009 C 
HETATM   22  C           1     -35.544  -0.309 -15.710  0.00  0.00     0.009 C 
ENDBRANCH  19  20
ENDBRANCH  18  19
BRANCH  18  23
HETATM   23  C           1     -36.848  -0.230 -11.149  0.00  0.00     0.196 C 
HETATM   24  O           1     -37.883  -0.911 -10.979  0.00  0.00    -0.646 OA
HETATM   25  O           1     -36.498   0.601 -10.284  0.00  0.00    -0.646 OA
ENDBRANCH  18  23
ENDBRANCH  16  18
ENDBRANCH   1  14
TORSDOF 11
ENDMDL
MODEL 2
REMARK VINA RESULT:      -6.3     12.046     13.860
REMARK  11 active torsions:
REMARK  status: ('A' for Active; 'I' for Inactive)
REMARK    1  A    between atoms: C_1  and  C_16 
REMARK    2  A    between atoms: C_5  and  C_16 
REMARK    3  A    between atoms: C_5  and  C_12 
REMARK    4  A    between atoms: C_5  and  N_21 
REMARK    5  A    between atoms: N_10  and  C_19 
REMARK    6  A    between atoms: N_11  and  C_23 
REMARK    7  A    between atoms: C_18  and  C_19 
REMARK    8  A    between atoms: C_18  and  C_25 
REMARK    9  A    between atoms: C_19  and  C_20 
REMARK       I    between atoms: C_20  and  N_21 
REMARK   10  A    between atoms: C_23  and  C_24 
REMARK   11  A    between atoms: C_24  and  C_25 
ROOT
HETATM    1  C           1     -22.455  -4.940  -6.443  0.00  0.00     0.274 C 
ENDROOT
BRANCH   1   2
HETATM    2  N           1     -23.892  -5.252  -6.143  0.00  0.00    -0.067 N 
HETATM    3  H           1     -23.946  -6.119  -5.563  0.00  0.00     0.275 HD
HETATM    4  H           1     -24.318  -4.455  -5.620  0.00  0.00     0.275 HD
HETATM    5  H           1     -24.410  -5.398  -7.039  0.00  0.00     0.275 HD
ENDBRANCH   1   2
BRANCH   1   6
HETATM    6  C           1     -21.671  -6.239  -6.576  0.00  0.00     0.042 C 
BRANCH   6   7
HETATM    7  C           1     -21.596  -6.928  -5.219  0.00  0.00     0.004 C 
BRANCH   7   8
HETATM    8  C           1     -20.975  -5.981  -4.202  0.00  0.00     0.027 C 
BRANCH   8   9
HETATM    9  C           1     -21.279  -6.476  -2.794  0.00  0.00     0.229 C 
BRANCH   9  10
HETATM   10  N           1     -22.588  -5.905  -2.334  0.00  0.00    -0.079 N 
HETATM   11  H           1     -22.723  -6.120  -1.320  0.00  0.00     0.274 HD
HETATM   12  H           1     -23.367  -6.329  -2.887  0.00  0.00     0.274 HD
HETATM   13  H           1     -22.584  -4.869  -2.475  0.00  0.00     0.274 HD
ENDBRANCH   9  10
ENDBRANCH   8   9
ENDBRANCH   7   8
ENDBRANCH   6   7
ENDBRANCH   1   6
BRANCH   1  14
HETATM   14  C           1     -22.368  -4.165  -7.735  0.00  0.00     0.249 C 
HETATM   15  O           1     -21.546  -3.289  -7.860  0.00  0.00    -0.271 OA
HETATM   16  N           1     -23.222  -4.454  -8.765  0.00  0.00    -0.345 N 
HETATM   17  H           1     -23.912  -5.188  -8.660  0.00  0.00     0.163 HD
BRANCH  16  18
HETATM   18  C           1     -23.140  -3.709 -10.006  0.00  0.00     0.185 C 
BRANCH  18  19
HETATM   19  C           1     -22.568  -4.604 -11.098  0.00  0.00     0.040 C 
BRANCH  19  20
HETATM   20  C           1     -21.188  -4.097 -11.498  0.00  0.00    -0.020 C 
HETATM   21  C           1     -21.123  -2.589 -11.293  0.00  0.00     0.009 C 
HETATM   22  C           1     -20.130  -4.773 -10.636  0.00  0.00     0.009 C 
ENDBRANCH  19  20
ENDBRANCH  18  19
BRANCH  18  23
HETATM   23  C           1     -24.519  -3.246 -10.406  0.00  0.00     0.196 C 
HETATM   24  O           1     -24.837  -3.198 -11.614  0.00  0.00    -0.646 OA
HETATM   25  O           1     -25.344  -2.909  -9.530  0.00  0.00    -0.646 OA
ENDBRANCH  18  23
ENDBRANCH  16  18
ENDBRANCH   1  14
TORSDOF 11
ENDMDL
MODEL 3
REMARK VINA RESULT:      -6.1     14.193     16.999
REMARK  11 active torsions:
REMARK  status: ('A' for Active; 'I' for Inactive)
REMARK    1  A    between atoms: C_1  and  C_16 
REMARK    2  A    between atoms: C_5  and  C_16 
REMARK    3  A    between atoms: C_5  and  C_12 
REMARK    4  A    between atoms: C_5  and  N_21 
REMARK    5  A    between atoms: N_10  and  C_19 
REMARK    6  A    between atoms: N_11  and  C_23 
REMARK    7  A    between atoms: C_18  and  C_19 
REMARK    8  A    between atoms: C_18  and  C_25 
REMARK    9  A    between atoms: C_19  and  C_20 
REMARK       I    between atoms: C_20  and  N_21 
REMARK   10  A    between atoms: C_23  and  C_24 
REMARK   11  A    between atoms: C_24  and  C_25 
ROOT
HETATM    1  C           1     -21.460  -4.962  -7.796  0.00  0.00     0.274 C 
ENDROOT
BRANCH   1   2
HETATM    2  N           1     -22.623  -4.066  -7.486  0.00  0.00    -0.067 N 
HETATM    3  H           1     -23.404  -4.266  -8.150  0.00  0.00     0.275 HD
HETATM    4  H           1     -22.945  -4.242  -6.507  0.00  0.00     0.275 HD
HETATM    5  H           1     -22.330  -3.068  -7.582  0.00  0.00     0.275 HD
ENDBRANCH   1   2
BRANCH   1   6
HETATM    6  C           1     -20.385  -4.162  -8.520  0.00  0.00     0.042 C 
BRANCH   6   7
HETATM    7  C           1     -20.271  -4.649  -9.958  0.00  0.00     0.004 C 
BRANCH   7   8
HETATM    8  C           1     -20.758  -3.560 -10.904  0.00  0.00     0.027 C 
BRANCH   8   9
HETATM    9  C           1     -21.970  -4.061 -11.678  0.00  0.00     0.229 C 
BRANCH   9  10
HETATM   10  N           1     -21.927  -3.524 -13.078  0.00  0.00    -0.079 N 
HETATM   11  H           1     -22.246  -4.263 -13.743  0.00  0.00     0.274 HD
HETATM   12  H           1     -20.949  -3.240 -13.313  0.00  0.00     0.274 HD
HETATM   13  H           1     -22.557  -2.692 -13.151  0.00  0.00     0.274 HD
ENDBRANCH   9  10
ENDBRANCH   8   9
ENDBRANCH   7   8
ENDBRANCH   6   7
ENDBRANCH   1   6
BRANCH   1  14
HETATM   14  C           1     -20.896  -5.516  -6.510  0.00  0.00     0.249 C 
HETATM   15  O           1     -20.350  -4.779  -5.724  0.00  0.00    -0.271 OA
HETATM   16  N           1     -21.002  -6.853  -6.236  0.00  0.00    -0.345 N 
HETATM   17  H           1     -21.459  -7.470  -6.896  0.00  0.00     0.163 HD
BRANCH  16  18
HETATM   18  C           1     -20.459  -7.386  -5.002  0.00  0.00     0.185 C 
BRANCH  18  19
HETATM   19  C           1     -21.567  -7.485  -3.962  0.00  0.00     0.040 C 
BRANCH  19  20
HETATM   20  C           1     -21.077  -6.906  -2.641  0.00  0.00    -0.020 C 
HETATM   21  C           1     -22.217  -6.159  -1.961  0.00  0.00     0.009 C 
HETATM   22  C           1     -20.600  -8.036  -1.738  0.00  0.00     0.009 C 
ENDBRANCH  19  20
ENDBRANCH  18  19
BRANCH  18  23
HETATM   23  C           1     -19.882  -8.756  -5.257  0.00  0.00     0.196 C 
HETATM   24  O           1     -20.477  -9.772  -4.838  0.00  0.00    -0.646 OA
HETATM   25  O           1     -18.809  -8.876  -5.886  0.00  0.00    -0.646 OA
ENDBRANCH  18  23
ENDBRANCH  16  18
ENDBRANCH   1  14
TORSDOF 11
ENDMDL
MODEL 4
REMARK VINA RESULT:      -6.1      2.380      6.370
REMARK  11 active torsions:
REMARK  status: ('A' for Active; 'I' for Inactive)
REMARK    1  A    between atoms: C_1  and  C_16 
REMARK    2  A    between atoms: C_5  and  C_16 
REMARK    3  A    between atoms: C_5  and  C_12 
REMARK    4  A    between atoms: C_5  and  N_21 
REMARK    5  A    between atoms: N_10  and  C_19 
REMARK    6  A    between atoms: N_11  and  C_23 
REMARK    7  A    between atoms: C_18  and  C_19 
REMARK    8  A    between atoms: C_18  and  C_25 
REMARK    9  A    between atoms: C_19  and  C_20 
REMARK       I    between atoms: C_20  and  N_21 
REMARK   10  A    between atoms: C_23  and  C_24 
REMARK   11  A    between atoms: C_24  and  C_25 
ROOT
HETATM    1  C           1     -35.619   0.037 -12.408  0.00  0.00     0.274 C 
ENDROOT
BRANCH   1   2
HETATM    2  N           1     -35.939   0.572 -11.042  0.00  0.00    -0.067 N 
HETATM    3  H           1     -36.675   1.308 -11.120  0.00  0.00     0.275 HD
HETATM    4  H           1     -36.286  -0.206 -10.438  0.00  0.00     0.275 HD
HETATM    5  H           1     -35.077   0.984 -10.619  0.00  0.00     0.275 HD
ENDBRANCH   1   2
BRANCH   1   6
HETATM    6  C           1     -34.797   1.065 -13.174  0.00  0.00     0.042 C 
BRANCH   6   7
HETATM    7  C           1     -34.770   0.696 -14.651  0.00  0.00     0.004 C 
BRANCH   7   8
HETATM    8  C           1     -36.195   0.625 -15.184  0.00  0.00     0.027 C 
BRANCH   8   9
HETATM    9  C           1     -36.328  -0.562 -16.128  0.00  0.00     0.229 C 
BRANCH   9  10
HETATM   10  N           1     -34.993  -1.230 -16.283  0.00  0.00    -0.079 N 
HETATM   11  H           1     -35.041  -2.196 -15.886  0.00  0.00     0.274 HD
HETATM   12  H           1     -34.266  -0.679 -15.773  0.00  0.00     0.274 HD
HETATM   13  H           1     -34.744  -1.280 -17.297  0.00  0.00     0.274 HD
ENDBRANCH   9  10
ENDBRANCH   8   9
ENDBRANCH   7   8
ENDBRANCH   6   7
ENDBRANCH   1   6
BRANCH   1  14
HETATM   14  C           1     -34.828  -1.241 -12.273  0.00  0.00     0.249 C 
HETATM   15  O           1     -33.945  -1.321 -11.453  0.00  0.00    -0.271 OA
HETATM   16  N           1     -35.110  -2.309 -13.082  0.00  0.00    -0.345 N 
HETATM   17  H           1     -35.850  -2.242 -13.770  0.00  0.00     0.163 HD
BRANCH  16  18
HETATM   18  C           1     -34.350  -3.537 -12.954  0.00  0.00     0.185 C 
BRANCH  18  19
HETATM   19  C           1     -34.960  -4.399 -11.858  0.00  0.00     0.040 C 
BRANCH  19  20
HETATM   20  C           1     -33.857  -4.906 -10.937  0.00  0.00    -0.020 C 
HETATM   21  C           1     -34.093  -6.379 -10.626  0.00  0.00     0.009 C 
HETATM   22  C           1     -32.508  -4.743 -11.625  0.00  0.00     0.009 C 
ENDBRANCH  19  20
ENDBRANCH  18  19
BRANCH  18  23
HETATM   23  C           1     -34.382  -4.287 -14.262  0.00  0.00     0.196 C 
HETATM   24  O           1     -35.076  -5.321 -14.373  0.00  0.00    -0.646 OA
HETATM   25  O           1     -33.716  -3.874 -15.236  0.00  0.00    -0.646 OA
ENDBRANCH  18  23
ENDBRANCH  16  18
ENDBRANCH   1  14
TORSDOF 11
ENDMDL
MODEL 5
REMARK VINA RESULT:      -6.1      2.868      5.513
REMARK  11 active torsions:
REMARK  status: ('A' for Active; 'I' for Inactive)
REMARK    1  A    between atoms: C_1  and  C_16 
REMARK    2  A    between atoms: C_5  and  C_16 
REMARK    3  A    between atoms: C_5  and  C_12 
REMARK    4  A    between atoms: C_5  and  N_21 
REMARK    5  A    between atoms: N_10  and  C_19 
REMARK    6  A    between atoms: N_11  and  C_23 
REMARK    7  A    between atoms: C_18  and  C_19 
REMARK    8  A    between atoms: C_18  and  C_25 
REMARK    9  A    between atoms: C_19  and  C_20 
REMARK       I    between atoms: C_20  and  N_21 
REMARK   10  A    between atoms: C_23  and  C_24 
REMARK   11  A    between atoms: C_24  and  C_25 
ROOT
HETATM    1  C           1     -35.713   0.650 -14.085  0.00  0.00     0.274 C 
ENDROOT
BRANCH   1   2
HETATM    2  N           1     -34.237   0.723 -14.349  0.00  0.00    -0.067 N 
HETATM    3  H           1     -33.716   0.362 -13.519  0.00  0.00     0.275 HD
HETATM    4  H           1     -34.006   0.142 -15.186  0.00  0.00     0.275 HD
HETATM    5  H           1     -33.964   1.716 -14.528  0.00  0.00     0.275 HD
ENDBRANCH   1   2
BRANCH   1   6
HETATM    6  C           1     -36.439   0.281 -15.372  0.00  0.00     0.042 C 
BRANCH   6   7
HETATM    7  C           1     -35.426  -0.163 -16.419  0.00  0.00     0.004 C 
BRANCH   7   8
HETATM    8  C           1     -35.774  -1.565 -16.900  0.00  0.00     0.027 C 
BRANCH   8   9
HETATM    9  C           1     -34.747  -2.556 -16.369  0.00  0.00     0.229 C 
BRANCH   9  10
HETATM   10  N           1     -33.762  -2.884 -17.451  0.00  0.00    -0.079 N 
HETATM   11  H           1     -32.965  -2.209 -17.412  0.00  0.00     0.274 HD
HETATM   12  H           1     -34.232  -2.817 -18.383  0.00  0.00     0.274 HD
HETATM   13  H           1     -33.403  -3.856 -17.312  0.00  0.00     0.274 HD
ENDBRANCH   9  10
ENDBRANCH   8   9
ENDBRANCH   7   8
ENDBRANCH   6   7
ENDBRANCH   1   6
BRANCH   1  14
HETATM   14  C           1     -35.983  -0.400 -13.035  0.00  0.00     0.249 C 
HETATM   15  O           1     -36.943  -1.126 -13.141  0.00  0.00    -0.271 OA
HETATM   16  N           1     -35.142  -0.528 -11.963  0.00  0.00    -0.345 N 
HETATM   17  H           1     -34.338   0.081 -11.874  0.00  0.00     0.163 HD
BRANCH  16  18
HETATM   18  C           1     -35.403  -1.536 -10.953  0.00  0.00     0.185 C 
BRANCH  18  19
HETATM   19  C           1     -34.083  -2.025 -10.373  0.00  0.00     0.040 C 
BRANCH  19  20
HETATM   20  C           1     -33.947  -3.523 -10.615  0.00  0.00    -0.020 C 
HETATM   21  C           1     -35.273  -4.078 -11.119  0.00  0.00     0.009 C 
HETATM   22  C           1     -32.863  -3.773 -11.656  0.00  0.00     0.009 C 
ENDBRANCH  19  20
ENDBRANCH  18  19
BRANCH  18  23
HETATM   23  C           1     -36.246  -0.939  -9.854  0.00  0.00     0.196 C 
HETATM   24  O           1     -37.492  -1.007  -9.915  0.00  0.00    -0.646 OA
HETATM   25  O           1     -35.698  -0.378  -8.881  0.00  0.00    -0.646 OA
ENDBRANCH  18  23
ENDBRANCH  16  18
ENDBRANCH   1  14
TORSDOF 11
ENDMDL
MODEL 6
REMARK VINA RESULT:      -5.8      2.319      6.387
REMARK  11 active torsions:
REMARK  status: ('A' for Active; 'I' for Inactive)
REMARK    1  A    between atoms: C_1  and  C_16 
REMARK    2  A    between atoms: C_5  and  C_16 
REMARK    3  A    between atoms: C_5  and  C_12 
REMARK    4  A    between atoms: C_5  and  N_21 
REMARK    5  A    between atoms: N_10  and  C_19 
REMARK    6  A    between atoms: N_11  and  C_23 
REMARK    7  A    between atoms: C_18  and  C_19 
REMARK    8  A    between atoms: C_18  and  C_25 
REMARK    9  A    between atoms: C_19  and  C_20 
REMARK       I    between atoms: C_20  and  N_21 
REMARK   10  A    between atoms: C_23  and  C_24 
REMARK   11  A    between atoms: C_24  and  C_25 
ROOT
HETATM    1  C           1     -36.500  -0.805 -10.168  0.00  0.00     0.274 C 
ENDROOT
BRANCH   1   2
HETATM    2  N           1     -36.203  -0.146  -8.853  0.00  0.00    -0.067 N 
HETATM    3  H           1     -36.747  -0.618  -8.097  0.00  0.00     0.275 HD
HETATM    4  H           1     -35.181  -0.224  -8.649  0.00  0.00     0.275 HD
HETATM    5  H           1     -36.473   0.862  -8.900  0.00  0.00     0.275 HD
ENDBRANCH   1   2
BRANCH   1   6
HETATM    6  C           1     -36.612   0.258 -11.253  0.00  0.00     0.042 C 
BRANCH   6   7
HETATM    7  C           1     -37.629  -0.185 -12.296  0.00  0.00     0.004 C 
BRANCH   7   8
HETATM    8  C           1     -37.025  -0.047 -13.687  0.00  0.00     0.027 C 
BRANCH   8   9
HETATM    9  C           1     -35.618   0.526 -13.576  0.00  0.00     0.229 C 
BRANCH   9  10
HETATM   10  N           1     -34.784   0.030 -14.720  0.00  0.00    -0.079 N 
HETATM   11  H           1     -35.222  -0.829 -15.123  0.00  0.00     0.274 HD
HETATM   12  H           1     -33.823  -0.196 -14.379  0.00  0.00     0.274 HD
HETATM   13  H           1     -34.727   0.771 -15.456  0.00  0.00     0.274 HD
ENDBRANCH   9  10
ENDBRANCH   8   9
ENDBRANCH   7   8
ENDBRANCH   6   7
ENDBRANCH   1   6
BRANCH   1  14
HETATM   14  C           1     -35.384  -1.762 -10.514  0.00  0.00     0.249 C 
HETATM   15  O           1     -34.261  -1.546 -10.123  0.00  0.00    -0.271 OA
HETATM   16  N           1     -35.644  -2.873 -11.269  0.00  0.00    -0.345 N 
HETATM   17  H           1     -36.585  -3.053 -11.597  0.00  0.00     0.163 HD
BRANCH  16  18
HETATM   18  C           1     -34.573  -3.791 -11.602  0.00  0.00     0.185 C 
BRANCH  18  19
HETATM   19  C           1     -35.064  -5.223 -11.441  0.00  0.00     0.040 C 
BRANCH  19  20
HETATM   20  C           1     -34.234  -5.927 -10.375  0.00  0.00    -0.020 C 
HETATM   21  C           1     -35.010  -7.120  -9.834  0.00  0.00     0.009 C 
HETATM   22  C           1     -32.925  -6.409 -10.988  0.00  0.00     0.009 C 
ENDBRANCH  19  20
ENDBRANCH  18  19
BRANCH  18  23
HETATM   23  C           1     -34.141  -3.564 -13.030  0.00  0.00     0.196 C 
HETATM   24  O           1     -34.819  -2.826 -13.778  0.00  0.00    -0.646 OA
HETATM   25  O           1     -33.107  -4.113 -13.465  0.00  0.00    -0.646 OA
ENDBRANCH  18  23
ENDBRANCH  16  18
ENDBRANCH   1  14
TORSDOF 11
ENDMDL
MODEL 7
REMARK VINA RESULT:      -5.7     14.203     16.986
REMARK  11 active torsions:
REMARK  status: ('A' for Active; 'I' for Inactive)
REMARK    1  A    between atoms: C_1  and  C_16 
REMARK    2  A    between atoms: C_5  and  C_16 
REMARK    3  A    between atoms: C_5  and  C_12 
REMARK    4  A    between atoms: C_5  and  N_21 
REMARK    5  A    between atoms: N_10  and  C_19 
REMARK    6  A    between atoms: N_11  and  C_23 
REMARK    7  A    between atoms: C_18  and  C_19 
REMARK    8  A    between atoms: C_18  and  C_25 
REMARK    9  A    between atoms: C_19  and  C_20 
REMARK       I    between atoms: C_20  and  N_21 
REMARK   10  A    between atoms: C_23  and  C_24 
REMARK   11  A    between atoms: C_24  and  C_25 
ROOT
HETATM    1  C           1     -20.448  -5.124  -6.331  0.00  0.00     0.274 C 
ENDROOT
BRANCH   1   2
HETATM    2  N           1     -19.783  -6.040  -7.317  0.00  0.00    -0.067 N 
HETATM    3  H           1     -20.075  -7.025  -7.128  0.00  0.00     0.275 HD
HETATM    4  H           1     -20.067  -5.772  -8.286  0.00  0.00     0.275 HD
HETATM    5  H           1     -18.746  -5.959  -7.222  0.00  0.00     0.275 HD
ENDBRANCH   1   2
BRANCH   1   6
HETATM    6  C           1     -21.287  -4.097  -7.081  0.00  0.00     0.042 C 
BRANCH   6   7
HETATM    7  C           1     -20.935  -4.138  -8.563  0.00  0.00     0.004 C 
BRANCH   7   8
HETATM    8  C           1     -22.213  -4.095  -9.389  0.00  0.00     0.027 C 
BRANCH   8   9
HETATM    9  C           1     -23.421  -4.141  -8.463  0.00  0.00     0.229 C 
BRANCH   9  10
HETATM   10  N           1     -24.543  -3.348  -9.065  0.00  0.00    -0.079 N 
HETATM   11  H           1     -25.414  -3.925  -9.067  0.00  0.00     0.274 HD
HETATM   12  H           1     -24.297  -3.084 -10.046  0.00  0.00     0.274 HD
HETATM   13  H           1     -24.699  -2.482  -8.500  0.00  0.00     0.274 HD
ENDBRANCH   9  10
ENDBRANCH   8   9
ENDBRANCH   7   8
ENDBRANCH   6   7
ENDBRANCH   1   6
BRANCH   1  14
HETATM   14  C           1     -21.339  -5.931  -5.417  0.00  0.00     0.249 C 
HETATM   15  O           1     -22.539  -5.819  -5.491  0.00  0.00    -0.271 OA
HETATM   16  N           1     -20.786  -6.788  -4.505  0.00  0.00    -0.345 N 
HETATM   17  H           1     -19.779  -6.881  -4.442  0.00  0.00     0.163 HD
BRANCH  16  18
HETATM   18  C           1     -21.640  -7.561  -3.626  0.00  0.00     0.185 C 
BRANCH  18  19
HETATM   19  C           1     -21.087  -8.974  -3.495  0.00  0.00     0.040 C 
BRANCH  19  20
HETATM   20  C           1     -19.689  -9.029  -4.098  0.00  0.00    -0.020 C 
HETATM   21  C           1     -18.679  -9.365  -3.008  0.00  0.00     0.009 C 
HETATM   22  C           1     -19.645 -10.102  -5.178  0.00  0.00     0.009 C 
ENDBRANCH  19  20
ENDBRANCH  18  19
BRANCH  18  23
HETATM   23  C           1     -21.685  -6.910  -2.266  0.00  0.00     0.196 C 
HETATM   24  O           1     -21.127  -7.459  -1.291  0.00  0.00    -0.646 OA
HETATM   25  O           1     -22.278  -5.821  -2.114  0.00  0.00    -0.646 OA
ENDBRANCH  18  23
ENDBRANCH  16  18
ENDBRANCH   1  14
TORSDOF 11
ENDMDL
MODEL 8
REMARK VINA RESULT:      -5.6     14.833     17.992
REMARK  11 active torsions:
REMARK  status: ('A' for Active; 'I' for Inactive)
REMARK    1  A    between atoms: C_1  and  C_16 
REMARK    2  A    between atoms: C_5  and  C_16 
REMARK    3  A    between atoms: C_5  and  C_12 
REMARK    4  A    between atoms: C_5  and  N_21 
REMARK    5  A    between atoms: N_10  and  C_19 
REMARK    6  A    between atoms: N_11  and  C_23 
REMARK    7  A    between atoms: C_18  and  C_19 
REMARK    8  A    between atoms: C_18  and  C_25 
REMARK    9  A    between atoms: C_19  and  C_20 
REMARK       I    between atoms: C_20  and  N_21 
REMARK   10  A    between atoms: C_23  and  C_24 
REMARK   11  A    between atoms: C_24  and  C_25 
ROOT
HETATM    1  C           1     -21.890  -6.681  -4.982  0.00  0.00     0.274 C 
ENDROOT
BRANCH   1   2
HETATM    2  N           1     -23.273  -6.102  -5.023  0.00  0.00    -0.067 N 
HETATM    3  H           1     -23.311  -5.247  -4.425  0.00  0.00     0.275 HD
HETATM    4  H           1     -23.514  -5.849  -6.008  0.00  0.00     0.275 HD
HETATM    5  H           1     -23.957  -6.807  -4.667  0.00  0.00     0.275 HD
ENDBRANCH   1   2
BRANCH   1   6
HETATM    6  C           1     -20.877  -5.600  -5.335  0.00  0.00     0.042 C 
BRANCH   6   7
HETATM    7  C           1     -20.899  -5.354  -6.838  0.00  0.00     0.004 C 
BRANCH   7   8
HETATM    8  C           1     -21.258  -3.900  -7.111  0.00  0.00     0.027 C 
BRANCH   8   9
HETATM    9  C           1     -22.185  -3.823  -8.317  0.00  0.00     0.229 C 
BRANCH   9  10
HETATM   10  N           1     -23.594  -4.106  -7.884  0.00  0.00    -0.079 N 
HETATM   11  H           1     -24.253  -3.831  -8.647  0.00  0.00     0.274 HD
HETATM   12  H           1     -23.810  -3.559  -7.021  0.00  0.00     0.274 HD
HETATM   13  H           1     -23.697  -5.127  -7.684  0.00  0.00     0.274 HD
ENDBRANCH   9  10
ENDBRANCH   8   9
ENDBRANCH   7   8
ENDBRANCH   6   7
ENDBRANCH   1   6
BRANCH   1  14
HETATM   14  C           1     -21.605  -7.204  -3.595  0.00  0.00     0.249 C 
HETATM   15  O           1     -21.456  -6.432  -2.678  0.00  0.00    -0.271 OA
HETATM   16  N           1     -21.516  -8.553  -3.377  0.00  0.00    -0.345 N 
HETATM   17  H           1     -21.641  -9.199  -4.146  0.00  0.00     0.163 HD
BRANCH  16  18
HETATM   18  C           1     -21.242  -9.055  -2.045  0.00  0.00     0.185 C 
BRANCH  18  19
HETATM   19  C           1     -22.246 -10.146  -1.698  0.00  0.00     0.040 C 
BRANCH  19  20
HETATM   20  C           1     -22.708  -9.970  -0.257  0.00  0.00    -0.020 C 
HETATM   21  C           1     -22.879  -8.487   0.044  0.00  0.00     0.009 C 
HETATM   22  C           1     -24.039 -10.685  -0.060  0.00  0.00     0.009 C 
ENDBRANCH  19  20
ENDBRANCH  18  19
BRANCH  18  23
HETATM   23  C           1     -19.845  -9.623  -2.000  0.00  0.00     0.196 C 
HETATM   24  O           1     -18.892  -8.980  -2.490  0.00  0.00    -0.646 OA
HETATM   25  O           1     -19.641 -10.737  -1.472  0.00  0.00    -0.646 OA
ENDBRANCH  18  23
ENDBRANCH  16  18
ENDBRANCH   1  14
TORSDOF 11
ENDMDL
MODEL 9
REMARK VINA RESULT:      -5.6     14.727     17.682
REMARK  11 active torsions:
REMARK  status: ('A' for Active; 'I' for Inactive)
REMARK    1  A    between atoms: C_1  and  C_16 
REMARK    2  A    between atoms: C_5  and  C_16 
REMARK    3  A    between atoms: C_5  and  C_12 
REMARK    4  A    between atoms: C_5  and  N_21 
REMARK    5  A    between atoms: N_10  and  C_19 
REMARK    6  A    between atoms: N_11  and  C_23 
REMARK    7  A    between atoms: C_18  and  C_19 
REMARK    8  A    between atoms: C_18  and  C_25 
REMARK    9  A    between atoms: C_19  and  C_20 
REMARK       I    between atoms: C_20  and  N_21 
REMARK   10  A    between atoms: C_23  and  C_24 
REMARK   11  A    between atoms: C_24  and  C_25 
ROOT
HETATM    1  C           1     -21.372  -6.327  -5.797  0.00  0.00     0.274 C 
ENDROOT
BRANCH   1   2
HETATM    2  N           1     -22.735  -6.079  -5.221  0.00  0.00    -0.067 N 
HETATM    3  H           1     -22.667  -5.369  -4.458  0.00  0.00     0.275 HD
HETATM    4  H           1     -23.369  -5.724  -5.972  0.00  0.00     0.275 HD
HETATM    5  H           1     -23.118  -6.971  -4.835  0.00  0.00     0.275 HD
ENDBRANCH   1   2
BRANCH   1   6
HETATM    6  C           1     -20.554  -5.043  -5.732  0.00  0.00     0.042 C 
BRANCH   6   7
HETATM    7  C           1     -20.382  -4.478  -7.136  0.00  0.00     0.004 C 
BRANCH   7   8
HETATM    8  C           1     -21.474  -3.453  -7.408  0.00  0.00     0.027 C 
BRANCH   8   9
HETATM    9  C           1     -22.392  -3.967  -8.509  0.00  0.00     0.229 C 
BRANCH   9  10
HETATM   10  N           1     -23.792  -4.079  -7.982  0.00  0.00    -0.079 N 
HETATM   11  H           1     -24.451  -3.610  -8.643  0.00  0.00     0.274 HD
HETATM   12  H           1     -23.850  -3.618  -7.046  0.00  0.00     0.274 HD
HETATM   13  H           1     -24.049  -5.088  -7.888  0.00  0.00     0.274 HD
ENDBRANCH   9  10
ENDBRANCH   8   9
ENDBRANCH   7   8
ENDBRANCH   6   7
ENDBRANCH   1   6
BRANCH   1  14
HETATM   14  C           1     -20.679  -7.406  -5.001  0.00  0.00     0.249 C 
HETATM   15  O           1     -19.708  -7.962  -5.455  0.00  0.00    -0.271 OA
HETATM   16  N           1     -21.152  -7.755  -3.765  0.00  0.00    -0.345 N 
HETATM   17  H           1     -21.967  -7.289  -3.384  0.00  0.00     0.163 HD
BRANCH  16  18
HETATM   18  C           1     -20.488  -8.793  -3.000  0.00  0.00     0.185 C 
BRANCH  18  19
HETATM   19  C           1     -20.448  -8.393  -1.531  0.00  0.00     0.040 C 
BRANCH  19  20
HETATM   20  C           1     -21.869  -8.307  -0.989  0.00  0.00    -0.020 C 
HETATM   21  C           1     -21.929  -8.967   0.382  0.00  0.00     0.009 C 
HETATM   22  C           1     -22.278  -6.845  -0.867  0.00  0.00     0.009 C 
ENDBRANCH  19  20
ENDBRANCH  18  19
BRANCH  18  23
HETATM   23  C           1     -21.245 -10.089  -3.149  0.00  0.00     0.196 C 
HETATM   24  O           1     -20.841 -11.119  -2.568  0.00  0.00    -0.646 OA
HETATM   25  O           1     -22.277 -10.133  -3.852  0.00  0.00    -0.646 OA
ENDBRANCH  18  23
ENDBRANCH  16  18
ENDBRANCH   1  14
TORSDOF 11
ENDMDL
