MODEL 1
REMARK VINA RESULT:      -6.5      0.000      0.000
REMARK  8 active torsions:
REMARK  status: ('A' for Active; 'I' for Inactive)
REMARK    1  A    between atoms: C_1  and  C_6 
REMARK    2  A    between atoms: C_1  and  C_11 
REMARK    3  A    between atoms: C_1  and  N_14 
REMARK       I    between atoms: C_6  and  N_7 
REMARK    4  A    between atoms: N_7  and  C_24 
REMARK    5  A    between atoms: C_9  and  C_11 
REMARK    6  A    between atoms: C_22  and  O_23 
REMARK    7  A    between atoms: C_22  and  C_24 
REMARK    8  A    between atoms: C_24  and  C_25 
ROOT
HETATM    1  C           1     -21.101  -5.592  -7.067  0.00  0.00     0.280 C 
ENDROOT
BRANCH   1   2
HETATM    2  C           1     -21.716  -4.484  -7.886  0.00  0.00     0.249 C 
HETATM    3  N           1     -22.131  -4.729  -9.168  0.00  0.00    -0.343 N 
HETATM    4  H           1     -22.024  -5.653  -9.566  0.00  0.00     0.163 HD
HETATM    5  O           1     -21.844  -3.381  -7.411  0.00  0.00    -0.271 OA
BRANCH   3   6
HETATM    6  C           1     -22.722  -3.665  -9.955  0.00  0.00     0.214 C 
BRANCH   6   7
HETATM    7  C           1     -22.006  -3.566 -11.296  0.00  0.00     0.147 C 
HETATM    8  C           1     -20.557  -4.003 -11.131  0.00  0.00     0.042 C 
BRANCH   7   9
HETATM    9  O           1     -22.642  -4.398 -12.228  0.00  0.00    -0.393 OA
HETATM   10  H           1     -23.568  -4.329 -12.069  0.00  0.00     0.210 HD
ENDBRANCH   7   9
ENDBRANCH   6   7
BRANCH   6  11
HETATM   11  C           1     -24.183  -3.963 -10.187  0.00  0.00     0.199 C 
HETATM   12  O           1     -24.645  -5.086  -9.888  0.00  0.00    -0.646 OA
HETATM   13  O           1     -24.929  -3.090 -10.678  0.00  0.00    -0.646 OA
ENDBRANCH   6  11
ENDBRANCH   3   6
ENDBRANCH   1   2
BRANCH   1  14
HETATM   14  C           1     -20.762  -5.069  -5.678  0.00  0.00     0.101 C 
BRANCH  14  15
HETATM   15  C           1     -21.129  -6.097  -4.653  0.00  0.00     0.028 A 
HETATM   16  C           1     -21.280  -7.438  -4.911  0.00  0.00     0.114 A 
HETATM   17  N           1     -21.613  -7.995  -3.708  0.00  0.00    -0.360 N 
HETATM   18  C           1     -21.651  -6.988  -2.786  0.00  0.00     0.180 A 
HETATM   19  H           1     -21.805  -9.012  -3.526  0.00  0.00     0.166 HD
HETATM   20  N           1     -21.362  -5.828  -3.329  0.00  0.00    -0.355 N 
ATOM     21  HN          1     -21.321  -4.920  -2.865  1.00  0.00     0.166 HD
ENDBRANCH  14  15
ENDBRANCH   1  14
BRANCH   1  22
HETATM   22  N           1     -19.849  -6.072  -7.739  0.00  0.00    -0.066 N 
HETATM   23  H           1     -20.099  -6.593  -8.610  0.00  0.00     0.275 HD
HETATM   24  H           1     -19.327  -6.705  -7.091  0.00  0.00     0.275 HD
HETATM   25  H           1     -19.249  -5.253  -7.984  0.00  0.00     0.275 HD
ENDBRANCH   1  22
TORSDOF 8
ENDMDL
MODEL 2
REMARK VINA RESULT:      -6.0      2.765      6.853
REMARK  8 active torsions:
REMARK  status: ('A' for Active; 'I' for Inactive)
REMARK    1  A    between atoms: C_1  and  C_6 
REMARK    2  A    between atoms: C_1  and  C_11 
REMARK    3  A    between atoms: C_1  and  N_14 
REMARK       I    between atoms: C_6  and  N_7 
REMARK    4  A    between atoms: N_7  and  C_24 
REMARK    5  A    between atoms: C_9  and  C_11 
REMARK    6  A    between atoms: C_22  and  O_23 
REMARK    7  A    between atoms: C_22  and  C_24 
REMARK    8  A    between atoms: C_24  and  C_25 
ROOT
HETATM    1  C           1     -23.701  -4.381 -10.459  0.00  0.00     0.280 C 
ENDROOT
BRANCH   1   2
HETATM    2  C           1     -22.456  -4.757  -9.694  0.00  0.00     0.249 C 
HETATM    3  N           1     -22.510  -4.920  -8.335  0.00  0.00    -0.343 N 
HETATM    4  H           1     -23.385  -4.788  -7.845  0.00  0.00     0.163 HD
HETATM    5  O           1     -21.411  -4.915 -10.279  0.00  0.00    -0.271 OA
BRANCH   3   6
HETATM    6  C           1     -21.314  -5.282  -7.600  0.00  0.00     0.214 C 
BRANCH   6   7
HETATM    7  C           1     -20.643  -4.021  -7.069  0.00  0.00     0.147 C 
HETATM    8  C           1     -19.445  -3.677  -7.944  0.00  0.00     0.042 C 
BRANCH   7   9
HETATM    9  O           1     -21.558  -2.960  -7.093  0.00  0.00    -0.393 OA
HETATM   10  H           1     -21.254  -2.350  -7.744  0.00  0.00     0.210 HD
ENDBRANCH   7   9
ENDBRANCH   6   7
BRANCH   6  11
HETATM   11  C           1     -21.686  -6.177  -6.444  0.00  0.00     0.199 C 
HETATM   12  O           1     -21.233  -7.341  -6.385  0.00  0.00    -0.646 OA
HETATM   13  O           1     -22.445  -5.755  -5.546  0.00  0.00    -0.646 OA
ENDBRANCH   6  11
ENDBRANCH   3   6
ENDBRANCH   1   2
BRANCH   1  14
HETATM   14  C           1     -23.631  -2.911 -10.852  0.00  0.00     0.101 C 
BRANCH  14  15
HETATM   15  C           1     -23.373  -2.798 -12.322  0.00  0.00     0.028 A 
HETATM   16  C           1     -22.326  -3.398 -12.979  0.00  0.00     0.114 A 
HETATM   17  N           1     -22.473  -3.033 -14.289  0.00  0.00    -0.360 N 
HETATM   18  C           1     -23.582  -2.239 -14.371  0.00  0.00     0.180 A 
HETATM   19  H           1     -21.848  -3.311 -15.085  0.00  0.00     0.166 HD
HETATM   20  N           1     -24.147  -2.079 -13.196  0.00  0.00    -0.355 N 
ATOM     21  HN          1     -24.983  -1.536 -12.980  1.00  0.00     0.166 HD
ENDBRANCH  14  15
ENDBRANCH   1  14
BRANCH   1  22
HETATM   22  N           1     -24.905  -4.611  -9.596  0.00  0.00    -0.066 N 
HETATM   23  H           1     -25.226  -5.600  -9.701  0.00  0.00     0.275 HD
HETATM   24  H           1     -25.671  -3.962  -9.886  0.00  0.00     0.275 HD
HETATM   25  H           1     -24.657  -4.431  -8.597  0.00  0.00     0.275 HD
ENDBRANCH   1  22
TORSDOF 8
ENDMDL
MODEL 3
REMARK VINA RESULT:      -6.0      2.633      6.907
REMARK  8 active torsions:
REMARK  status: ('A' for Active; 'I' for Inactive)
REMARK    1  A    between atoms: C_1  and  C_6 
REMARK    2  A    between atoms: C_1  and  C_11 
REMARK    3  A    between atoms: C_1  and  N_14 
REMARK       I    between atoms: C_6  and  N_7 
REMARK    4  A    between atoms: N_7  and  C_24 
REMARK    5  A    between atoms: C_9  and  C_11 
REMARK    6  A    between atoms: C_22  and  O_23 
REMARK    7  A    between atoms: C_22  and  C_24 
REMARK    8  A    between atoms: C_24  and  C_25 
ROOT
HETATM    1  C           1     -23.004  -4.148  -9.076  0.00  0.00     0.280 C 
ENDROOT
BRANCH   1   2
HETATM    2  C           1     -22.179  -4.272  -7.818  0.00  0.00     0.249 C 
HETATM    3  N           1     -22.094  -5.476  -7.172  0.00  0.00    -0.343 N 
HETATM    4  H           1     -22.584  -6.282  -7.537  0.00  0.00     0.163 HD
HETATM    5  O           1     -21.593  -3.310  -7.382  0.00  0.00    -0.271 OA
BRANCH   3   6
HETATM    6  C           1     -21.301  -5.595  -5.963  0.00  0.00     0.214 C 
BRANCH   6   7
HETATM    7  C           1     -22.044  -6.458  -4.951  0.00  0.00     0.147 C 
HETATM    8  C           1     -21.503  -6.182  -3.555  0.00  0.00     0.042 C 
BRANCH   7   9
HETATM    9  O           1     -23.412  -6.151  -4.991  0.00  0.00    -0.393 OA
HETATM   10  H           1     -23.480  -5.223  -5.137  0.00  0.00     0.210 HD
ENDBRANCH   7   9
ENDBRANCH   6   7
BRANCH   6  11
HETATM   11  C           1     -19.976  -6.237  -6.293  0.00  0.00     0.199 C 
HETATM   12  O           1     -19.055  -5.550  -6.786  0.00  0.00    -0.646 OA
HETATM   13  O           1     -19.799  -7.454  -6.073  0.00  0.00    -0.646 OA
ENDBRANCH   6  11
ENDBRANCH   3   6
ENDBRANCH   1   2
BRANCH   1  14
HETATM   14  C           1     -22.180  -3.462 -10.158  0.00  0.00     0.101 C 
BRANCH  14  15
HETATM   15  C           1     -22.943  -3.469 -11.447  0.00  0.00     0.028 A 
HETATM   16  C           1     -23.449  -4.596 -12.049  0.00  0.00     0.114 A 
HETATM   17  N           1     -24.061  -4.145 -13.186  0.00  0.00    -0.360 N 
HETATM   18  C           1     -23.903  -2.789 -13.227  0.00  0.00     0.180 A 
HETATM   19  H           1     -24.559  -4.735 -13.898  0.00  0.00     0.166 HD
HETATM   20  N           1     -23.231  -2.351 -12.187  0.00  0.00    -0.355 N 
ATOM     21  HN          1     -22.976  -1.386 -11.976  1.00  0.00     0.166 HD
ENDBRANCH  14  15
ENDBRANCH   1  14
BRANCH   1  22
HETATM   22  N           1     -24.230  -3.333  -8.790  0.00  0.00    -0.066 N 
HETATM   23  H           1     -24.439  -2.718  -9.608  0.00  0.00     0.275 HD
HETATM   24  H           1     -24.065  -2.743  -7.942  0.00  0.00     0.275 HD
HETATM   25  H           1     -25.040  -3.970  -8.617  0.00  0.00     0.275 HD
ENDBRANCH   1  22
TORSDOF 8
ENDMDL
MODEL 4
REMARK VINA RESULT:      -5.5      5.421      7.997
REMARK  8 active torsions:
REMARK  status: ('A' for Active; 'I' for Inactive)
REMARK    1  A    between atoms: C_1  and  C_6 
REMARK    2  A    between atoms: C_1  and  C_11 
REMARK    3  A    between atoms: C_1  and  N_14 
REMARK       I    between atoms: C_6  and  N_7 
REMARK    4  A    between atoms: N_7  and  C_24 
REMARK    5  A    between atoms: C_9  and  C_11 
REMARK    6  A    between atoms: C_22  and  O_23 
REMARK    7  A    between atoms: C_22  and  C_24 
REMARK    8  A    between atoms: C_24  and  C_25 
ROOT
HETATM    1  C           1     -20.185  -8.738  -4.947  0.00  0.00     0.280 C 
ENDROOT
BRANCH   1   2
HETATM    2  C           1     -20.170  -8.750  -3.438  0.00  0.00     0.249 C 
HETATM    3  N           1     -21.304  -8.432  -2.739  0.00  0.00    -0.343 N 
HETATM    4  H           1     -22.151  -8.188  -3.235  0.00  0.00     0.163 HD
HETATM    5  O           1     -19.158  -9.041  -2.845  0.00  0.00    -0.271 OA
BRANCH   3   6
HETATM    6  C           1     -21.290  -8.443  -1.289  0.00  0.00     0.214 C 
BRANCH   6   7
HETATM    7  C           1     -21.981  -7.192  -0.764  0.00  0.00     0.147 C 
HETATM    8  C           1     -22.251  -6.238  -1.920  0.00  0.00     0.042 C 
BRANCH   7   9
HETATM    9  O           1     -23.195  -7.547  -0.159  0.00  0.00    -0.393 OA
HETATM   10  H           1     -22.988  -8.152   0.533  0.00  0.00     0.210 HD
ENDBRANCH   7   9
ENDBRANCH   6   7
BRANCH   6  11
HETATM   11  C           1     -22.018  -9.666  -0.789  0.00  0.00     0.199 C 
HETATM   12  O           1     -22.896 -10.203  -1.499  0.00  0.00    -0.646 OA
HETATM   13  O           1     -21.744 -10.142   0.333  0.00  0.00    -0.646 OA
ENDBRANCH   6  11
ENDBRANCH   3   6
ENDBRANCH   1   2
BRANCH   1  14
HETATM   14  C           1     -21.302  -7.826  -5.436  0.00  0.00     0.101 C 
BRANCH  14  15
HETATM   15  C           1     -20.716  -6.550  -5.955  0.00  0.00     0.028 A 
HETATM   16  C           1     -20.771  -5.343  -5.300  0.00  0.00     0.114 A 
HETATM   17  N           1     -20.120  -4.465  -6.121  0.00  0.00    -0.360 N 
HETATM   18  C           1     -19.705  -5.162  -7.220  0.00  0.00     0.180 A 
HETATM   19  H           1     -19.968  -3.442  -5.940  0.00  0.00     0.166 HD
HETATM   20  N           1     -20.051  -6.426  -7.147  0.00  0.00    -0.355 N 
ATOM     21  HN          1     -19.866  -7.160  -7.832  1.00  0.00     0.166 HD
ENDBRANCH  14  15
ENDBRANCH   1  14
BRANCH   1  22
HETATM   22  N           1     -20.417 -10.130  -5.454  0.00  0.00    -0.066 N 
HETATM   23  H           1     -20.494 -10.113  -6.496  0.00  0.00     0.275 HD
HETATM   24  H           1     -21.303 -10.506  -5.044  0.00  0.00     0.275 HD
HETATM   25  H           1     -19.618 -10.741  -5.173  0.00  0.00     0.275 HD
ENDBRANCH   1  22
TORSDOF 8
ENDMDL
MODEL 5
REMARK VINA RESULT:      -5.5      3.214      7.036
REMARK  8 active torsions:
REMARK  status: ('A' for Active; 'I' for Inactive)
REMARK    1  A    between atoms: C_1  and  C_6 
REMARK    2  A    between atoms: C_1  and  C_11 
REMARK    3  A    between atoms: C_1  and  N_14 
REMARK       I    between atoms: C_6  and  N_7 
REMARK    4  A    between atoms: N_7  and  C_24 
REMARK    5  A    between atoms: C_9  and  C_11 
REMARK    6  A    between atoms: C_22  and  O_23 
REMARK    7  A    between atoms: C_22  and  C_24 
REMARK    8  A    between atoms: C_24  and  C_25 
ROOT
HETATM    1  C           1     -22.263  -5.104  -6.921  0.00  0.00     0.280 C 
ENDROOT
BRANCH   1   2
HETATM    2  C           1     -21.431  -5.604  -5.766  0.00  0.00     0.249 C 
HETATM    3  N           1     -21.966  -6.492  -4.870  0.00  0.00    -0.343 N 
HETATM    4  H           1     -22.919  -6.811  -4.984  0.00  0.00     0.163 HD
HETATM    5  O           1     -20.293  -5.223  -5.630  0.00  0.00    -0.271 OA
BRANCH   3   6
HETATM    6  C           1     -21.168  -6.972  -3.760  0.00  0.00     0.214 C 
BRANCH   6   7
HETATM    7  C           1     -22.015  -6.991  -2.494  0.00  0.00     0.147 C 
HETATM    8  C           1     -21.218  -7.618  -1.359  0.00  0.00     0.042 C 
BRANCH   7   9
HETATM    9  O           1     -22.368  -5.679  -2.149  0.00  0.00    -0.393 OA
HETATM   10  H           1     -21.655  -5.125  -2.417  0.00  0.00     0.210 HD
ENDBRANCH   7   9
ENDBRANCH   6   7
BRANCH   6  11
HETATM   11  C           1     -20.680  -8.369  -4.058  0.00  0.00     0.199 C 
HETATM   12  O           1     -19.454  -8.615  -4.056  0.00  0.00    -0.646 OA
HETATM   13  O           1     -21.500  -9.277  -4.308  0.00  0.00    -0.646 OA
ENDBRANCH   6  11
ENDBRANCH   3   6
ENDBRANCH   1   2
BRANCH   1  14
HETATM   14  C           1     -21.640  -3.833  -7.483  0.00  0.00     0.101 C 
BRANCH  14  15
HETATM   15  C           1     -21.341  -4.023  -8.937  0.00  0.00     0.028 A 
HETATM   16  C           1     -20.144  -4.480  -9.436  0.00  0.00     0.114 A 
HETATM   17  N           1     -20.309  -4.498 -10.793  0.00  0.00    -0.360 N 
HETATM   18  C           1     -21.574  -4.058 -11.058  0.00  0.00     0.180 A 
HETATM   19  H           1     -19.592  -4.794 -11.501  0.00  0.00     0.166 HD
HETATM   20  N           1     -22.222  -3.763  -9.955  0.00  0.00    -0.355 N 
ATOM     21  HN          1     -23.178  -3.415  -9.872  1.00  0.00     0.166 HD
ENDBRANCH  14  15
ENDBRANCH   1  14
BRANCH   1  22
HETATM   22  N           1     -23.653  -4.810  -6.444  0.00  0.00    -0.066 N 
HETATM   23  H           1     -23.826  -5.309  -5.542  0.00  0.00     0.275 HD
HETATM   24  H           1     -24.343  -5.135  -7.160  0.00  0.00     0.275 HD
HETATM   25  H           1     -23.762  -3.781  -6.299  0.00  0.00     0.275 HD
ENDBRANCH   1  22
TORSDOF 8
ENDMDL
MODEL 6
REMARK VINA RESULT:      -5.4     19.084     20.567
REMARK  8 active torsions:
REMARK  status: ('A' for Active; 'I' for Inactive)
REMARK    1  A    between atoms: C_1  and  C_6 
REMARK    2  A    between atoms: C_1  and  C_11 
REMARK    3  A    between atoms: C_1  and  N_14 
REMARK       I    between atoms: C_6  and  N_7 
REMARK    4  A    between atoms: N_7  and  C_24 
REMARK    5  A    between atoms: C_9  and  C_11 
REMARK    6  A    between atoms: C_22  and  O_23 
REMARK    7  A    between atoms: C_22  and  C_24 
REMARK    8  A    between atoms: C_24  and  C_25 
ROOT
HETATM    1  C           1     -10.720   4.363 -20.825  0.00  0.00     0.280 C 
ENDROOT
BRANCH   1   2
HETATM    2  C           1     -10.973   5.587 -19.979  0.00  0.00     0.249 C 
HETATM    3  N           1     -10.744   6.835 -20.494  0.00  0.00    -0.343 N 
HETATM    4  H           1     -10.405   6.936 -21.441  0.00  0.00     0.163 HD
HETATM    5  O           1     -11.378   5.466 -18.847  0.00  0.00    -0.271 OA
BRANCH   3   6
HETATM    6  C           1     -10.987   8.011 -19.681  0.00  0.00     0.214 C 
BRANCH   6   7
HETATM    7  C           1     -10.090   9.148 -20.151  0.00  0.00     0.147 C 
HETATM    8  C           1      -9.123   8.629 -21.206  0.00  0.00     0.042 C 
BRANCH   7   9
HETATM    9  O           1     -10.879  10.168 -20.701  0.00  0.00    -0.393 OA
HETATM   10  H           1     -10.317  10.915 -20.819  0.00  0.00     0.210 HD
ENDBRANCH   7   9
ENDBRANCH   6   7
BRANCH   6  11
HETATM   11  C           1     -12.432   8.423 -19.813  0.00  0.00     0.199 C 
HETATM   12  O           1     -13.046   8.214 -20.882  0.00  0.00    -0.646 OA
HETATM   13  O           1     -13.015   8.974 -18.855  0.00  0.00    -0.646 OA
ENDBRANCH   6  11
ENDBRANCH   3   6
ENDBRANCH   1   2
BRANCH   1  14
HETATM   14  C           1     -11.183   4.628 -22.252  0.00  0.00     0.101 C 
BRANCH  14  15
HETATM   15  C           1     -12.666   4.441 -22.339  0.00  0.00     0.028 A 
HETATM   16  C           1     -13.284   3.348 -22.899  0.00  0.00     0.114 A 
HETATM   17  N           1     -14.623   3.591 -22.765  0.00  0.00    -0.360 N 
HETATM   18  C           1     -14.760   4.799 -22.143  0.00  0.00     0.180 A 
HETATM   19  H           1     -15.403   2.964 -23.084  0.00  0.00     0.166 HD
HETATM   20  N           1     -13.593   5.337 -21.873  0.00  0.00    -0.355 N 
ATOM     21  HN          1     -13.414   6.231 -21.415  1.00  0.00     0.166 HD
ENDBRANCH  14  15
ENDBRANCH   1  14
BRANCH   1  22
HETATM   22  N           1     -11.480   3.201 -20.261  0.00  0.00    -0.066 N 
HETATM   23  H           1     -12.505   3.399 -20.306  0.00  0.00     0.275 HD
HETATM   24  H           1     -11.198   3.050 -19.266  0.00  0.00     0.275 HD
HETATM   25  H           1     -11.267   2.342 -20.817  0.00  0.00     0.275 HD
ENDBRANCH   1  22
TORSDOF 8
ENDMDL
MODEL 7
REMARK VINA RESULT:      -5.3      2.543      4.281
REMARK  8 active torsions:
REMARK  status: ('A' for Active; 'I' for Inactive)
REMARK    1  A    between atoms: C_1  and  C_6 
REMARK    2  A    between atoms: C_1  and  C_11 
REMARK    3  A    between atoms: C_1  and  N_14 
REMARK       I    between atoms: C_6  and  N_7 
REMARK    4  A    between atoms: N_7  and  C_24 
REMARK    5  A    between atoms: C_9  and  C_11 
REMARK    6  A    between atoms: C_22  and  O_23 
REMARK    7  A    between atoms: C_22  and  C_24 
REMARK    8  A    between atoms: C_24  and  C_25 
ROOT
HETATM    1  C           1     -21.989  -7.576  -4.072  0.00  0.00     0.280 C 
ENDROOT
BRANCH   1   2
HETATM    2  C           1     -21.637  -7.045  -5.440  0.00  0.00     0.249 C 
HETATM    3  N           1     -21.888  -5.736  -5.753  0.00  0.00    -0.343 N 
HETATM    4  H           1     -22.311  -5.125  -5.067  0.00  0.00     0.163 HD
HETATM    5  O           1     -21.132  -7.775  -6.260  0.00  0.00    -0.271 OA
BRANCH   3   6
HETATM    6  C           1     -21.550  -5.226  -7.067  0.00  0.00     0.214 C 
BRANCH   6   7
HETATM    7  C           1     -22.593  -4.205  -7.501  0.00  0.00     0.147 C 
HETATM    8  C           1     -22.847  -4.341  -8.996  0.00  0.00     0.042 C 
BRANCH   7   9
HETATM    9  O           1     -23.787  -4.431  -6.801  0.00  0.00    -0.393 OA
HETATM   10  H           1     -24.248  -3.610  -6.773  0.00  0.00     0.210 HD
ENDBRANCH   7   9
ENDBRANCH   6   7
BRANCH   6  11
HETATM   11  C           1     -20.193  -4.568  -7.017  0.00  0.00     0.199 C 
HETATM   12  O           1     -19.581  -4.483  -5.930  0.00  0.00    -0.646 OA
HETATM   13  O           1     -19.683  -4.108  -8.060  0.00  0.00    -0.646 OA
ENDBRANCH   6  11
ENDBRANCH   3   6
ENDBRANCH   1   2
BRANCH   1  14
HETATM   14  C           1     -21.068  -6.951  -3.032  0.00  0.00     0.101 C 
BRANCH  14  15
HETATM   15  C           1     -21.438  -7.452  -1.671  0.00  0.00     0.028 A 
HETATM   16  C           1     -20.778  -8.455  -1.002  0.00  0.00     0.114 A 
HETATM   17  N           1     -21.443  -8.586   0.186  0.00  0.00    -0.360 N 
HETATM   18  C           1     -22.460  -7.675   0.189  0.00  0.00     0.180 A 
HETATM   19  H           1     -21.213  -9.263   0.955  0.00  0.00     0.166 HD
HETATM   20  N           1     -22.483  -6.975  -0.922  0.00  0.00    -0.355 N 
ATOM     21  HN          1     -23.137  -6.234  -1.175  1.00  0.00     0.166 HD
ENDBRANCH  14  15
ENDBRANCH   1  14
BRANCH   1  22
HETATM   22  N           1     -21.822  -9.066  -4.057  0.00  0.00    -0.066 N 
HETATM   23  H           1     -22.589  -9.497  -3.493  0.00  0.00     0.275 HD
HETATM   24  H           1     -20.898  -9.308  -3.633  0.00  0.00     0.275 HD
HETATM   25  H           1     -21.863  -9.431  -5.035  0.00  0.00     0.275 HD
ENDBRANCH   1  22
TORSDOF 8
ENDMDL
MODEL 8
REMARK VINA RESULT:      -5.3      4.084      7.738
REMARK  8 active torsions:
REMARK  status: ('A' for Active; 'I' for Inactive)
REMARK    1  A    between atoms: C_1  and  C_6 
REMARK    2  A    between atoms: C_1  and  C_11 
REMARK    3  A    between atoms: C_1  and  N_14 
REMARK       I    between atoms: C_6  and  N_7 
REMARK    4  A    between atoms: N_7  and  C_24 
REMARK    5  A    between atoms: C_9  and  C_11 
REMARK    6  A    between atoms: C_22  and  O_23 
REMARK    7  A    between atoms: C_22  and  C_24 
REMARK    8  A    between atoms: C_24  and  C_25 
ROOT
HETATM    1  C           1     -21.685  -6.516  -5.557  0.00  0.00     0.280 C 
ENDROOT
BRANCH   1   2
HETATM    2  C           1     -20.906  -7.342  -4.563  0.00  0.00     0.249 C 
HETATM    3  N           1     -21.445  -7.625  -3.337  0.00  0.00    -0.343 N 
HETATM    4  H           1     -22.365  -7.281  -3.097  0.00  0.00     0.163 HD
HETATM    5  O           1     -19.807  -7.754  -4.849  0.00  0.00    -0.271 OA
BRANCH   3   6
HETATM    6  C           1     -20.696  -8.418  -2.381  0.00  0.00     0.214 C 
BRANCH   6   7
HETATM    7  C           1     -21.069  -7.995  -0.966  0.00  0.00     0.147 C 
HETATM    8  C           1     -22.224  -7.004  -1.020  0.00  0.00     0.042 C 
BRANCH   7   9
HETATM    9  O           1     -21.455  -9.122  -0.227  0.00  0.00    -0.393 OA
HETATM   10  H           1     -20.681  -9.646  -0.103  0.00  0.00     0.210 HD
ENDBRANCH   7   9
ENDBRANCH   6   7
BRANCH   6  11
HETATM   11  C           1     -21.026  -9.878  -2.571  0.00  0.00     0.199 C 
HETATM   12  O           1     -20.160 -10.749  -2.338  0.00  0.00    -0.646 OA
HETATM   13  O           1     -22.164 -10.216  -2.962  0.00  0.00    -0.646 OA
ENDBRANCH   6  11
ENDBRANCH   3   6
ENDBRANCH   1   2
BRANCH   1  14
HETATM   14  C           1     -20.937  -5.219  -5.838  0.00  0.00     0.101 C 
BRANCH  14  15
HETATM   15  C           1     -21.303  -4.716  -7.200  0.00  0.00     0.028 A 
HETATM   16  C           1     -20.612  -5.008  -8.352  0.00  0.00     0.114 A 
HETATM   17  N           1     -21.284  -4.349  -9.344  0.00  0.00    -0.360 N 
HETATM   18  C           1     -22.335  -3.697  -8.765  0.00  0.00     0.180 A 
HETATM   19  H           1     -21.037  -4.346 -10.365  0.00  0.00     0.166 HD
HETATM   20  N           1     -22.371  -3.900  -7.468  0.00  0.00    -0.355 N 
ATOM     21  HN          1     -23.050  -3.529  -6.801  1.00  0.00     0.166 HD
ENDBRANCH  14  15
ENDBRANCH   1  14
BRANCH   1  22
HETATM   22  N           1     -23.037  -6.201  -4.992  0.00  0.00    -0.066 N 
HETATM   23  H           1     -23.600  -7.079  -4.921  0.00  0.00     0.275 HD
HETATM   24  H           1     -23.527  -5.522  -5.618  0.00  0.00     0.275 HD
HETATM   25  H           1     -22.928  -5.780  -4.041  0.00  0.00     0.275 HD
ENDBRANCH   1  22
TORSDOF 8
ENDMDL
MODEL 9
REMARK VINA RESULT:      -5.3     19.280     21.017
REMARK  8 active torsions:
REMARK  status: ('A' for Active; 'I' for Inactive)
REMARK    1  A    between atoms: C_1  and  C_6 
REMARK    2  A    between atoms: C_1  and  C_11 
REMARK    3  A    between atoms: C_1  and  N_14 
REMARK       I    between atoms: C_6  and  N_7 
REMARK    4  A    between atoms: N_7  and  C_24 
REMARK    5  A    between atoms: C_9  and  C_11 
REMARK    6  A    between atoms: C_22  and  O_23 
REMARK    7  A    between atoms: C_22  and  C_24 
REMARK    8  A    between atoms: C_24  and  C_25 
ROOT
HETATM    1  C           1     -10.461   5.053 -20.046  0.00  0.00     0.280 C 
ENDROOT
BRANCH   1   2
HETATM    2  C           1     -10.694   6.199 -21.000  0.00  0.00     0.249 C 
HETATM    3  N           1     -10.844   7.472 -20.518  0.00  0.00    -0.343 N 
HETATM    4  H           1     -10.798   7.644 -19.523  0.00  0.00     0.163 HD
HETATM    5  O           1     -10.749   5.994 -22.190  0.00  0.00    -0.271 OA
BRANCH   3   6
HETATM    6  C           1     -11.068   8.573 -21.435  0.00  0.00     0.214 C 
BRANCH   6   7
HETATM    7  C           1     -12.189   9.457 -20.902  0.00  0.00     0.147 C 
HETATM    8  C           1     -12.364   9.210 -19.410  0.00  0.00     0.042 C 
BRANCH   7   9
HETATM    9  O           1     -11.864  10.804 -21.118  0.00  0.00    -0.393 OA
HETATM   10  H           1     -12.137  11.277 -20.351  0.00  0.00     0.210 HD
ENDBRANCH   7   9
ENDBRANCH   6   7
BRANCH   6  11
HETATM   11  C           1      -9.804   9.386 -21.562  0.00  0.00     0.199 C 
HETATM   12  O           1      -9.442   9.807 -22.683  0.00  0.00    -0.646 OA
HETATM   13  O           1      -9.119   9.640 -20.548  0.00  0.00    -0.646 OA
ENDBRANCH   6  11
ENDBRANCH   3   6
ENDBRANCH   1   2
BRANCH   1  14
HETATM   14  C           1     -11.793   4.597 -19.464  0.00  0.00     0.101 C 
BRANCH  14  15
HETATM   15  C           1     -12.678   4.105 -20.567  0.00  0.00     0.028 A 
HETATM   16  C           1     -12.597   2.856 -21.135  0.00  0.00     0.114 A 
HETATM   17  N           1     -13.578   2.835 -22.087  0.00  0.00    -0.360 N 
HETATM   18  C           1     -14.202   4.050 -22.059  0.00  0.00     0.180 A 
HETATM   19  H           1     -13.809   2.032 -22.723  0.00  0.00     0.166 HD
HETATM   20  N           1     -13.678   4.839 -21.149  0.00  0.00    -0.355 N 
ATOM     21  HN          1     -13.956   5.795 -20.924  1.00  0.00     0.166 HD
ENDBRANCH  14  15
ENDBRANCH   1  14
BRANCH   1  22
HETATM   22  N           1      -9.559   5.504 -18.937  0.00  0.00    -0.066 N 
HETATM   23  H           1     -10.100   5.549 -18.044  0.00  0.00     0.275 HD
HETATM   24  H           1      -9.177   6.451 -19.162  0.00  0.00     0.275 HD
HETATM   25  H           1      -8.770   4.827 -18.832  0.00  0.00     0.275 HD
ENDBRANCH   1  22
TORSDOF 8
ENDMDL
