MODEL 1
REMARK VINA RESULT:      -7.2      0.000      0.000
REMARK  6 active torsions:
REMARK  status: ('A' for Active; 'I' for Inactive)
REMARK       I    between atoms: C_1  and  N_24 
REMARK    1  A    between atoms: C_1  and  C_2 
REMARK    2  A    between atoms: C_13  and  C_16 
REMARK    3  A    between atoms: C_16  and  C_20 
REMARK    4  A    between atoms: O_19  and  C_26 
REMARK    5  A    between atoms: C_20  and  C_21 
REMARK    6  A    between atoms: C_20  and  N_24 
ROOT
HETATM    1  C           1     -21.106  -5.493  -6.780  0.00  0.00     0.189 C 
ENDROOT
BRANCH   1   2
HETATM    2  C           1     -22.131  -4.471  -7.250  0.00  0.00     0.074 C 
BRANCH   2   3
HETATM    3  C           1     -22.013  -4.289  -8.731  0.00  0.00    -0.056 A 
HETATM    4  C           1     -23.130  -3.923  -9.481  0.00  0.00     0.010 A 
HETATM    5  C           1     -23.018  -3.753 -10.861  0.00  0.00     0.037 A 
HETATM    6  C           1     -21.790  -3.947 -11.491  0.00  0.00     0.065 A 
HETATM    7  C           1     -20.672  -4.312 -10.741  0.00  0.00     0.037 A 
HETATM    8  C           1     -20.783  -4.483  -9.361  0.00  0.00     0.010 A 
BRANCH   6   9
HETATM    9  O           1     -21.681  -3.781 -12.831  0.00  0.00    -0.361 OA
HETATM   10  H           1     -22.243  -3.031 -13.088  0.00  0.00     0.217 HD
ENDBRANCH   6   9
ENDBRANCH   2   3
ENDBRANCH   1   2
BRANCH   1  11
HETATM   11  C           1     -19.953  -4.781  -6.116  0.00  0.00     0.197 C 
HETATM   12  O           1     -18.895  -4.580  -6.749  0.00  0.00    -0.646 OA
HETATM   13  O           1     -20.057  -4.392  -4.932  0.00  0.00    -0.646 OA
ENDBRANCH   1  11
BRANCH   1  14
HETATM   14  N           1     -21.726  -6.397  -5.829  0.00  0.00    -0.344 N 
HETATM   15  C           1     -21.139  -7.600  -5.545  0.00  0.00     0.249 C 
HETATM   16  O           1     -20.103  -7.909  -6.086  0.00  0.00    -0.271 OA
HETATM   17  H           1     -22.593  -6.137  -5.377  0.00  0.00     0.163 HD
BRANCH  15  18
HETATM   18  C           1     -21.783  -8.540  -4.556  0.00  0.00     0.274 C 
HETATM   19  C           1     -21.444  -8.099  -3.139  0.00  0.00     0.042 C 
HETATM   20  C           1     -19.932  -8.118  -2.948  0.00  0.00     0.003 C 
HETATM   21 Se           1     -19.263  -9.925  -3.241  0.00  0.00     0.000 Se
HETATM   22  C           1     -17.399  -9.465  -2.904  0.00  0.00     0.000 C 
HETATM   23  H           1     -20.231  -9.944  -4.651  0.00  0.00     0.275 HD
HETATM   24  N           1     -21.267  -9.931  -4.783  0.00  0.00    -0.067 N 
HETATM   25  H           1     -21.712 -10.583  -4.099  0.00  0.00     0.275 HD
HETATM   26  H           1     -21.501 -10.234  -5.755  0.00  0.00     0.275 HD
ENDBRANCH  15  18
ENDBRANCH   1  14
TORSDOF 6
ENDMDL
MODEL 2
REMARK VINA RESULT:      -7.1     14.483     17.547
REMARK  6 active torsions:
REMARK  status: ('A' for Active; 'I' for Inactive)
REMARK       I    between atoms: C_1  and  N_24 
REMARK    1  A    between atoms: C_1  and  C_2 
REMARK    2  A    between atoms: C_13  and  C_16 
REMARK    3  A    between atoms: C_16  and  C_20 
REMARK    4  A    between atoms: O_19  and  C_26 
REMARK    5  A    between atoms: C_20  and  C_21 
REMARK    6  A    between atoms: C_20  and  N_24 
ROOT
HETATM    1  C           1     -35.793  -1.146 -11.613  0.00  0.00     0.189 C 
ENDROOT
BRANCH   1   2
HETATM    2  C           1     -34.331  -1.444 -11.312  0.00  0.00     0.074 C 
BRANCH   2   3
HETATM    3  C           1     -34.131  -2.924 -11.218  0.00  0.00    -0.056 A 
HETATM    4  C           1     -35.149  -3.737 -10.720  0.00  0.00     0.010 A 
HETATM    5  C           1     -34.961  -5.116 -10.633  0.00  0.00     0.037 A 
HETATM    6  C           1     -33.757  -5.684 -11.046  0.00  0.00     0.065 A 
HETATM    7  C           1     -32.738  -4.872 -11.545  0.00  0.00     0.037 A 
HETATM    8  C           1     -32.925  -3.492 -11.632  0.00  0.00     0.010 A 
BRANCH   6   9
HETATM    9  O           1     -33.575  -7.024 -10.962  0.00  0.00    -0.361 OA
HETATM   10  H           1     -33.458  -7.368 -11.863  0.00  0.00     0.217 HD
ENDBRANCH   6   9
ENDBRANCH   2   3
ENDBRANCH   1   2
BRANCH   1  11
HETATM   11  C           1     -36.410  -0.417 -10.445  0.00  0.00     0.197 C 
HETATM   12  O           1     -37.148  -1.032  -9.644  0.00  0.00    -0.646 OA
HETATM   13  O           1     -36.183   0.800 -10.277  0.00  0.00    -0.646 OA
ENDBRANCH   1  11
BRANCH   1  14
HETATM   14  N           1     -35.882  -0.317 -12.800  0.00  0.00    -0.344 N 
HETATM   15  C           1     -37.082  -0.161 -13.439  0.00  0.00     0.249 C 
HETATM   16  O           1     -38.069  -0.715 -13.013  0.00  0.00    -0.271 OA
HETATM   17  H           1     -35.055   0.147 -13.156  0.00  0.00     0.163 HD
BRANCH  15  18
HETATM   18  C           1     -37.175   0.701 -14.672  0.00  0.00     0.274 C 
HETATM   19  C           1     -37.846  -0.081 -15.792  0.00  0.00     0.042 C 
HETATM   20  C           1     -37.026  -1.327 -16.105  0.00  0.00     0.003 C 
HETATM   21 Se           1     -35.235  -0.802 -16.665  0.00  0.00     0.000 Se
HETATM   22  C           1     -34.608  -2.628 -16.936  0.00  0.00     0.000 C 
HETATM   23  H           1     -35.234   0.251 -15.317  0.00  0.00     0.275 HD
HETATM   24  N           1     -35.795   1.105 -15.103  0.00  0.00    -0.067 N 
HETATM   25  H           1     -35.858   1.703 -15.958  0.00  0.00     0.275 HD
HETATM   26  H           1     -35.335   1.644 -14.335  0.00  0.00     0.275 HD
ENDBRANCH  15  18
ENDBRANCH   1  14
TORSDOF 6
ENDMDL
MODEL 3
REMARK VINA RESULT:      -7.1      3.274      7.749
REMARK  6 active torsions:
REMARK  status: ('A' for Active; 'I' for Inactive)
REMARK       I    between atoms: C_1  and  N_24 
REMARK    1  A    between atoms: C_1  and  C_2 
REMARK    2  A    between atoms: C_13  and  C_16 
REMARK    3  A    between atoms: C_16  and  C_20 
REMARK    4  A    between atoms: O_19  and  C_26 
REMARK    5  A    between atoms: C_20  and  C_21 
REMARK    6  A    between atoms: C_20  and  N_24 
ROOT
HETATM    1  C           1     -21.010  -6.252  -4.449  0.00  0.00     0.189 C 
ENDROOT
BRANCH   1   2
HETATM    2  C           1     -21.150  -5.753  -3.018  0.00  0.00     0.074 C 
BRANCH   2   3
HETATM    3  C           1     -21.309  -6.920  -2.095  0.00  0.00    -0.056 A 
HETATM    4  C           1     -22.320  -6.918  -1.134  0.00  0.00     0.010 A 
HETATM    5  C           1     -22.468  -8.006  -0.274  0.00  0.00     0.037 A 
HETATM    6  C           1     -21.606  -9.097  -0.375  0.00  0.00     0.065 A 
HETATM    7  C           1     -20.594  -9.100  -1.336  0.00  0.00     0.037 A 
HETATM    8  C           1     -20.446  -8.012  -2.196  0.00  0.00     0.010 A 
BRANCH   6   9
HETATM    9  O           1     -21.749 -10.154   0.460  0.00  0.00    -0.361 OA
HETATM   10  H           1     -21.126 -10.845   0.180  0.00  0.00     0.217 HD
ENDBRANCH   6   9
ENDBRANCH   2   3
ENDBRANCH   1   2
BRANCH   1  11
HETATM   11  C           1     -22.312  -6.867  -4.899  0.00  0.00     0.197 C 
HETATM   12  O           1     -23.322  -6.147  -5.059  0.00  0.00    -0.646 OA
HETATM   13  O           1     -22.383  -8.097  -5.112  0.00  0.00    -0.646 OA
ENDBRANCH   1  11
BRANCH   1  14
HETATM   14  N           1     -20.677  -5.139  -5.319  0.00  0.00    -0.344 N 
HETATM   15  C           1     -20.327  -5.369  -6.621  0.00  0.00     0.249 C 
HETATM   16  O           1     -20.295  -6.499  -7.048  0.00  0.00    -0.271 OA
HETATM   17  H           1     -20.705  -4.193  -4.961  0.00  0.00     0.163 HD
BRANCH  15  18
HETATM   18  C           1     -19.982  -4.212  -7.526  0.00  0.00     0.274 C 
HETATM   19  C           1     -21.112  -3.191  -7.501  0.00  0.00     0.042 C 
HETATM   20  C           1     -22.400  -3.846  -7.984  0.00  0.00     0.003 C 
HETATM   21 Se           1     -22.155  -4.498  -9.804  0.00  0.00     0.000 Se
HETATM   22  C           1     -23.963  -5.208  -9.967  0.00  0.00     0.000 C 
HETATM   23  H           1     -20.677  -5.163  -9.258  0.00  0.00     0.275 HD
HETATM   24  N           1     -19.794  -4.714  -8.928  0.00  0.00    -0.067 N 
HETATM   25  H           1     -19.555  -3.913  -9.555  0.00  0.00     0.275 HD
HETATM   26  H           1     -19.018  -5.414  -8.945  0.00  0.00     0.275 HD
ENDBRANCH  15  18
ENDBRANCH   1  14
TORSDOF 6
ENDMDL
MODEL 4
REMARK VINA RESULT:      -7.1      2.233      3.043
REMARK  6 active torsions:
REMARK  status: ('A' for Active; 'I' for Inactive)
REMARK       I    between atoms: C_1  and  N_24 
REMARK    1  A    between atoms: C_1  and  C_2 
REMARK    2  A    between atoms: C_13  and  C_16 
REMARK    3  A    between atoms: C_16  and  C_20 
REMARK    4  A    between atoms: O_19  and  C_26 
REMARK    5  A    between atoms: C_20  and  C_21 
REMARK    6  A    between atoms: C_20  and  N_24 
ROOT
HETATM    1  C           1     -21.061  -6.000  -5.245  0.00  0.00     0.189 C 
ENDROOT
BRANCH   1   2
HETATM    2  C           1     -20.333  -4.763  -5.751  0.00  0.00     0.074 C 
BRANCH   2   3
HETATM    3  C           1     -20.809  -4.430  -7.130  0.00  0.00    -0.056 A 
HETATM    4  C           1     -22.167  -4.215  -7.367  0.00  0.00     0.010 A 
HETATM    5  C           1     -22.610  -3.906  -8.652  0.00  0.00     0.037 A 
HETATM    6  C           1     -21.697  -3.810  -9.701  0.00  0.00     0.065 A 
HETATM    7  C           1     -20.339  -4.024  -9.465  0.00  0.00     0.037 A 
HETATM    8  C           1     -19.895  -4.335  -8.179  0.00  0.00     0.010 A 
BRANCH   6   9
HETATM    9  O           1     -22.127  -3.509 -10.950  0.00  0.00    -0.361 OA
HETATM   10  H           1     -22.999  -3.087 -10.874  0.00  0.00     0.217 HD
ENDBRANCH   6   9
ENDBRANCH   2   3
ENDBRANCH   1   2
BRANCH   1  11
HETATM   11  C           1     -20.637  -7.200  -6.054  0.00  0.00     0.197 C 
HETATM   12  O           1     -19.449  -7.315  -6.427  0.00  0.00    -0.646 OA
HETATM   13  O           1     -21.474  -8.081  -6.352  0.00  0.00    -0.646 OA
ENDBRANCH   1  11
BRANCH   1  14
HETATM   14  N           1     -20.730  -6.218  -3.849  0.00  0.00    -0.344 N 
HETATM   15  C           1     -21.724  -6.456  -2.939  0.00  0.00     0.249 C 
HETATM   16  O           1     -22.877  -6.485  -3.297  0.00  0.00    -0.271 OA
HETATM   17  H           1     -19.764  -6.195  -3.549  0.00  0.00     0.163 HD
BRANCH  15  18
HETATM   18  C           1     -21.380  -6.684  -1.488  0.00  0.00     0.274 C 
HETATM   19  C           1     -20.373  -7.821  -1.376  0.00  0.00     0.042 C 
HETATM   20  C           1     -20.975  -9.093  -1.961  0.00  0.00     0.003 C 
HETATM   21 Se           1     -22.591  -9.560  -0.978  0.00  0.00     0.000 Se
HETATM   22  C           1     -22.970 -11.154  -2.034  0.00  0.00     0.000 C 
HETATM   23  H           1     -23.037  -7.916  -1.133  0.00  0.00     0.275 HD
HETATM   24  N           1     -22.625  -7.044  -0.731  0.00  0.00    -0.067 N 
HETATM   25  H           1     -22.388  -7.202   0.274  0.00  0.00     0.275 HD
HETATM   26  H           1     -23.316  -6.263  -0.808  0.00  0.00     0.275 HD
ENDBRANCH  15  18
ENDBRANCH   1  14
TORSDOF 6
ENDMDL
MODEL 5
REMARK VINA RESULT:      -6.8      3.917      6.991
REMARK  6 active torsions:
REMARK  status: ('A' for Active; 'I' for Inactive)
REMARK       I    between atoms: C_1  and  N_24 
REMARK    1  A    between atoms: C_1  and  C_2 
REMARK    2  A    between atoms: C_13  and  C_16 
REMARK    3  A    between atoms: C_16  and  C_20 
REMARK    4  A    between atoms: O_19  and  C_26 
REMARK    5  A    between atoms: C_20  and  C_21 
REMARK    6  A    between atoms: C_20  and  N_24 
ROOT
HETATM    1  C           1     -21.114  -8.582  -4.849  0.00  0.00     0.189 C 
ENDROOT
BRANCH   1   2
HETATM    2  C           1     -20.275  -8.305  -3.610  0.00  0.00     0.074 C 
BRANCH   2   3
HETATM    3  C           1     -21.167  -8.218  -2.411  0.00  0.00    -0.056 A 
HETATM    4  C           1     -21.557  -6.972  -1.919  0.00  0.00     0.010 A 
HETATM    5  C           1     -22.387  -6.893  -0.802  0.00  0.00     0.037 A 
HETATM    6  C           1     -22.830  -8.058  -0.177  0.00  0.00     0.065 A 
HETATM    7  C           1     -22.441  -9.304  -0.668  0.00  0.00     0.037 A 
HETATM    8  C           1     -21.609  -9.384  -1.786  0.00  0.00     0.010 A 
BRANCH   6   9
HETATM    9  O           1     -23.638  -7.980   0.908  0.00  0.00    -0.361 OA
HETATM   10  H           1     -24.546  -8.170   0.620  0.00  0.00     0.217 HD
ENDBRANCH   6   9
ENDBRANCH   2   3
ENDBRANCH   1   2
BRANCH   1  11
HETATM   11  C           1     -21.272  -7.310  -5.645  0.00  0.00     0.197 C 
HETATM   12  O           1     -22.166  -6.490  -5.342  0.00  0.00    -0.646 OA
HETATM   13  O           1     -20.510  -7.075  -6.608  0.00  0.00    -0.646 OA
ENDBRANCH   1  11
BRANCH   1  14
HETATM   14  N           1     -20.453  -9.582  -5.666  0.00  0.00    -0.344 N 
HETATM   15  C           1     -20.849 -10.891  -5.601  0.00  0.00     0.249 C 
HETATM   16  O           1     -21.751 -11.213  -4.863  0.00  0.00    -0.271 OA
HETATM   17  H           1     -19.699  -9.312  -6.284  0.00  0.00     0.163 HD
BRANCH  15  18
HETATM   18  C           1     -20.163 -11.931  -6.450  0.00  0.00     0.274 C 
HETATM   19  C           1     -19.584 -13.018  -5.556  0.00  0.00     0.042 C 
HETATM   20  C           1     -18.575 -12.402  -4.594  0.00  0.00     0.003 C 
HETATM   21 Se           1     -17.138 -11.565  -5.608  0.00  0.00     0.000 Se
HETATM   22  C           1     -16.161 -10.957  -4.034  0.00  0.00     0.000 C 
HETATM   23  H           1     -18.365 -10.863  -6.571  0.00  0.00     0.275 HD
HETATM   24  N           1     -19.056 -11.285  -7.231  0.00  0.00    -0.067 N 
HETATM   25  H           1     -18.579 -12.005  -7.820  0.00  0.00     0.275 HD
HETATM   26  H           1     -19.453 -10.539  -7.846  0.00  0.00     0.275 HD
ENDBRANCH  15  18
ENDBRANCH   1  14
TORSDOF 6
ENDMDL
MODEL 6
REMARK VINA RESULT:      -6.7      2.424      3.638
REMARK  6 active torsions:
REMARK  status: ('A' for Active; 'I' for Inactive)
REMARK       I    between atoms: C_1  and  N_24 
REMARK    1  A    between atoms: C_1  and  C_2 
REMARK    2  A    between atoms: C_13  and  C_16 
REMARK    3  A    between atoms: C_16  and  C_20 
REMARK    4  A    between atoms: O_19  and  C_26 
REMARK    5  A    between atoms: C_20  and  C_21 
REMARK    6  A    between atoms: C_20  and  N_24 
ROOT
HETATM    1  C           1     -21.436  -7.223  -4.082  0.00  0.00     0.189 C 
ENDROOT
BRANCH   1   2
HETATM    2  C           1     -22.408  -6.395  -4.911  0.00  0.00     0.074 C 
BRANCH   2   3
HETATM    3  C           1     -21.646  -5.585  -5.913  0.00  0.00    -0.056 A 
HETATM    4  C           1     -20.255  -5.516  -5.843  0.00  0.00     0.010 A 
HETATM    5  C           1     -19.546  -4.761  -6.777  0.00  0.00     0.037 A 
HETATM    6  C           1     -20.227  -4.075  -7.781  0.00  0.00     0.065 A 
HETATM    7  C           1     -21.619  -4.144  -7.852  0.00  0.00     0.037 A 
HETATM    8  C           1     -22.329  -4.898  -6.918  0.00  0.00     0.010 A 
BRANCH   6   9
HETATM    9  O           1     -19.539  -3.342  -8.689  0.00  0.00    -0.361 OA
HETATM   10  H           1     -19.830  -2.418  -8.612  0.00  0.00     0.217 HD
ENDBRANCH   6   9
ENDBRANCH   2   3
ENDBRANCH   1   2
BRANCH   1  11
HETATM   11  C           1     -21.618  -6.899  -2.619  0.00  0.00     0.197 C 
HETATM   12  O           1     -22.411  -5.996  -2.273  0.00  0.00    -0.646 OA
HETATM   13  O           1     -20.977  -7.532  -1.753  0.00  0.00    -0.646 OA
ENDBRANCH   1  11
BRANCH   1  14
HETATM   14  N           1     -21.697  -8.634  -4.299  0.00  0.00    -0.344 N 
HETATM   15  C           1     -20.881  -9.363  -5.120  0.00  0.00     0.249 C 
HETATM   16  O           1     -19.942  -8.832  -5.665  0.00  0.00    -0.271 OA
HETATM   17  H           1     -22.483  -9.078  -3.842  0.00  0.00     0.163 HD
BRANCH  15  18
HETATM   18  C           1     -21.151 -10.830  -5.345  0.00  0.00     0.274 C 
HETATM   19  C           1     -20.899 -11.598  -4.055  0.00  0.00     0.042 C 
HETATM   20  C           1     -19.449 -11.409  -3.625  0.00  0.00     0.003 C 
HETATM   21 Se           1     -18.265 -12.079  -5.020  0.00  0.00     0.000 Se
HETATM   22  C           1     -16.624 -11.644  -4.064  0.00  0.00     0.000 C 
HETATM   23  H           1     -19.246 -11.216  -6.124  0.00  0.00     0.275 HD
HETATM   24  N           1     -20.239 -11.345  -6.419  0.00  0.00    -0.067 N 
HETATM   25  H           1     -20.425 -12.361  -6.576  0.00  0.00     0.275 HD
HETATM   26  H           1     -20.413 -10.819  -7.305  0.00  0.00     0.275 HD
ENDBRANCH  15  18
ENDBRANCH   1  14
TORSDOF 6
ENDMDL
MODEL 7
REMARK VINA RESULT:      -6.7     14.018     16.253
REMARK  6 active torsions:
REMARK  status: ('A' for Active; 'I' for Inactive)
REMARK       I    between atoms: C_1  and  N_24 
REMARK    1  A    between atoms: C_1  and  C_2 
REMARK    2  A    between atoms: C_13  and  C_16 
REMARK    3  A    between atoms: C_16  and  C_20 
REMARK    4  A    between atoms: O_19  and  C_26 
REMARK    5  A    between atoms: C_20  and  C_21 
REMARK    6  A    between atoms: C_20  and  N_24 
ROOT
HETATM    1  C           1     -35.433  -0.830 -11.072  0.00  0.00     0.189 C 
ENDROOT
BRANCH   1   2
HETATM    2  C           1     -35.751   0.459 -11.816  0.00  0.00     0.074 C 
BRANCH   2   3
HETATM    3  C           1     -36.033   0.151 -13.253  0.00  0.00    -0.056 A 
HETATM    4  C           1     -37.333  -0.150 -13.661  0.00  0.00     0.010 A 
HETATM    5  C           1     -37.594  -0.437 -15.000  0.00  0.00     0.037 A 
HETATM    6  C           1     -36.558  -0.422 -15.932  0.00  0.00     0.065 A 
HETATM    7  C           1     -35.258  -0.121 -15.525  0.00  0.00     0.037 A 
HETATM    8  C           1     -34.995   0.165 -14.186  0.00  0.00     0.010 A 
BRANCH   6   9
HETATM    9  O           1     -36.812  -0.701 -17.234  0.00  0.00    -0.361 OA
HETATM   10  H           1     -37.060  -1.638 -17.298  0.00  0.00     0.217 HD
ENDBRANCH   6   9
ENDBRANCH   2   3
ENDBRANCH   1   2
BRANCH   1  11
HETATM   11  C           1     -36.682  -1.345 -10.400  0.00  0.00     0.197 C 
HETATM   12  O           1     -37.402  -0.567  -9.737  0.00  0.00    -0.646 OA
HETATM   13  O           1     -36.999  -2.550 -10.508  0.00  0.00    -0.646 OA
ENDBRANCH   1  11
BRANCH   1  14
HETATM   14  N           1     -34.947  -1.823 -12.011  0.00  0.00    -0.344 N 
HETATM   15  C           1     -33.921  -2.657 -11.657  0.00  0.00     0.249 C 
HETATM   16  O           1     -33.420  -2.566 -10.561  0.00  0.00    -0.271 OA
HETATM   17  H           1     -35.367  -1.899 -12.929  0.00  0.00     0.163 HD
BRANCH  15  18
HETATM   18  C           1     -33.416  -3.690 -12.633  0.00  0.00     0.274 C 
HETATM   19  C           1     -34.564  -4.594 -13.058  0.00  0.00     0.042 C 
HETATM   20  C           1     -35.141  -5.293 -11.833  0.00  0.00     0.003 C 
HETATM   21 Se           1     -33.754  -6.364 -10.982  0.00  0.00     0.000 Se
HETATM   22  C           1     -34.908  -7.021  -9.555  0.00  0.00     0.000 C 
HETATM   23  H           1     -32.743  -4.993 -11.138  0.00  0.00     0.275 HD
HETATM   24  N           1     -32.347  -4.514 -11.977  0.00  0.00    -0.067 N 
HETATM   25  H           1     -31.996  -5.230 -12.652  0.00  0.00     0.275 HD
HETATM   26  H           1     -31.558  -3.894 -11.686  0.00  0.00     0.275 HD
ENDBRANCH  15  18
ENDBRANCH   1  14
TORSDOF 6
ENDMDL
MODEL 8
REMARK VINA RESULT:      -6.7      5.467      7.580
REMARK  6 active torsions:
REMARK  status: ('A' for Active; 'I' for Inactive)
REMARK       I    between atoms: C_1  and  N_24 
REMARK    1  A    between atoms: C_1  and  C_2 
REMARK    2  A    between atoms: C_13  and  C_16 
REMARK    3  A    between atoms: C_16  and  C_20 
REMARK    4  A    between atoms: O_19  and  C_26 
REMARK    5  A    between atoms: C_20  and  C_21 
REMARK    6  A    between atoms: C_20  and  N_24 
ROOT
HETATM    1  C           1     -19.836  -9.409  -4.085  0.00  0.00     0.189 C 
ENDROOT
BRANCH   1   2
HETATM    2  C           1     -20.576  -8.084  -3.964  0.00  0.00     0.074 C 
BRANCH   2   3
HETATM    3  C           1     -21.331  -8.048  -2.673  0.00  0.00    -0.056 A 
HETATM    4  C           1     -21.653  -9.237  -2.019  0.00  0.00     0.010 A 
HETATM    5  C           1     -22.357  -9.203  -0.815  0.00  0.00     0.037 A 
HETATM    6  C           1     -22.737  -7.981  -0.264  0.00  0.00     0.065 A 
HETATM    7  C           1     -22.414  -6.791  -0.917  0.00  0.00     0.037 A 
HETATM    8  C           1     -21.711  -6.824  -2.121  0.00  0.00     0.010 A 
BRANCH   6   9
HETATM    9  O           1     -23.420  -7.947   0.906  0.00  0.00    -0.361 OA
HETATM   10  H           1     -22.792  -8.125   1.626  0.00  0.00     0.217 HD
ENDBRANCH   6   9
ENDBRANCH   2   3
ENDBRANCH   1   2
BRANCH   1  11
HETATM   11  C           1     -20.131 -10.030  -5.428  0.00  0.00     0.197 C 
HETATM   12  O           1     -21.301 -10.037  -5.870  0.00  0.00    -0.646 OA
HETATM   13  O           1     -19.206 -10.537  -6.100  0.00  0.00    -0.646 OA
ENDBRANCH   1  11
BRANCH   1  14
HETATM   14  N           1     -18.409  -9.178  -3.964  0.00  0.00    -0.344 N 
HETATM   15  C           1     -17.684  -9.849  -3.017  0.00  0.00     0.249 C 
HETATM   16  O           1     -18.234 -10.635  -2.281  0.00  0.00    -0.271 OA
HETATM   17  H           1     -17.949  -8.520  -4.581  0.00  0.00     0.163 HD
BRANCH  15  18
HETATM   18  C           1     -16.200  -9.610  -2.892  0.00  0.00     0.274 C 
HETATM   19  C           1     -15.544  -9.749  -4.258  0.00  0.00     0.042 C 
HETATM   20  C           1     -15.788 -11.153  -4.799  0.00  0.00     0.003 C 
HETATM   21 Se           1     -15.022 -12.463  -3.577  0.00  0.00     0.000 Se
HETATM   22  C           1     -15.559 -14.008  -4.637  0.00  0.00     0.000 C 
HETATM   23  H           1     -15.778 -11.581  -2.321  0.00  0.00     0.275 HD
HETATM   24  N           1     -15.611 -10.619  -1.950  0.00  0.00    -0.067 N 
HETATM   25  H           1     -14.583 -10.455  -1.862  0.00  0.00     0.275 HD
HETATM   26  H           1     -16.060 -10.523  -1.011  0.00  0.00     0.275 HD
ENDBRANCH  15  18
ENDBRANCH   1  14
TORSDOF 6
ENDMDL
MODEL 9
REMARK VINA RESULT:      -6.5      3.602      7.288
REMARK  6 active torsions:
REMARK  status: ('A' for Active; 'I' for Inactive)
REMARK       I    between atoms: C_1  and  N_24 
REMARK    1  A    between atoms: C_1  and  C_2 
REMARK    2  A    between atoms: C_13  and  C_16 
REMARK    3  A    between atoms: C_16  and  C_20 
REMARK    4  A    between atoms: O_19  and  C_26 
REMARK    5  A    between atoms: C_20  and  C_21 
REMARK    6  A    between atoms: C_20  and  N_24 
ROOT
HETATM    1  C           1     -20.709  -5.060  -7.450  0.00  0.00     0.189 C 
ENDROOT
BRANCH   1   2
HETATM    2  C           1     -20.117  -6.387  -6.997  0.00  0.00     0.074 C 
BRANCH   2   3
HETATM    3  C           1     -20.595  -6.702  -5.614  0.00  0.00    -0.056 A 
HETATM    4  C           1     -20.848  -5.670  -4.711  0.00  0.00     0.010 A 
HETATM    5  C           1     -21.293  -5.965  -3.422  0.00  0.00     0.037 A 
HETATM    6  C           1     -21.487  -7.290  -3.037  0.00  0.00     0.065 A 
HETATM    7  C           1     -21.234  -8.323  -3.940  0.00  0.00     0.037 A 
HETATM    8  C           1     -20.788  -8.029  -5.229  0.00  0.00     0.010 A 
BRANCH   6   9
HETATM    9  O           1     -21.920  -7.577  -1.786  0.00  0.00    -0.361 OA
HETATM   10  H           1     -21.354  -7.100  -1.156  0.00  0.00     0.217 HD
ENDBRANCH   6   9
ENDBRANCH   2   3
ENDBRANCH   1   2
BRANCH   1  11
HETATM   11  C           1     -19.836  -4.459  -8.525  0.00  0.00     0.197 C 
HETATM   12  O           1     -19.056  -3.522  -8.245  0.00  0.00    -0.646 OA
HETATM   13  O           1     -19.891  -4.899  -9.694  0.00  0.00    -0.646 OA
ENDBRANCH   1  11
BRANCH   1  14
HETATM   14  N           1     -22.041  -5.281  -7.979  0.00  0.00    -0.344 N 
HETATM   15  C           1     -22.820  -4.215  -8.341  0.00  0.00     0.249 C 
HETATM   16  O           1     -22.398  -3.089  -8.219  0.00  0.00    -0.271 OA
HETATM   17  H           1     -22.394  -6.224  -8.082  0.00  0.00     0.163 HD
BRANCH  15  18
HETATM   18  C           1     -24.205  -4.445  -8.892  0.00  0.00     0.274 C 
HETATM   19  C           1     -24.130  -5.392 -10.082  0.00  0.00     0.042 C 
HETATM   20  C           1     -23.248  -4.780 -11.163  0.00  0.00     0.003 C 
HETATM   21 Se           1     -24.007  -3.079 -11.736  0.00  0.00     0.000 Se
HETATM   22  C           1     -22.610  -2.710 -13.045  0.00  0.00     0.000 C 
HETATM   23  H           1     -24.185  -2.716 -10.074  0.00  0.00     0.275 HD
HETATM   24  N           1     -24.790  -3.135  -9.333  0.00  0.00    -0.067 N 
HETATM   25  H           1     -25.749  -3.292  -9.715  0.00  0.00     0.275 HD
HETATM   26  H           1     -24.842  -2.485  -8.516  0.00  0.00     0.275 HD
ENDBRANCH  15  18
ENDBRANCH   1  14
TORSDOF 6
ENDMDL
