MODEL 1
REMARK VINA RESULT:      -6.5      0.000      0.000
REMARK  8 active torsions:
REMARK  status: ('A' for Active; 'I' for Inactive)
REMARK    1  A    between atoms: C_3  and  C_18 
REMARK    2  A    between atoms: N_4  and  C_16 
REMARK       I    between atoms: N_4  and  C_19 
REMARK    3  A    between atoms: C_5  and  C_19 
REMARK    4  A    between atoms: C_5  and  C_6 
REMARK    5  A    between atoms: C_5  and  N_20 
REMARK    6  A    between atoms: C_6  and  C_9 
REMARK    7  A    between atoms: C_13  and  C_16 
REMARK    8  A    between atoms: C_16  and  C_18 
ROOT
HETATM    1  N           1     -23.323  -4.378  -8.898  0.00  0.00    -0.345 N 
HETATM    2  H           1     -24.038  -5.072  -8.723  0.00  0.00     0.163 HD
HETATM    3  C           1     -22.409  -4.076  -7.925  0.00  0.00     0.249 C 
HETATM    4  O           1     -21.556  -3.246  -8.134  0.00  0.00    -0.271 OA
ENDROOT
BRANCH   3   5
HETATM    5  C           1     -22.467  -4.779  -6.591  0.00  0.00     0.275 C 
BRANCH   5   6
HETATM    6  C           1     -21.665  -6.072  -6.663  0.00  0.00     0.046 C 
BRANCH   6   7
HETATM    7  C           1     -20.639  -6.099  -5.539  0.00  0.00    -0.020 C 
HETATM    8  C           1     -20.092  -4.695  -5.318  0.00  0.00     0.009 C 
HETATM    9  C           1     -21.301  -6.592  -4.260  0.00  0.00     0.009 C 
ENDBRANCH   6   7
ENDBRANCH   5   6
BRANCH   5  10
HETATM   10  N           1     -23.894  -5.093  -6.255  0.00  0.00    -0.066 N 
HETATM   11  H           1     -24.309  -4.299  -5.719  0.00  0.00     0.275 HD
HETATM   12  H           1     -24.436  -5.241  -7.136  0.00  0.00     0.275 HD
HETATM   13  H           1     -23.932  -5.962  -5.674  0.00  0.00     0.275 HD
ENDBRANCH   5  10
ENDBRANCH   3   5
BRANCH   1  14
HETATM   14  C           1     -23.269  -3.702 -10.179  0.00  0.00     0.185 C 
BRANCH  14  15
HETATM   15  C           1     -24.663  -3.303 -10.597  0.00  0.00     0.196 C 
HETATM   16  O           1     -24.921  -3.105 -11.804  0.00  0.00    -0.646 OA
HETATM   17  O           1     -25.560  -3.172  -9.736  0.00  0.00    -0.646 OA
ENDBRANCH  14  15
BRANCH  14  18
HETATM   18  C           1     -22.673  -4.637 -11.223  0.00  0.00     0.040 C 
BRANCH  18  19
HETATM   19  C           1     -21.331  -4.091 -11.688  0.00  0.00    -0.020 C 
HETATM   20  C           1     -21.330  -2.573 -11.561  0.00  0.00     0.009 C 
HETATM   21  C           1     -20.219  -4.673 -10.824  0.00  0.00     0.009 C 
ENDBRANCH  18  19
ENDBRANCH  14  18
ENDBRANCH   1  14
TORSDOF 8
ENDMDL
MODEL 2
REMARK VINA RESULT:      -6.3     11.895     13.619
REMARK  8 active torsions:
REMARK  status: ('A' for Active; 'I' for Inactive)
REMARK    1  A    between atoms: C_3  and  C_18 
REMARK    2  A    between atoms: N_4  and  C_16 
REMARK       I    between atoms: N_4  and  C_19 
REMARK    3  A    between atoms: C_5  and  C_19 
REMARK    4  A    between atoms: C_5  and  C_6 
REMARK    5  A    between atoms: C_5  and  N_20 
REMARK    6  A    between atoms: C_6  and  C_9 
REMARK    7  A    between atoms: C_13  and  C_16 
REMARK    8  A    between atoms: C_16  and  C_18 
ROOT
HETATM    1  N           1     -35.387  -2.094 -12.012  0.00  0.00    -0.345 N 
HETATM    2  H           1     -35.967  -2.718 -12.558  0.00  0.00     0.163 HD
HETATM    3  C           1     -34.216  -2.547 -11.468  0.00  0.00     0.249 C 
HETATM    4  O           1     -33.524  -1.802 -10.815  0.00  0.00    -0.271 OA
ENDROOT
BRANCH   3   5
HETATM    5  C           1     -33.789  -3.979 -11.682  0.00  0.00     0.275 C 
BRANCH   5   6
HETATM    6  C           1     -34.077  -4.788 -10.424  0.00  0.00     0.046 C 
BRANCH   6   7
HETATM    7  C           1     -34.235  -6.258 -10.790  0.00  0.00    -0.020 C 
HETATM    8  C           1     -34.887  -7.002  -9.632  0.00  0.00     0.009 C 
HETATM    9  C           1     -35.110  -6.381 -12.029  0.00  0.00     0.009 C 
ENDBRANCH   6   7
ENDBRANCH   5   6
BRANCH   5  10
HETATM   10  N           1     -32.319  -4.021 -11.976  0.00  0.00    -0.066 N 
HETATM   11  H           1     -31.831  -4.575 -11.237  0.00  0.00     0.275 HD
HETATM   12  H           1     -32.162  -4.468 -12.908  0.00  0.00     0.275 HD
HETATM   13  H           1     -31.938  -3.047 -11.990  0.00  0.00     0.275 HD
ENDBRANCH   5  10
ENDBRANCH   3   5
BRANCH   1  14
HETATM   14  C           1     -35.799  -0.719 -11.805  0.00  0.00     0.185 C 
BRANCH  14  15
HETATM   15  C           1     -36.770  -0.653 -10.653  0.00  0.00     0.196 C 
HETATM   16  O           1     -37.986  -0.868 -10.847  0.00  0.00    -0.646 OA
HETATM   17  O           1     -36.359  -0.382  -9.504  0.00  0.00    -0.646 OA
ENDBRANCH  14  15
BRANCH  14  18
HETATM   18  C           1     -36.470  -0.194 -13.068  0.00  0.00     0.040 C 
BRANCH  18  19
HETATM   19  C           1     -35.422   0.013 -14.152  0.00  0.00    -0.020 C 
HETATM   20  C           1     -36.115   0.235 -15.490  0.00  0.00     0.009 C 
HETATM   21  C           1     -34.574   1.232 -13.811  0.00  0.00     0.009 C 
ENDBRANCH  18  19
ENDBRANCH  14  18
ENDBRANCH   1  14
TORSDOF 8
ENDMDL
MODEL 3
REMARK VINA RESULT:      -6.0     12.089     14.326
REMARK  8 active torsions:
REMARK  status: ('A' for Active; 'I' for Inactive)
REMARK    1  A    between atoms: C_3  and  C_18 
REMARK    2  A    between atoms: N_4  and  C_16 
REMARK       I    between atoms: N_4  and  C_19 
REMARK    3  A    between atoms: C_5  and  C_19 
REMARK    4  A    between atoms: C_5  and  C_6 
REMARK    5  A    between atoms: C_5  and  N_20 
REMARK    6  A    between atoms: C_6  and  C_9 
REMARK    7  A    between atoms: C_13  and  C_16 
REMARK    8  A    between atoms: C_16  and  C_18 
ROOT
HETATM    1  N           1     -34.891  -1.325 -13.731  0.00  0.00    -0.345 N 
HETATM    2  H           1     -33.903  -1.544 -13.739  0.00  0.00     0.163 HD
HETATM    3  C           1     -35.607  -1.433 -12.570  0.00  0.00     0.249 C 
HETATM    4  O           1     -36.787  -1.172 -12.561  0.00  0.00    -0.271 OA
ENDROOT
BRANCH   3   5
HETATM    5  C           1     -34.924  -1.880 -11.300  0.00  0.00     0.275 C 
BRANCH   5   6
HETATM    6  C           1     -35.194  -3.362 -11.073  0.00  0.00     0.046 C 
BRANCH   6   7
HETATM    7  C           1     -33.904  -4.056 -10.659  0.00  0.00    -0.020 C 
HETATM    8  C           1     -34.149  -5.554 -10.536  0.00  0.00     0.009 C 
HETATM    9  C           1     -32.832  -3.803 -11.710  0.00  0.00     0.009 C 
ENDBRANCH   6   7
ENDBRANCH   5   6
BRANCH   5  10
HETATM   10  N           1     -35.461  -1.092 -10.142  0.00  0.00    -0.066 N 
HETATM   11  H           1     -35.608  -0.100 -10.435  0.00  0.00     0.275 HD
HETATM   12  H           1     -36.370  -1.503  -9.831  0.00  0.00     0.275 HD
HETATM   13  H           1     -34.776  -1.123  -9.352  0.00  0.00     0.275 HD
ENDBRANCH   5  10
ENDBRANCH   3   5
BRANCH   1  14
HETATM   14  C           1     -35.547  -0.897 -14.951  0.00  0.00     0.185 C 
BRANCH  14  15
HETATM   15  C           1     -35.189  -1.842 -16.072  0.00  0.00     0.196 C 
HETATM   16  O           1     -34.664  -2.947 -15.814  0.00  0.00    -0.646 OA
HETATM   17  O           1     -35.417  -1.519 -17.258  0.00  0.00    -0.646 OA
ENDBRANCH  14  15
BRANCH  14  18
HETATM   18  C           1     -35.089   0.511 -15.307  0.00  0.00     0.040 C 
BRANCH  18  19
HETATM   19  C           1     -36.287   1.451 -15.302  0.00  0.00    -0.020 C 
HETATM   20  C           1     -36.093   2.524 -16.365  0.00  0.00     0.009 C 
HETATM   21  C           1     -37.554   0.660 -15.603  0.00  0.00     0.009 C 
ENDBRANCH  18  19
ENDBRANCH  14  18
ENDBRANCH   1  14
TORSDOF 8
ENDMDL
MODEL 4
REMARK VINA RESULT:      -5.9      2.044      6.241
REMARK  8 active torsions:
REMARK  status: ('A' for Active; 'I' for Inactive)
REMARK    1  A    between atoms: C_3  and  C_18 
REMARK    2  A    between atoms: N_4  and  C_16 
REMARK       I    between atoms: N_4  and  C_19 
REMARK    3  A    between atoms: C_5  and  C_19 
REMARK    4  A    between atoms: C_5  and  C_6 
REMARK    5  A    between atoms: C_5  and  N_20 
REMARK    6  A    between atoms: C_6  and  C_9 
REMARK    7  A    between atoms: C_13  and  C_16 
REMARK    8  A    between atoms: C_16  and  C_18 
ROOT
HETATM    1  N           1     -22.343  -5.414  -6.983  0.00  0.00    -0.345 N 
HETATM    2  H           1     -22.880  -6.224  -7.264  0.00  0.00     0.163 HD
HETATM    3  C           1     -22.371  -4.276  -7.743  0.00  0.00     0.249 C 
HETATM    4  O           1     -21.729  -3.309  -7.408  0.00  0.00    -0.271 OA
ENDROOT
BRANCH   3   5
HETATM    5  C           1     -23.205  -4.228  -9.000  0.00  0.00     0.275 C 
BRANCH   5   6
HETATM    6  C           1     -22.518  -3.343 -10.032  0.00  0.00     0.046 C 
BRANCH   6   7
HETATM    7  C           1     -21.918  -4.212 -11.129  0.00  0.00    -0.020 C 
HETATM    8  C           1     -22.196  -3.580 -12.487  0.00  0.00     0.009 C 
HETATM    9  C           1     -20.414  -4.323 -10.921  0.00  0.00     0.009 C 
ENDBRANCH   6   7
ENDBRANCH   5   6
BRANCH   5  10
HETATM   10  N           1     -24.558  -3.665  -8.680  0.00  0.00    -0.066 N 
HETATM   11  H           1     -24.451  -2.843  -8.045  0.00  0.00     0.275 HD
HETATM   12  H           1     -25.029  -3.365  -9.563  0.00  0.00     0.275 HD
HETATM   13  H           1     -25.137  -4.396  -8.208  0.00  0.00     0.275 HD
ENDBRANCH   5  10
ENDBRANCH   3   5
BRANCH   1  14
HETATM   14  C           1     -21.541  -5.460  -5.776  0.00  0.00     0.185 C 
BRANCH  14  15
HETATM   15  C           1     -20.102  -5.730  -6.138  0.00  0.00     0.196 C 
HETATM   16  O           1     -19.771  -6.845  -6.597  0.00  0.00    -0.646 OA
HETATM   17  O           1     -19.240  -4.839  -5.980  0.00  0.00    -0.646 OA
ENDBRANCH  14  15
BRANCH  14  18
HETATM   18  C           1     -22.054  -6.570  -4.868  0.00  0.00     0.040 C 
BRANCH  18  19
HETATM   19  C           1     -21.229  -6.602  -3.589  0.00  0.00    -0.020 C 
HETATM   20  C           1     -22.096  -6.158  -2.417  0.00  0.00     0.009 C 
HETATM   21  C           1     -20.729  -8.019  -3.342  0.00  0.00     0.009 C 
ENDBRANCH  18  19
ENDBRANCH  14  18
ENDBRANCH   1  14
TORSDOF 8
ENDMDL
MODEL 5
REMARK VINA RESULT:      -5.8      2.111      5.752
REMARK  8 active torsions:
REMARK  status: ('A' for Active; 'I' for Inactive)
REMARK    1  A    between atoms: C_3  and  C_18 
REMARK    2  A    between atoms: N_4  and  C_16 
REMARK       I    between atoms: N_4  and  C_19 
REMARK    3  A    between atoms: C_5  and  C_19 
REMARK    4  A    between atoms: C_5  and  C_6 
REMARK    5  A    between atoms: C_5  and  N_20 
REMARK    6  A    between atoms: C_6  and  C_9 
REMARK    7  A    between atoms: C_13  and  C_16 
REMARK    8  A    between atoms: C_16  and  C_18 
ROOT
HETATM    1  N           1     -21.909  -4.871  -8.537  0.00  0.00    -0.345 N 
HETATM    2  H           1     -21.607  -5.094  -9.477  0.00  0.00     0.163 HD
HETATM    3  C           1     -23.205  -4.499  -8.304  0.00  0.00     0.249 C 
HETATM    4  O           1     -23.565  -4.232  -7.182  0.00  0.00    -0.271 OA
ENDROOT
BRANCH   3   5
HETATM    5  C           1     -24.186  -4.421  -9.449  0.00  0.00     0.275 C 
BRANCH   5   6
HETATM    6  C           1     -23.432  -4.516 -10.770  0.00  0.00     0.046 C 
BRANCH   6   7
HETATM    7  C           1     -23.268  -3.123 -11.363  0.00  0.00    -0.020 C 
HETATM    8  C           1     -21.790  -2.844 -11.602  0.00  0.00     0.009 C 
HETATM    9  C           1     -24.019  -3.044 -12.685  0.00  0.00     0.009 C 
ENDBRANCH   6   7
ENDBRANCH   5   6
BRANCH   5  10
HETATM   10  N           1     -24.921  -3.115  -9.387  0.00  0.00    -0.066 N 
HETATM   11  H           1     -25.245  -2.852 -10.344  0.00  0.00     0.275 HD
HETATM   12  H           1     -25.746  -3.209  -8.752  0.00  0.00     0.275 HD
HETATM   13  H           1     -24.283  -2.373  -9.019  0.00  0.00     0.275 HD
ENDBRANCH   5  10
ENDBRANCH   3   5
BRANCH   1  14
HETATM   14  C           1     -20.967  -4.944  -7.438  0.00  0.00     0.185 C 
BRANCH  14  15
HETATM   15  C           1     -19.647  -4.352  -7.866  0.00  0.00     0.196 C 
HETATM   16  O           1     -18.623  -4.541  -7.173  0.00  0.00    -0.646 OA
HETATM   17  O           1     -19.577  -3.673  -8.913  0.00  0.00    -0.646 OA
ENDBRANCH  14  15
BRANCH  14  18
HETATM   18  C           1     -20.766  -6.400  -7.038  0.00  0.00     0.040 C 
BRANCH  18  19
HETATM   19  C           1     -20.787  -6.518  -5.520  0.00  0.00    -0.020 C 
HETATM   20  C           1     -22.230  -6.581  -5.037  0.00  0.00     0.009 C 
HETATM   21  C           1     -20.055  -7.786  -5.099  0.00  0.00     0.009 C 
ENDBRANCH  18  19
ENDBRANCH  14  18
ENDBRANCH   1  14
TORSDOF 8
ENDMDL
MODEL 6
REMARK VINA RESULT:      -5.7     12.340     13.865
REMARK  8 active torsions:
REMARK  status: ('A' for Active; 'I' for Inactive)
REMARK    1  A    between atoms: C_3  and  C_18 
REMARK    2  A    between atoms: N_4  and  C_16 
REMARK       I    between atoms: N_4  and  C_19 
REMARK    3  A    between atoms: C_5  and  C_19 
REMARK    4  A    between atoms: C_5  and  C_6 
REMARK    5  A    between atoms: C_5  and  N_20 
REMARK    6  A    between atoms: C_6  and  C_9 
REMARK    7  A    between atoms: C_13  and  C_16 
REMARK    8  A    between atoms: C_16  and  C_18 
ROOT
HETATM    1  N           1     -34.671  -2.064 -12.723  0.00  0.00    -0.345 N 
HETATM    2  H           1     -33.780  -1.983 -13.197  0.00  0.00     0.163 HD
HETATM    3  C           1     -34.921  -3.140 -11.915  0.00  0.00     0.249 C 
HETATM    4  O           1     -35.984  -3.236 -11.350  0.00  0.00    -0.271 OA
ENDROOT
BRANCH   3   5
HETATM    5  C           1     -33.869  -4.206 -11.731  0.00  0.00     0.275 C 
BRANCH   5   6
HETATM    6  C           1     -34.150  -4.980 -10.449  0.00  0.00     0.046 C 
BRANCH   6   7
HETATM    7  C           1     -34.270  -6.464 -10.767  0.00  0.00    -0.020 C 
HETATM    8  C           1     -34.881  -7.192  -9.577  0.00  0.00     0.009 C 
HETATM    9  C           1     -35.163  -6.651 -11.987  0.00  0.00     0.009 C 
ENDBRANCH   6   7
ENDBRANCH   5   6
BRANCH   5  10
HETATM   10  N           1     -32.518  -3.562 -11.639  0.00  0.00    -0.066 N 
HETATM   11  H           1     -31.980  -3.991 -10.853  0.00  0.00     0.275 HD
HETATM   12  H           1     -32.001  -3.706 -12.535  0.00  0.00     0.275 HD
HETATM   13  H           1     -32.631  -2.537 -11.464  0.00  0.00     0.275 HD
ENDBRANCH   5  10
ENDBRANCH   3   5
BRANCH   1  14
HETATM   14  C           1     -35.681  -1.040 -12.902  0.00  0.00     0.185 C 
BRANCH  14  15
HETATM   15  C           1     -35.601  -0.493 -14.305  0.00  0.00     0.196 C 
HETATM   16  O           1     -35.729   0.735 -14.506  0.00  0.00    -0.646 OA
HETATM   17  O           1     -35.406  -1.267 -15.267  0.00  0.00    -0.646 OA
ENDBRANCH  14  15
BRANCH  14  18
HETATM   18  C           1     -35.446   0.086 -11.903  0.00  0.00     0.040 C 
BRANCH  18  19
HETATM   19  C           1     -36.688   0.268 -11.041  0.00  0.00    -0.020 C 
HETATM   20  C           1     -37.902  -0.278 -11.781  0.00  0.00     0.009 C 
HETATM   21  C           1     -36.511  -0.486  -9.729  0.00  0.00     0.009 C 
ENDBRANCH  18  19
ENDBRANCH  14  18
ENDBRANCH   1  14
TORSDOF 8
ENDMDL
MODEL 7
REMARK VINA RESULT:      -5.7     12.051     15.172
REMARK  8 active torsions:
REMARK  status: ('A' for Active; 'I' for Inactive)
REMARK    1  A    between atoms: C_3  and  C_18 
REMARK    2  A    between atoms: N_4  and  C_16 
REMARK       I    between atoms: N_4  and  C_19 
REMARK    3  A    between atoms: C_5  and  C_19 
REMARK    4  A    between atoms: C_5  and  C_6 
REMARK    5  A    between atoms: C_5  and  N_20 
REMARK    6  A    between atoms: C_6  and  C_9 
REMARK    7  A    between atoms: C_13  and  C_16 
REMARK    8  A    between atoms: C_16  and  C_18 
ROOT
HETATM    1  N           1     -34.710  -0.853 -12.105  0.00  0.00    -0.345 N 
HETATM    2  H           1     -33.905  -0.270 -11.916  0.00  0.00     0.163 HD
HETATM    3  C           1     -35.302  -0.824 -13.338  0.00  0.00     0.249 C 
HETATM    4  O           1     -36.264  -1.519 -13.564  0.00  0.00    -0.271 OA
ENDROOT
BRANCH   3   5
HETATM    5  C           1     -34.754   0.078 -14.418  0.00  0.00     0.275 C 
BRANCH   5   6
HETATM    6  C           1     -35.617   1.329 -14.521  0.00  0.00     0.046 C 
BRANCH   6   7
HETATM    7  C           1     -36.342   1.337 -15.860  0.00  0.00    -0.020 C 
HETATM    8  C           1     -37.790   0.912 -15.657  0.00  0.00     0.009 C 
HETATM    9  C           1     -36.304   2.741 -16.449  0.00  0.00     0.009 C 
ENDBRANCH   6   7
ENDBRANCH   5   6
BRANCH   5  10
HETATM   10  N           1     -34.769  -0.650 -15.729  0.00  0.00    -0.066 N 
HETATM   11  H           1     -35.378  -1.495 -15.652  0.00  0.00     0.275 HD
HETATM   12  H           1     -35.141  -0.019 -16.474  0.00  0.00     0.275 HD
HETATM   13  H           1     -33.796  -0.943 -15.976  0.00  0.00     0.275 HD
ENDBRANCH   5  10
ENDBRANCH   3   5
BRANCH   1  14
HETATM   14  C           1     -35.237  -1.718 -11.067  0.00  0.00     0.185 C 
BRANCH  14  15
HETATM   15  C           1     -36.180  -0.933 -10.189  0.00  0.00     0.196 C 
HETATM   16  O           1     -37.384  -0.820 -10.508  0.00  0.00    -0.646 OA
HETATM   17  O           1     -35.757  -0.395  -9.143  0.00  0.00    -0.646 OA
ENDBRANCH  14  15
BRANCH  14  18
HETATM   18  C           1     -34.089  -2.259 -10.225  0.00  0.00     0.040 C 
BRANCH  18  19
HETATM   19  C           1     -33.850  -3.722 -10.573  0.00  0.00    -0.020 C 
HETATM   20  C           1     -35.157  -4.353 -11.035  0.00  0.00     0.009 C 
HETATM   21  C           1     -32.818  -3.816 -11.690  0.00  0.00     0.009 C 
ENDBRANCH  18  19
ENDBRANCH  14  18
ENDBRANCH   1  14
TORSDOF 8
ENDMDL
MODEL 8
REMARK VINA RESULT:      -5.7      3.211      7.186
REMARK  8 active torsions:
REMARK  status: ('A' for Active; 'I' for Inactive)
REMARK    1  A    between atoms: C_3  and  C_18 
REMARK    2  A    between atoms: N_4  and  C_16 
REMARK       I    between atoms: N_4  and  C_19 
REMARK    3  A    between atoms: C_5  and  C_19 
REMARK    4  A    between atoms: C_5  and  C_6 
REMARK    5  A    between atoms: C_5  and  N_20 
REMARK    6  A    between atoms: C_6  and  C_9 
REMARK    7  A    between atoms: C_13  and  C_16 
REMARK    8  A    between atoms: C_16  and  C_18 
ROOT
HETATM    1  N           1     -21.530  -6.986  -5.279  0.00  0.00    -0.345 N 
HETATM    2  H           1     -22.242  -7.562  -5.710  0.00  0.00     0.163 HD
HETATM    3  C           1     -21.336  -5.701  -5.708  0.00  0.00     0.249 C 
HETATM    4  O           1     -20.486  -5.014  -5.194  0.00  0.00    -0.271 OA
ENDROOT
BRANCH   3   5
HETATM    5  C           1     -22.185  -5.141  -6.824  0.00  0.00     0.275 C 
BRANCH   5   6
HETATM    6  C           1     -21.611  -3.804  -7.276  0.00  0.00     0.046 C 
BRANCH   6   7
HETATM    7  C           1     -21.205  -3.895  -8.740  0.00  0.00    -0.020 C 
HETATM    8  C           1     -19.961  -4.764  -8.869  0.00  0.00     0.009 C 
HETATM    9  C           1     -22.340  -4.512  -9.545  0.00  0.00     0.009 C 
ENDBRANCH   6   7
ENDBRANCH   5   6
BRANCH   5  10
HETATM   10  N           1     -23.587  -4.942  -6.331  0.00  0.00    -0.066 N 
HETATM   11  H           1     -23.569  -4.702  -5.315  0.00  0.00     0.275 HD
HETATM   12  H           1     -24.038  -4.166  -6.865  0.00  0.00     0.275 HD
HETATM   13  H           1     -24.134  -5.823  -6.470  0.00  0.00     0.275 HD
ENDBRANCH   5  10
ENDBRANCH   3   5
BRANCH   1  14
HETATM   14  C           1     -20.714  -7.525  -4.209  0.00  0.00     0.185 C 
BRANCH  14  15
HETATM   15  C           1     -19.797  -8.587  -4.760  0.00  0.00     0.196 C 
HETATM   16  O           1     -18.762  -8.907  -4.135  0.00  0.00    -0.646 OA
HETATM   17  O           1     -20.071  -9.149  -5.843  0.00  0.00    -0.646 OA
ENDBRANCH  14  15
BRANCH  14  18
HETATM   18  C           1     -21.614  -8.133  -3.141  0.00  0.00     0.040 C 
BRANCH  18  19
HETATM   19  C           1     -21.414  -7.394  -1.825  0.00  0.00    -0.020 C 
HETATM   20  C           1     -22.141  -6.056  -1.881  0.00  0.00     0.009 C 
HETATM   21  C           1     -21.976  -8.230  -0.683  0.00  0.00     0.009 C 
ENDBRANCH  18  19
ENDBRANCH  14  18
ENDBRANCH   1  14
TORSDOF 8
ENDMDL
MODEL 9
REMARK VINA RESULT:      -5.5      2.569      3.931
REMARK  8 active torsions:
REMARK  status: ('A' for Active; 'I' for Inactive)
REMARK    1  A    between atoms: C_3  and  C_18 
REMARK    2  A    between atoms: N_4  and  C_16 
REMARK       I    between atoms: N_4  and  C_19 
REMARK    3  A    between atoms: C_5  and  C_19 
REMARK    4  A    between atoms: C_5  and  C_6 
REMARK    5  A    between atoms: C_5  and  N_20 
REMARK    6  A    between atoms: C_6  and  C_9 
REMARK    7  A    between atoms: C_13  and  C_16 
REMARK    8  A    between atoms: C_16  and  C_18 
ROOT
HETATM    1  N           1     -21.386  -4.891  -6.795  0.00  0.00    -0.345 N 
HETATM    2  H           1     -21.466  -4.054  -6.232  0.00  0.00     0.163 HD
HETATM    3  C           1     -21.214  -6.108  -6.193  0.00  0.00     0.249 C 
HETATM    4  O           1     -21.118  -7.107  -6.865  0.00  0.00    -0.271 OA
ENDROOT
BRANCH   3   5
HETATM    5  C           1     -21.143  -6.201  -4.688  0.00  0.00     0.275 C 
BRANCH   5   6
HETATM    6  C           1     -20.487  -7.518  -4.291  0.00  0.00     0.046 C 
BRANCH   6   7
HETATM    7  C           1     -21.275  -8.156  -3.155  0.00  0.00    -0.020 C 
HETATM    8  C           1     -21.625  -9.592  -3.524  0.00  0.00     0.009 C 
HETATM    9  C           1     -20.431  -8.150  -1.888  0.00  0.00     0.009 C 
ENDBRANCH   6   7
ENDBRANCH   5   6
BRANCH   5  10
HETATM   10  N           1     -22.530  -6.143  -4.119  0.00  0.00    -0.066 N 
HETATM   11  H           1     -22.797  -7.084  -3.754  0.00  0.00     0.275 HD
HETATM   12  H           1     -22.560  -5.446  -3.342  0.00  0.00     0.275 HD
HETATM   13  H           1     -23.202  -5.857  -4.868  0.00  0.00     0.275 HD
ENDBRANCH   5  10
ENDBRANCH   3   5
BRANCH   1  14
HETATM   14  C           1     -21.453  -4.800  -8.241  0.00  0.00     0.185 C 
BRANCH  14  15
HETATM   15  C           1     -20.069  -4.572  -8.794  0.00  0.00     0.196 C 
HETATM   16  O           1     -19.189  -4.042  -8.080  0.00  0.00    -0.646 OA
HETATM   17  O           1     -19.801  -4.910  -9.967  0.00  0.00    -0.646 OA
ENDBRANCH  14  15
BRANCH  14  18
HETATM   18  C           1     -22.357  -3.640  -8.636  0.00  0.00     0.040 C 
BRANCH  18  19
HETATM   19  C           1     -23.196  -4.038  -9.842  0.00  0.00    -0.020 C 
HETATM   20  C           1     -24.640  -3.608  -9.619  0.00  0.00     0.009 C 
HETATM   21  C           1     -22.649  -3.354 -11.089  0.00  0.00     0.009 C 
ENDBRANCH  18  19
ENDBRANCH  14  18
ENDBRANCH   1  14
TORSDOF 8
ENDMDL
