MODEL 1
REMARK VINA RESULT:      -6.0      0.000      0.000
REMARK  8 active torsions:
REMARK  status: ('A' for Active; 'I' for Inactive)
REMARK    1  A    between atoms: C_2  and  C_3 
REMARK    2  A    between atoms: C_2  and  N_6 
REMARK       I    between atoms: N_6  and  C_7 
REMARK    3  A    between atoms: C_7  and  C_8 
REMARK    4  A    between atoms: C_8  and  C_9 
REMARK    5  A    between atoms: C_8  and  N_15 
REMARK    6  A    between atoms: C_9  and  O_10 
REMARK    7  A    between atoms: O_10  and  P_11 
REMARK    8  A    between atoms: P_11  and  O_12 
ROOT
HETATM    1  C           1     -36.581  -1.079 -10.277  0.00  0.00     0.298 C 
ENDROOT
BRANCH   1   2
HETATM    2  C           1     -35.367  -1.896 -10.648  0.00  0.00     0.251 C 
HETATM    3  N           1     -35.509  -3.213 -10.995  0.00  0.00    -0.345 N 
HETATM    4  H           1     -36.427  -3.638 -11.003  0.00  0.00     0.163 HD
HETATM    5  O           1     -34.271  -1.388 -10.638  0.00  0.00    -0.271 OA
BRANCH   3   6
HETATM    6  C           1     -34.342  -3.998 -11.351  0.00  0.00     0.181 C 
HETATM    7  C           1     -34.267  -5.229 -10.457  0.00  0.00     0.043 C 
BRANCH   6   8
HETATM    8  C           1     -34.449  -4.428 -12.793  0.00  0.00     0.196 C 
HETATM    9  O           1     -33.846  -3.790 -13.683  0.00  0.00    -0.646 OA
HETATM   10  O           1     -35.140  -5.424 -13.099  0.00  0.00    -0.646 OA
ENDBRANCH   6   8
ENDBRANCH   3   6
ENDBRANCH   1   2
BRANCH   1  11
HETATM   11  C           1     -37.057  -0.296 -11.493  0.00  0.00     0.224 C 
BRANCH  11  12
HETATM   12  O           1     -36.853  -1.059 -12.651  0.00  0.00    -0.287 OA
BRANCH  12  13
HETATM   13  P           1     -36.033  -0.338 -13.840  0.00  0.00     0.406 P 
HETATM   14  O           1     -35.118   0.674 -13.265  0.00  0.00    -0.624 OA
HETATM   15  O           1     -36.981   0.323 -14.764  0.00  0.00    -0.624 OA
BRANCH  13  16
HETATM   16  O           1     -35.174  -1.441 -14.648  0.00  0.00    -0.300 OA
HETATM   17  H           1     -34.969  -2.105 -14.013  0.00  0.00     0.223 HD
ENDBRANCH  13  16
ENDBRANCH  12  13
ENDBRANCH  11  12
ENDBRANCH   1  11
BRANCH   1  18
HETATM   18  N           1     -36.224  -0.124  -9.177  0.00  0.00    -0.064 N 
HETATM   19  H           1     -36.774  -0.356  -8.320  0.00  0.00     0.275 HD
HETATM   20  H           1     -35.203  -0.200  -8.967  0.00  0.00     0.275 HD
HETATM   21  H           1     -36.445   0.852  -9.478  0.00  0.00     0.275 HD
ENDBRANCH   1  18
TORSDOF 8
ENDMDL
MODEL 2
REMARK VINA RESULT:      -6.0      2.756      4.696
REMARK  8 active torsions:
REMARK  status: ('A' for Active; 'I' for Inactive)
REMARK    1  A    between atoms: C_2  and  C_3 
REMARK    2  A    between atoms: C_2  and  N_6 
REMARK       I    between atoms: N_6  and  C_7 
REMARK    3  A    between atoms: C_7  and  C_8 
REMARK    4  A    between atoms: C_8  and  C_9 
REMARK    5  A    between atoms: C_8  and  N_15 
REMARK    6  A    between atoms: C_9  and  O_10 
REMARK    7  A    between atoms: O_10  and  P_11 
REMARK    8  A    between atoms: P_11  and  O_12 
ROOT
HETATM    1  C           1     -35.964  -0.623 -11.425  0.00  0.00     0.298 C 
ENDROOT
BRANCH   1   2
HETATM    2  C           1     -36.585  -0.331 -12.769  0.00  0.00     0.251 C 
HETATM    3  N           1     -35.797   0.072 -13.814  0.00  0.00    -0.345 N 
HETATM    4  H           1     -34.798   0.173 -13.685  0.00  0.00     0.163 HD
HETATM    5  O           1     -37.777  -0.452 -12.924  0.00  0.00    -0.271 OA
BRANCH   3   6
HETATM    6  C           1     -36.393   0.353 -15.106  0.00  0.00     0.181 C 
HETATM    7  C           1     -35.824   1.654 -15.655  0.00  0.00     0.043 C 
BRANCH   6   8
HETATM    8  C           1     -36.081  -0.775 -16.059  0.00  0.00     0.196 C 
HETATM    9  O           1     -35.243  -1.647 -15.743  0.00  0.00    -0.646 OA
HETATM   10  O           1     -36.661  -0.838 -17.165  0.00  0.00    -0.646 OA
ENDBRANCH   6   8
ENDBRANCH   3   6
ENDBRANCH   1   2
BRANCH   1  11
HETATM   11  C           1     -34.878  -1.678 -11.586  0.00  0.00     0.224 C 
BRANCH  11  12
HETATM   12  O           1     -35.336  -2.696 -12.433  0.00  0.00    -0.287 OA
BRANCH  12  13
HETATM   13  P           1     -34.294  -3.893 -12.730  0.00  0.00     0.406 P 
HETATM   14  O           1     -34.863  -5.173 -12.251  0.00  0.00    -0.624 OA
HETATM   15  O           1     -33.020  -3.624 -12.027  0.00  0.00    -0.624 OA
BRANCH  13  16
HETATM   16  O           1     -34.022  -3.989 -14.319  0.00  0.00    -0.300 OA
HETATM   17  H           1     -34.466  -4.772 -14.596  0.00  0.00     0.223 HD
ENDBRANCH  13  16
ENDBRANCH  12  13
ENDBRANCH  11  12
ENDBRANCH   1  11
BRANCH   1  18
HETATM   18  N           1     -37.019  -1.130 -10.487  0.00  0.00    -0.064 N 
HETATM   19  H           1     -36.810  -0.803  -9.517  0.00  0.00     0.275 HD
HETATM   20  H           1     -37.953  -0.766 -10.783  0.00  0.00     0.275 HD
HETATM   21  H           1     -37.030  -2.175 -10.508  0.00  0.00     0.275 HD
ENDBRANCH   1  18
TORSDOF 8
ENDMDL
MODEL 3
REMARK VINA RESULT:      -5.9     12.090     13.323
REMARK  8 active torsions:
REMARK  status: ('A' for Active; 'I' for Inactive)
REMARK    1  A    between atoms: C_2  and  C_3 
REMARK    2  A    between atoms: C_2  and  N_6 
REMARK       I    between atoms: N_6  and  C_7 
REMARK    3  A    between atoms: C_7  and  C_8 
REMARK    4  A    between atoms: C_8  and  C_9 
REMARK    5  A    between atoms: C_8  and  N_15 
REMARK    6  A    between atoms: C_9  and  O_10 
REMARK    7  A    between atoms: O_10  and  P_11 
REMARK    8  A    between atoms: P_11  and  O_12 
ROOT
HETATM    1  C           1     -24.040  -4.355 -10.524  0.00  0.00     0.298 C 
ENDROOT
BRANCH   1   2
HETATM    2  C           1     -22.717  -4.519  -9.816  0.00  0.00     0.251 C 
HETATM    3  N           1     -22.685  -4.698  -8.459  0.00  0.00    -0.345 N 
HETATM    4  H           1     -23.548  -4.720  -7.931  0.00  0.00     0.163 HD
HETATM    5  O           1     -21.688  -4.493 -10.447  0.00  0.00    -0.271 OA
BRANCH   3   6
HETATM    6  C           1     -21.414  -4.855  -7.779  0.00  0.00     0.181 C 
HETATM    7  C           1     -20.982  -3.516  -7.195  0.00  0.00     0.043 C 
BRANCH   6   8
HETATM    8  C           1     -21.561  -5.866  -6.668  0.00  0.00     0.196 C 
HETATM    9  O           1     -22.362  -5.654  -5.732  0.00  0.00    -0.646 OA
HETATM   10  O           1     -20.881  -6.915  -6.684  0.00  0.00    -0.646 OA
ENDBRANCH   6   8
ENDBRANCH   3   6
ENDBRANCH   1   2
BRANCH   1  11
HETATM   11  C           1     -24.051  -3.034 -11.281  0.00  0.00     0.224 C 
BRANCH  11  12
HETATM   12  O           1     -24.566  -3.236 -12.568  0.00  0.00    -0.287 OA
BRANCH  12  13
HETATM   13  P           1     -23.538  -2.996 -13.789  0.00  0.00     0.406 P 
HETATM   14  O           1     -23.596  -1.579 -14.213  0.00  0.00    -0.624 OA
HETATM   15  O           1     -23.910  -3.868 -14.926  0.00  0.00    -0.624 OA
BRANCH  13  16
HETATM   16  O           1     -22.038  -3.352 -13.308  0.00  0.00    -0.300 OA
HETATM   17  H           1     -22.097  -3.445 -12.373  0.00  0.00     0.223 HD
ENDBRANCH  13  16
ENDBRANCH  12  13
ENDBRANCH  11  12
ENDBRANCH   1  11
BRANCH   1  18
HETATM   18  N           1     -25.150  -4.361  -9.515  0.00  0.00    -0.064 N 
HETATM   19  H           1     -25.181  -3.440  -9.024  0.00  0.00     0.275 HD
HETATM   20  H           1     -26.061  -4.526 -10.000  0.00  0.00     0.275 HD
HETATM   21  H           1     -24.984  -5.122  -8.818  0.00  0.00     0.275 HD
ENDBRANCH   1  18
TORSDOF 8
ENDMDL
MODEL 4
REMARK VINA RESULT:      -5.6      1.767      2.512
REMARK  8 active torsions:
REMARK  status: ('A' for Active; 'I' for Inactive)
REMARK    1  A    between atoms: C_2  and  C_3 
REMARK    2  A    between atoms: C_2  and  N_6 
REMARK       I    between atoms: N_6  and  C_7 
REMARK    3  A    between atoms: C_7  and  C_8 
REMARK    4  A    between atoms: C_8  and  C_9 
REMARK    5  A    between atoms: C_8  and  N_15 
REMARK    6  A    between atoms: C_9  and  O_10 
REMARK    7  A    between atoms: O_10  and  P_11 
REMARK    8  A    between atoms: P_11  and  O_12 
ROOT
HETATM    1  C           1     -36.321  -0.733 -12.201  0.00  0.00     0.298 C 
ENDROOT
BRANCH   1   2
HETATM    2  C           1     -35.361  -1.810 -12.644  0.00  0.00     0.251 C 
HETATM    3  N           1     -35.108  -2.879 -11.828  0.00  0.00    -0.345 N 
HETATM    4  H           1     -35.565  -2.948 -10.928  0.00  0.00     0.163 HD
HETATM    5  O           1     -34.816  -1.727 -13.719  0.00  0.00    -0.271 OA
BRANCH   3   6
HETATM    6  C           1     -34.185  -3.914 -12.254  0.00  0.00     0.181 C 
HETATM    7  C           1     -32.829  -3.684 -11.601  0.00  0.00     0.043 C 
BRANCH   6   8
HETATM    8  C           1     -34.720  -5.264 -11.843  0.00  0.00     0.196 C 
HETATM    9  O           1     -34.640  -5.632 -10.651  0.00  0.00    -0.646 OA
HETATM   10  O           1     -35.245  -6.014 -12.695  0.00  0.00    -0.646 OA
ENDBRANCH   6   8
ENDBRANCH   3   6
ENDBRANCH   1   2
BRANCH   1  11
HETATM   11  C           1     -36.474   0.300 -13.310  0.00  0.00     0.224 C 
BRANCH  11  12
HETATM   12  O           1     -37.546  -0.058 -14.138  0.00  0.00    -0.287 OA
BRANCH  12  13
HETATM   13  P           1     -37.350   0.229 -15.715  0.00  0.00     0.406 P 
HETATM   14  O           1     -37.952  -0.875 -16.496  0.00  0.00    -0.624 OA
HETATM   15  O           1     -35.906   0.323 -16.023  0.00  0.00    -0.624 OA
BRANCH  13  16
HETATM   16  O           1     -38.075   1.619 -16.104  0.00  0.00    -0.300 OA
HETATM   17  H           1     -38.020   2.149 -15.327  0.00  0.00     0.223 HD
ENDBRANCH  13  16
ENDBRANCH  12  13
ENDBRANCH  11  12
ENDBRANCH   1  11
BRANCH   1  18
HETATM   18  N           1     -35.788  -0.065 -10.968  0.00  0.00    -0.064 N 
HETATM   19  H           1     -35.716  -0.765 -10.195  0.00  0.00     0.275 HD
HETATM   20  H           1     -34.842   0.331 -11.167  0.00  0.00     0.275 HD
HETATM   21  H           1     -36.435   0.704 -10.681  0.00  0.00     0.275 HD
ENDBRANCH   1  18
TORSDOF 8
ENDMDL
MODEL 5
REMARK VINA RESULT:      -5.5     13.051     14.604
REMARK  8 active torsions:
REMARK  status: ('A' for Active; 'I' for Inactive)
REMARK    1  A    between atoms: C_2  and  C_3 
REMARK    2  A    between atoms: C_2  and  N_6 
REMARK       I    between atoms: N_6  and  C_7 
REMARK    3  A    between atoms: C_7  and  C_8 
REMARK    4  A    between atoms: C_8  and  C_9 
REMARK    5  A    between atoms: C_8  and  N_15 
REMARK    6  A    between atoms: C_9  and  O_10 
REMARK    7  A    between atoms: O_10  and  P_11 
REMARK    8  A    between atoms: P_11  and  O_12 
ROOT
HETATM    1  C           1     -21.109  -4.400 -10.803  0.00  0.00     0.298 C 
ENDROOT
BRANCH   1   2
HETATM    2  C           1     -22.329  -4.319 -11.687  0.00  0.00     0.251 C 
HETATM    3  N           1     -22.361  -3.430 -12.728  0.00  0.00    -0.345 N 
HETATM    4  H           1     -21.567  -2.828 -12.905  0.00  0.00     0.163 HD
HETATM    5  O           1     -23.277  -5.037 -11.477  0.00  0.00    -0.271 OA
BRANCH   3   6
HETATM    6  C           1     -23.534  -3.351 -13.578  0.00  0.00     0.181 C 
HETATM    7  C           1     -24.709  -2.814 -12.772  0.00  0.00     0.043 C 
BRANCH   6   8
HETATM    8  C           1     -23.253  -2.427 -14.737  0.00  0.00     0.196 C 
HETATM    9  O           1     -22.354  -2.709 -15.558  0.00  0.00    -0.646 OA
HETATM   10  O           1     -23.920  -1.378 -14.876  0.00  0.00    -0.646 OA
ENDBRANCH   6   8
ENDBRANCH   3   6
ENDBRANCH   1   2
BRANCH   1  11
HETATM   11  C           1     -21.491  -4.033  -9.375  0.00  0.00     0.224 C 
BRANCH  11  12
HETATM   12  O           1     -20.491  -4.469  -8.496  0.00  0.00    -0.287 OA
BRANCH  12  13
HETATM   13  P           1     -21.000  -5.089  -7.095  0.00  0.00     0.406 P 
HETATM   14  O           1     -20.887  -6.564  -7.138  0.00  0.00    -0.624 OA
HETATM   15  O           1     -22.412  -4.708  -6.870  0.00  0.00    -0.624 OA
BRANCH  13  16
HETATM   16  O           1     -20.089  -4.517  -5.890  0.00  0.00    -0.300 OA
HETATM   17  H           1     -20.251  -3.589  -5.881  0.00  0.00     0.223 HD
ENDBRANCH  13  16
ENDBRANCH  12  13
ENDBRANCH  11  12
ENDBRANCH   1  11
BRANCH   1  18
HETATM   18  N           1     -20.065  -3.445 -11.302  0.00  0.00    -0.064 N 
HETATM   19  H           1     -20.506  -2.519 -11.499  0.00  0.00     0.275 HD
HETATM   20  H           1     -19.323  -3.330 -10.576  0.00  0.00     0.275 HD
HETATM   21  H           1     -19.639  -3.821 -12.179  0.00  0.00     0.275 HD
ENDBRANCH   1  18
TORSDOF 8
ENDMDL
MODEL 6
REMARK VINA RESULT:      -5.4     12.338     13.575
REMARK  8 active torsions:
REMARK  status: ('A' for Active; 'I' for Inactive)
REMARK    1  A    between atoms: C_2  and  C_3 
REMARK    2  A    between atoms: C_2  and  N_6 
REMARK       I    between atoms: N_6  and  C_7 
REMARK    3  A    between atoms: C_7  and  C_8 
REMARK    4  A    between atoms: C_8  and  C_9 
REMARK    5  A    between atoms: C_8  and  N_15 
REMARK    6  A    between atoms: C_9  and  O_10 
REMARK    7  A    between atoms: O_10  and  P_11 
REMARK    8  A    between atoms: P_11  and  O_12 
ROOT
HETATM    1  C           1     -23.914  -4.420  -9.861  0.00  0.00     0.298 C 
ENDROOT
BRANCH   1   2
HETATM    2  C           1     -23.175  -4.488  -8.547  0.00  0.00     0.251 C 
HETATM    3  N           1     -21.868  -4.895  -8.518  0.00  0.00    -0.345 N 
HETATM    4  H           1     -21.398  -5.151  -9.377  0.00  0.00     0.163 HD
HETATM    5  O           1     -23.736  -4.184  -7.522  0.00  0.00    -0.271 OA
BRANCH   3   6
HETATM    6  C           1     -21.157  -4.961  -7.255  0.00  0.00     0.181 C 
HETATM    7  C           1     -21.059  -6.412  -6.804  0.00  0.00     0.043 C 
BRANCH   6   8
HETATM    8  C           1     -19.771  -4.392  -7.430  0.00  0.00     0.196 C 
HETATM    9  O           1     -19.518  -3.648  -8.402  0.00  0.00    -0.646 OA
HETATM   10  O           1     -18.874  -4.666  -6.602  0.00  0.00    -0.646 OA
ENDBRANCH   6   8
ENDBRANCH   3   6
ENDBRANCH   1   2
BRANCH   1  11
HETATM   11  C           1     -23.239  -3.403 -10.772  0.00  0.00     0.224 C 
BRANCH  11  12
HETATM   12  O           1     -24.196  -2.815 -11.609  0.00  0.00    -0.287 OA
BRANCH  12  13
HETATM   13  P           1     -23.893  -2.886 -13.193  0.00  0.00     0.406 P 
HETATM   14  O           1     -24.548  -4.082 -13.768  0.00  0.00    -0.624 OA
HETATM   15  O           1     -22.432  -2.969 -13.412  0.00  0.00    -0.624 OA
BRANCH  13  16
HETATM   16  O           1     -24.470  -1.560 -13.912  0.00  0.00    -0.300 OA
HETATM   17  H           1     -24.142  -0.841 -13.400  0.00  0.00     0.223 HD
ENDBRANCH  13  16
ENDBRANCH  12  13
ENDBRANCH  11  12
ENDBRANCH   1  11
BRANCH   1  18
HETATM   18  N           1     -25.334  -4.004  -9.615  0.00  0.00    -0.064 N 
HETATM   19  H           1     -25.892  -4.134 -10.488  0.00  0.00     0.275 HD
HETATM   20  H           1     -25.741  -4.590  -8.851  0.00  0.00     0.275 HD
HETATM   21  H           1     -25.358  -2.998  -9.333  0.00  0.00     0.275 HD
ENDBRANCH   1  18
TORSDOF 8
ENDMDL
MODEL 7
REMARK VINA RESULT:      -5.4      2.069      4.474
REMARK  8 active torsions:
REMARK  status: ('A' for Active; 'I' for Inactive)
REMARK    1  A    between atoms: C_2  and  C_3 
REMARK    2  A    between atoms: C_2  and  N_6 
REMARK       I    between atoms: N_6  and  C_7 
REMARK    3  A    between atoms: C_7  and  C_8 
REMARK    4  A    between atoms: C_8  and  C_9 
REMARK    5  A    between atoms: C_8  and  N_15 
REMARK    6  A    between atoms: C_9  and  O_10 
REMARK    7  A    between atoms: O_10  and  P_11 
REMARK    8  A    between atoms: P_11  and  O_12 
ROOT
HETATM    1  C           1     -34.076  -3.412 -11.387  0.00  0.00     0.298 C 
ENDROOT
BRANCH   1   2
HETATM    2  C           1     -34.676  -2.029 -11.449  0.00  0.00     0.251 C 
HETATM    3  N           1     -34.930  -1.448 -12.663  0.00  0.00    -0.345 N 
HETATM    4  H           1     -34.715  -1.946 -13.517  0.00  0.00     0.163 HD
HETATM    5  O           1     -34.932  -1.435 -10.430  0.00  0.00    -0.271 OA
BRANCH   3   6
HETATM    6  C           1     -35.507  -0.119 -12.723  0.00  0.00     0.181 C 
HETATM    7  C           1     -34.887   0.651 -13.882  0.00  0.00     0.043 C 
BRANCH   6   8
HETATM    8  C           1     -36.998  -0.228 -12.931  0.00  0.00     0.196 C 
HETATM    9  O           1     -37.784   0.200 -12.059  0.00  0.00    -0.646 OA
HETATM   10  O           1     -37.447  -0.746 -13.977  0.00  0.00    -0.646 OA
ENDBRANCH   6   8
ENDBRANCH   3   6
ENDBRANCH   1   2
BRANCH   1  11
HETATM   11  C           1     -33.523  -3.788 -12.755  0.00  0.00     0.224 C 
BRANCH  11  12
HETATM   12  O           1     -34.555  -4.302 -13.552  0.00  0.00    -0.287 OA
BRANCH  12  13
HETATM   13  P           1     -34.388  -4.098 -15.145  0.00  0.00     0.406 P 
HETATM   14  O           1     -32.959  -4.214 -15.511  0.00  0.00    -0.624 OA
HETATM   15  O           1     -34.889  -2.759 -15.527  0.00  0.00    -0.624 OA
BRANCH  13  16
HETATM   16  O           1     -35.235  -5.231 -15.925  0.00  0.00    -0.300 OA
HETATM   17  H           1     -36.096  -5.199 -15.544  0.00  0.00     0.223 HD
ENDBRANCH  13  16
ENDBRANCH  12  13
ENDBRANCH  11  12
ENDBRANCH   1  11
BRANCH   1  18
HETATM   18  N           1     -35.132  -4.399 -10.987  0.00  0.00    -0.064 N 
HETATM   19  H           1     -35.729  -4.625 -11.814  0.00  0.00     0.275 HD
HETATM   20  H           1     -34.679  -5.272 -10.636  0.00  0.00     0.275 HD
HETATM   21  H           1     -35.726  -3.986 -10.232  0.00  0.00     0.275 HD
ENDBRANCH   1  18
TORSDOF 8
ENDMDL
MODEL 8
REMARK VINA RESULT:      -5.2     13.301     14.901
REMARK  8 active torsions:
REMARK  status: ('A' for Active; 'I' for Inactive)
REMARK    1  A    between atoms: C_2  and  C_3 
REMARK    2  A    between atoms: C_2  and  N_6 
REMARK       I    between atoms: N_6  and  C_7 
REMARK    3  A    between atoms: C_7  and  C_8 
REMARK    4  A    between atoms: C_8  and  C_9 
REMARK    5  A    between atoms: C_8  and  N_15 
REMARK    6  A    between atoms: C_9  and  O_10 
REMARK    7  A    between atoms: O_10  and  P_11 
REMARK    8  A    between atoms: P_11  and  O_12 
ROOT
HETATM    1  C           1     -22.100  -4.257  -7.205  0.00  0.00     0.298 C 
ENDROOT
BRANCH   1   2
HETATM    2  C           1     -21.858  -3.883  -8.647  0.00  0.00     0.251 C 
HETATM    3  N           1     -22.917  -3.745  -9.505  0.00  0.00    -0.345 N 
HETATM    4  H           1     -23.860  -3.894  -9.172  0.00  0.00     0.163 HD
HETATM    5  O           1     -20.732  -3.706  -9.045  0.00  0.00    -0.271 OA
BRANCH   3   6
HETATM    6  C           1     -22.685  -3.386 -10.891  0.00  0.00     0.181 C 
HETATM    7  C           1     -22.019  -4.551 -11.612  0.00  0.00     0.043 C 
BRANCH   6   8
HETATM    8  C           1     -24.002  -3.069 -11.554  0.00  0.00     0.196 C 
HETATM    9  O           1     -24.030  -2.709 -12.751  0.00  0.00    -0.646 OA
HETATM   10  O           1     -25.068  -3.167 -10.906  0.00  0.00    -0.646 OA
ENDBRANCH   6   8
ENDBRANCH   3   6
ENDBRANCH   1   2
BRANCH   1  11
HETATM   11  C           1     -21.369  -5.556  -6.888  0.00  0.00     0.224 C 
BRANCH  11  12
HETATM   12  O           1     -20.836  -5.489  -5.594  0.00  0.00    -0.287 OA
BRANCH  12  13
HETATM   13  P           1     -21.576  -6.387  -4.476  0.00  0.00     0.406 P 
HETATM   14  O           1     -20.983  -7.743  -4.459  0.00  0.00    -0.624 OA
HETATM   15  O           1     -23.018  -6.483  -4.794  0.00  0.00    -0.624 OA
BRANCH  13  16
HETATM   16  O           1     -21.389  -5.703  -3.025  0.00  0.00    -0.300 OA
HETATM   17  H           1     -22.194  -5.876  -2.567  0.00  0.00     0.223 HD
ENDBRANCH  13  16
ENDBRANCH  12  13
ENDBRANCH  11  12
ENDBRANCH   1  11
BRANCH   1  18
HETATM   18  N           1     -23.570  -4.443  -6.977  0.00  0.00    -0.064 N 
HETATM   19  H           1     -23.892  -3.794  -6.225  0.00  0.00     0.275 HD
HETATM   20  H           1     -24.089  -4.236  -7.860  0.00  0.00     0.275 HD
HETATM   21  H           1     -23.756  -5.430  -6.687  0.00  0.00     0.275 HD
ENDBRANCH   1  18
TORSDOF 8
ENDMDL
MODEL 9
REMARK VINA RESULT:      -5.2     13.273     14.828
REMARK  8 active torsions:
REMARK  status: ('A' for Active; 'I' for Inactive)
REMARK    1  A    between atoms: C_2  and  C_3 
REMARK    2  A    between atoms: C_2  and  N_6 
REMARK       I    between atoms: N_6  and  C_7 
REMARK    3  A    between atoms: C_7  and  C_8 
REMARK    4  A    between atoms: C_8  and  C_9 
REMARK    5  A    between atoms: C_8  and  N_15 
REMARK    6  A    between atoms: C_9  and  O_10 
REMARK    7  A    between atoms: O_10  and  P_11 
REMARK    8  A    between atoms: P_11  and  O_12 
ROOT
HETATM    1  C           1     -20.593  -4.438  -8.344  0.00  0.00     0.298 C 
ENDROOT
BRANCH   1   2
HETATM    2  C           1     -21.224  -4.142  -9.683  0.00  0.00     0.251 C 
HETATM    3  N           1     -22.575  -4.287  -9.850  0.00  0.00    -0.345 N 
HETATM    4  H           1     -23.151  -4.593  -9.076  0.00  0.00     0.163 HD
HETATM    5  O           1     -20.537  -3.778 -10.607  0.00  0.00    -0.271 OA
BRANCH   3   6
HETATM    6  C           1     -23.181  -4.003 -11.137  0.00  0.00     0.181 C 
HETATM    7  C           1     -23.447  -5.310 -11.872  0.00  0.00     0.043 C 
BRANCH   6   8
HETATM    8  C           1     -24.482  -3.268 -10.927  0.00  0.00     0.196 C 
HETATM    9  O           1     -24.842  -2.951  -9.773  0.00  0.00    -0.646 OA
HETATM   10  O           1     -25.200  -2.977 -11.908  0.00  0.00    -0.646 OA
ENDBRANCH   6   8
ENDBRANCH   3   6
ENDBRANCH   1   2
BRANCH   1  11
HETATM   11  C           1     -21.494  -3.917  -7.232  0.00  0.00     0.224 C 
BRANCH  11  12
HETATM   12  O           1     -22.284  -4.965  -6.739  0.00  0.00    -0.287 OA
BRANCH  12  13
HETATM   13  P           1     -21.579  -5.934  -5.657  0.00  0.00     0.406 P 
HETATM   14  O           1     -20.434  -5.231  -5.037  0.00  0.00    -0.624 OA
HETATM   15  O           1     -21.101  -7.161  -6.331  0.00  0.00    -0.624 OA
BRANCH  13  16
HETATM   16  O           1     -22.648  -6.330  -4.512  0.00  0.00    -0.300 OA
HETATM   17  H           1     -23.489  -6.280  -4.935  0.00  0.00     0.223 HD
ENDBRANCH  13  16
ENDBRANCH  12  13
ENDBRANCH  11  12
ENDBRANCH   1  11
BRANCH   1  18
HETATM   18  N           1     -19.257  -3.763  -8.260  0.00  0.00    -0.064 N 
HETATM   19  H           1     -19.351  -2.764  -8.551  0.00  0.00     0.275 HD
HETATM   20  H           1     -18.904  -3.808  -7.278  0.00  0.00     0.275 HD
HETATM   21  H           1     -18.582  -4.247  -8.895  0.00  0.00     0.275 HD
ENDBRANCH   1  18
TORSDOF 8
ENDMDL
