MODEL 1
REMARK VINA RESULT:      -6.2      0.000      0.000
REMARK  5 active torsions:
REMARK  status: ('A' for Active; 'I' for Inactive)
REMARK    1  A    between atoms: C_1  and  C_7 
REMARK    2  A    between atoms: C_4  and  O_5 
REMARK    3  A    between atoms: C_4  and  C_7 
REMARK    4  A    between atoms: C_7  and  N_13 
REMARK       I    between atoms: N_13  and  C_15 
REMARK    5  A    between atoms: C_15  and  C_19 
ROOT
HETATM    1  H           1     -24.046  -2.846 -10.913  0.00  0.00     0.255 HD
HETATM    2  H           1     -24.726  -4.210 -12.484  0.00  0.00     0.274 HD
HETATM    3  H           1     -25.209  -3.780 -10.083  0.00  0.00     0.275 HD
HETATM    4  H           1     -23.232  -4.906 -12.930  0.00  0.00     0.254 HD
HETATM    5  H           1     -24.871  -4.100 -11.724  0.00  0.00     0.275 HD
HETATM    6  C           1     -21.697  -3.407 -11.613  0.00  0.00     0.004 C 
HETATM    7  C           1     -22.300  -4.798 -11.464  0.00  0.00     0.062 C 
HETATM    8  C           1     -23.391  -4.768 -10.402  0.00  0.00     0.274 C 
HETATM    9  C           1     -22.783  -2.424 -12.029  0.00  0.00     0.047 C 
HETATM   10  N           1     -24.460  -3.799 -10.812  0.00  0.00    -0.067 N 
HETATM   11  N           1     -23.978  -4.232 -13.214  0.00  0.00    -0.080 N 
HETATM   12  C           1     -23.383  -2.862 -13.359  0.00  0.00     0.229 C 
HETATM   13  H           1     -24.389  -4.532 -14.126  0.00  0.00     0.274 HD
ENDROOT
BRANCH   8  14
HETATM   14  C           1     -22.798  -4.333  -9.083  0.00  0.00     0.249 C 
HETATM   15  N           1     -21.857  -5.112  -8.467  0.00  0.00    -0.343 N 
HETATM   16  H           1     -21.557  -5.979  -8.896  0.00  0.00     0.163 HD
HETATM   17  O           1     -23.156  -3.300  -8.572  0.00  0.00    -0.271 OA
BRANCH  15  18
HETATM   18  C           1     -21.288  -4.695  -7.200  0.00  0.00     0.214 C 
BRANCH  18  19
HETATM   19  C           1     -19.850  -4.286  -7.406  0.00  0.00     0.199 C 
HETATM   20  O           1     -19.541  -3.546  -8.364  0.00  0.00    -0.646 OA
HETATM   21  O           1     -18.967  -4.688  -6.616  0.00  0.00    -0.646 OA
ENDBRANCH  18  19
BRANCH  18  22
HETATM   22  C           1     -21.351  -5.853  -6.211  0.00  0.00     0.147 C 
HETATM   23  C           1     -22.778  -6.007  -5.702  0.00  0.00     0.042 C 
BRANCH  22  24
HETATM   24  O           1     -20.951  -7.035  -6.849  0.00  0.00    -0.393 OA
HETATM   25  H           1     -20.907  -7.702  -6.186  0.00  0.00     0.210 HD
ENDBRANCH  22  24
ENDBRANCH  18  22
ENDBRANCH  15  18
ENDBRANCH   8  14
TORSDOF 5
ENDMDL
MODEL 2
REMARK VINA RESULT:      -6.1     13.208     15.138
REMARK  5 active torsions:
REMARK  status: ('A' for Active; 'I' for Inactive)
REMARK    1  A    between atoms: C_1  and  C_7 
REMARK    2  A    between atoms: C_4  and  O_5 
REMARK    3  A    between atoms: C_4  and  C_7 
REMARK    4  A    between atoms: C_7  and  N_13 
REMARK       I    between atoms: N_13  and  C_15 
REMARK    5  A    between atoms: C_15  and  C_19 
ROOT
HETATM    1  H           1     -35.947  -3.835 -11.361  0.00  0.00     0.255 HD
HETATM    2  H           1     -34.275  -4.016  -9.960  0.00  0.00     0.274 HD
HETATM    3  H           1     -36.300  -2.600 -10.238  0.00  0.00     0.275 HD
HETATM    4  H           1     -32.969  -3.836 -11.044  0.00  0.00     0.254 HD
HETATM    5  H           1     -34.896  -3.550 -10.048  0.00  0.00     0.275 HD
HETATM    6  C           1     -34.246  -3.925 -13.211  0.00  0.00     0.004 C 
HETATM    7  C           1     -33.645  -2.853 -12.310  0.00  0.00     0.062 C 
HETATM    8  C           1     -34.761  -2.123 -11.575  0.00  0.00     0.274 C 
HETATM    9  C           1     -35.031  -4.918 -12.365  0.00  0.00     0.047 C 
HETATM   10  N           1     -35.535  -3.101 -10.743  0.00  0.00    -0.067 N 
HETATM   11  N           1     -33.508  -4.517 -10.464  0.00  0.00    -0.080 N 
HETATM   12  C           1     -34.100  -5.570 -11.352  0.00  0.00     0.229 C 
HETATM   13  H           1     -32.869  -4.965  -9.769  0.00  0.00     0.274 HD
ENDROOT
BRANCH   8  14
HETATM   14  C           1     -35.685  -1.475 -12.579  0.00  0.00     0.249 C 
HETATM   15  N           1     -35.204  -1.085 -13.799  0.00  0.00    -0.343 N 
HETATM   16  H           1     -34.229  -1.231 -14.029  0.00  0.00     0.163 HD
HETATM   17  O           1     -36.848  -1.300 -12.303  0.00  0.00    -0.271 OA
BRANCH  15  18
HETATM   18  C           1     -36.092  -0.463 -14.762  0.00  0.00     0.214 C 
BRANCH  18  19
HETATM   19  C           1     -35.753  -0.954 -16.148  0.00  0.00     0.199 C 
HETATM   20  O           1     -34.615  -1.413 -16.388  0.00  0.00    -0.646 OA
HETATM   21  O           1     -36.610  -0.902 -17.057  0.00  0.00    -0.646 OA
ENDBRANCH  18  19
BRANCH  18  22
HETATM   22  C           1     -35.922   1.050 -14.703  0.00  0.00     0.147 C 
HETATM   23  C           1     -34.568   1.385 -14.092  0.00  0.00     0.042 C 
BRANCH  22  24
HETATM   24  O           1     -35.995   1.579 -15.999  0.00  0.00    -0.393 OA
HETATM   25  H           1     -35.780   2.494 -15.934  0.00  0.00     0.210 HD
ENDBRANCH  22  24
ENDBRANCH  18  22
ENDBRANCH  15  18
ENDBRANCH   8  14
TORSDOF 5
ENDMDL
MODEL 3
REMARK VINA RESULT:      -5.9     12.245     14.625
REMARK  5 active torsions:
REMARK  status: ('A' for Active; 'I' for Inactive)
REMARK    1  A    between atoms: C_1  and  C_7 
REMARK    2  A    between atoms: C_4  and  O_5 
REMARK    3  A    between atoms: C_4  and  C_7 
REMARK    4  A    between atoms: C_7  and  N_13 
REMARK       I    between atoms: N_13  and  C_15 
REMARK    5  A    between atoms: C_15  and  C_19 
ROOT
HETATM    1  H           1     -33.180  -3.916 -10.456  0.00  0.00     0.255 HD
HETATM    2  H           1     -32.602  -5.639 -11.675  0.00  0.00     0.274 HD
HETATM    3  H           1     -31.940  -3.256 -11.425  0.00  0.00     0.275 HD
HETATM    4  H           1     -34.114  -6.024 -12.368  0.00  0.00     0.254 HD
HETATM    5  H           1     -32.400  -4.887 -11.621  0.00  0.00     0.275 HD
HETATM    6  C           1     -35.567  -4.477 -11.014  0.00  0.00     0.004 C 
HETATM    7  C           1     -34.930  -4.488 -12.399  0.00  0.00     0.062 C 
HETATM    8  C           1     -33.760  -3.513 -12.427  0.00  0.00     0.274 C 
HETATM    9  C           1     -34.534  -4.894  -9.977  0.00  0.00     0.047 C 
HETATM   10  N           1     -32.743  -3.924 -11.404  0.00  0.00    -0.067 N 
HETATM   11  N           1     -33.404  -6.309 -11.656  0.00  0.00    -0.080 N 
HETATM   12  C           1     -34.033  -6.297 -10.294  0.00  0.00     0.229 C 
HETATM   13  H           1     -33.061  -7.271 -11.873  0.00  0.00     0.274 HD
ENDROOT
BRANCH   8  14
HETATM   14  C           1     -34.256  -2.122 -12.113  0.00  0.00     0.249 C 
HETATM   15  N           1     -35.248  -1.562 -12.871  0.00  0.00    -0.343 N 
HETATM   16  H           1     -35.650  -2.080 -13.642  0.00  0.00     0.163 HD
HETATM   17  O           1     -33.775  -1.504 -11.193  0.00  0.00    -0.271 OA
BRANCH  15  18
HETATM   18  C           1     -35.723  -0.226 -12.569  0.00  0.00     0.214 C 
BRANCH  18  19
HETATM   19  C           1     -36.734  -0.293 -11.451  0.00  0.00     0.199 C 
HETATM   20  O           1     -37.742  -1.023 -11.563  0.00  0.00    -0.646 OA
HETATM   21  O           1     -36.565   0.384 -10.413  0.00  0.00    -0.646 OA
ENDBRANCH  18  19
BRANCH  18  22
HETATM   22  C           1     -36.375   0.372 -13.810  0.00  0.00     0.147 C 
HETATM   23  C           1     -35.296   0.895 -14.748  0.00  0.00     0.042 C 
BRANCH  22  24
HETATM   24  O           1     -37.126  -0.614 -14.464  0.00  0.00    -0.393 OA
HETATM   25  H           1     -36.555  -1.353 -14.590  0.00  0.00     0.210 HD
ENDBRANCH  22  24
ENDBRANCH  18  22
ENDBRANCH  15  18
ENDBRANCH   8  14
TORSDOF 5
ENDMDL
MODEL 4
REMARK VINA RESULT:      -5.8      2.188      6.177
REMARK  5 active torsions:
REMARK  status: ('A' for Active; 'I' for Inactive)
REMARK    1  A    between atoms: C_1  and  C_7 
REMARK    2  A    between atoms: C_4  and  O_5 
REMARK    3  A    between atoms: C_4  and  C_7 
REMARK    4  A    between atoms: C_7  and  N_13 
REMARK       I    between atoms: N_13  and  C_15 
REMARK    5  A    between atoms: C_15  and  C_19 
ROOT
HETATM    1  H           1     -20.242  -5.065  -5.293  0.00  0.00     0.255 HD
HETATM    2  H           1     -19.294  -7.037  -5.315  0.00  0.00     0.274 HD
HETATM    3  H           1     -18.961  -4.822  -6.394  0.00  0.00     0.275 HD
HETATM    4  H           1     -20.633  -7.997  -5.762  0.00  0.00     0.254 HD
HETATM    5  H           1     -19.192  -6.352  -5.677  0.00  0.00     0.275 HD
HETATM    6  C           1     -22.440  -6.253  -5.580  0.00  0.00     0.004 C 
HETATM    7  C           1     -21.611  -6.894  -6.687  0.00  0.00     0.062 C 
HETATM    8  C           1     -20.573  -5.898  -7.185  0.00  0.00     0.274 C 
HETATM    9  C           1     -21.527  -5.854  -4.429  0.00  0.00     0.047 C 
HETATM   10  N           1     -19.674  -5.504  -6.051  0.00  0.00    -0.067 N 
HETATM   11  N           1     -20.006  -7.721  -4.973  0.00  0.00    -0.080 N 
HETATM   12  C           1     -20.823  -7.090  -3.885  0.00  0.00     0.229 C 
HETATM   13  H           1     -19.524  -8.570  -4.600  0.00  0.00     0.274 HD
ENDROOT
BRANCH   8  14
HETATM   14  C           1     -21.269  -4.672  -7.724  0.00  0.00     0.249 C 
HETATM   15  N           1     -21.973  -4.745  -8.895  0.00  0.00    -0.343 N 
HETATM   16  H           1     -22.028  -5.621  -9.400  0.00  0.00     0.163 HD
HETATM   17  O           1     -21.203  -3.627  -7.123  0.00  0.00    -0.271 OA
BRANCH  15  18
HETATM   18  C           1     -22.641  -3.567  -9.413  0.00  0.00     0.214 C 
BRANCH  18  19
HETATM   19  C           1     -24.109  -3.863  -9.600  0.00  0.00     0.199 C 
HETATM   20  O           1     -24.481  -5.017  -9.901  0.00  0.00    -0.646 OA
HETATM   21  O           1     -24.954  -2.952  -9.453  0.00  0.00    -0.646 OA
ENDBRANCH  18  19
BRANCH  18  22
HETATM   22  C           1     -22.026  -3.183 -10.754  0.00  0.00     0.147 C 
HETATM   23  C           1     -21.147  -4.323 -11.253  0.00  0.00     0.042 C 
BRANCH  22  24
HETATM   24  O           1     -23.046  -2.937 -11.683  0.00  0.00    -0.393 OA
HETATM   25  H           1     -23.339  -3.776 -11.996  0.00  0.00     0.210 HD
ENDBRANCH  22  24
ENDBRANCH  18  22
ENDBRANCH  15  18
ENDBRANCH   8  14
TORSDOF 5
ENDMDL
MODEL 5
REMARK VINA RESULT:      -5.8      2.365      5.711
REMARK  5 active torsions:
REMARK  status: ('A' for Active; 'I' for Inactive)
REMARK    1  A    between atoms: C_1  and  C_7 
REMARK    2  A    between atoms: C_4  and  O_5 
REMARK    3  A    between atoms: C_4  and  C_7 
REMARK    4  A    between atoms: C_7  and  N_13 
REMARK       I    between atoms: N_13  and  C_15 
REMARK    5  A    between atoms: C_15  and  C_19 
ROOT
HETATM    1  H           1     -21.916  -4.632  -7.208  0.00  0.00     0.255 HD
HETATM    2  H           1     -20.816  -3.646  -5.593  0.00  0.00     0.274 HD
HETATM    3  H           1     -22.042  -2.990  -7.654  0.00  0.00     0.275 HD
HETATM    4  H           1     -19.319  -4.454  -5.727  0.00  0.00     0.254 HD
HETATM    5  H           1     -21.180  -3.429  -6.249  0.00  0.00     0.275 HD
HETATM    6  C           1     -19.981  -6.229  -7.385  0.00  0.00     0.004 C 
HETATM    7  C           1     -19.259  -4.887  -7.411  0.00  0.00     0.062 C 
HETATM    8  C           1     -20.166  -3.835  -8.036  0.00  0.00     0.274 C 
HETATM    9  C           1     -21.256  -6.104  -6.561  0.00  0.00     0.047 C 
HETATM   10  N           1     -21.422  -3.713  -7.226  0.00  0.00    -0.067 N 
HETATM   11  N           1     -20.194  -4.368  -5.164  0.00  0.00    -0.080 N 
HETATM   12  C           1     -20.903  -5.689  -5.139  0.00  0.00     0.229 C 
HETATM   13  H           1     -19.952  -4.083  -4.187  0.00  0.00     0.274 HD
ENDROOT
BRANCH   8  14
HETATM   14  C           1     -20.516  -4.246  -9.447  0.00  0.00     0.249 C 
HETATM   15  N           1     -21.746  -3.939  -9.962  0.00  0.00    -0.343 N 
HETATM   16  H           1     -22.421  -3.437  -9.398  0.00  0.00     0.163 HD
HETATM   17  O           1     -19.711  -4.845 -10.118  0.00  0.00    -0.271 OA
BRANCH  15  18
HETATM   18  C           1     -22.083  -4.334 -11.316  0.00  0.00     0.214 C 
BRANCH  18  19
HETATM   19  C           1     -22.285  -3.101 -12.163  0.00  0.00     0.199 C 
HETATM   20  O           1     -22.495  -1.996 -11.618  0.00  0.00    -0.646 OA
HETATM   21  O           1     -22.244  -3.185 -13.410  0.00  0.00    -0.646 OA
ENDBRANCH  18  19
BRANCH  18  22
HETATM   22  C           1     -23.365  -5.156 -11.300  0.00  0.00     0.147 C 
HETATM   23  C           1     -24.267  -4.668 -10.174  0.00  0.00     0.042 C 
BRANCH  22  24
HETATM   24  O           1     -24.028  -5.011 -12.527  0.00  0.00    -0.393 OA
HETATM   25  H           1     -24.042  -4.090 -12.723  0.00  0.00     0.210 HD
ENDBRANCH  22  24
ENDBRANCH  18  22
ENDBRANCH  15  18
ENDBRANCH   8  14
TORSDOF 5
ENDMDL
MODEL 6
REMARK VINA RESULT:      -5.6      1.666      2.390
REMARK  5 active torsions:
REMARK  status: ('A' for Active; 'I' for Inactive)
REMARK    1  A    between atoms: C_1  and  C_7 
REMARK    2  A    between atoms: C_4  and  O_5 
REMARK    3  A    between atoms: C_4  and  C_7 
REMARK    4  A    between atoms: C_7  and  N_13 
REMARK       I    between atoms: N_13  and  C_15 
REMARK    5  A    between atoms: C_15  and  C_19 
ROOT
HETATM    1  H           1     -23.619  -4.633 -12.095  0.00  0.00     0.255 HD
HETATM    2  H           1     -22.431  -4.112 -13.858  0.00  0.00     0.274 HD
HETATM    3  H           1     -22.692  -6.048 -12.321  0.00  0.00     0.275 HD
HETATM    4  H           1     -21.685  -2.684 -13.292  0.00  0.00     0.254 HD
HETATM    5  H           1     -22.488  -4.718 -13.369  0.00  0.00     0.275 HD
HETATM    6  C           1     -22.977  -2.392 -11.151  0.00  0.00     0.004 C 
HETATM    7  C           1     -21.616  -2.936 -11.572  0.00  0.00     0.062 C 
HETATM    8  C           1     -21.626  -4.455 -11.479  0.00  0.00     0.274 C 
HETATM    9  C           1     -24.053  -2.951 -12.072  0.00  0.00     0.047 C 
HETATM   10  N           1     -22.687  -5.005 -12.384  0.00  0.00    -0.067 N 
HETATM   11  N           1     -22.424  -3.069 -13.923  0.00  0.00    -0.080 N 
HETATM   12  C           1     -23.762  -2.533 -13.507  0.00  0.00     0.229 C 
HETATM   13  H           1     -22.225  -2.782 -14.908  0.00  0.00     0.274 HD
ENDROOT
BRANCH   8  14
HETATM   14  C           1     -21.915  -4.871 -10.056  0.00  0.00     0.249 C 
HETATM   15  N           1     -20.911  -4.869  -9.126  0.00  0.00    -0.343 N 
HETATM   16  H           1     -19.975  -4.590  -9.392  0.00  0.00     0.163 HD
HETATM   17  O           1     -23.031  -5.205  -9.739  0.00  0.00    -0.271 OA
BRANCH  15  18
HETATM   18  C           1     -21.188  -5.269  -7.760  0.00  0.00     0.214 C 
BRANCH  18  19
HETATM   19  C           1     -22.050  -4.223  -7.096  0.00  0.00     0.199 C 
HETATM   20  O           1     -23.116  -4.556  -6.535  0.00  0.00    -0.646 OA
HETATM   21  O           1     -21.698  -3.023  -7.107  0.00  0.00    -0.646 OA
ENDBRANCH  18  19
BRANCH  18  22
HETATM   22  C           1     -19.876  -5.406  -6.996  0.00  0.00     0.147 C 
HETATM   23  C           1     -18.824  -4.506  -7.630  0.00  0.00     0.042 C 
BRANCH  22  24
HETATM   24  O           1     -20.072  -5.029  -5.661  0.00  0.00    -0.393 OA
HETATM   25  H           1     -19.626  -5.665  -5.128  0.00  0.00     0.210 HD
ENDBRANCH  22  24
ENDBRANCH  18  22
ENDBRANCH  15  18
ENDBRANCH   8  14
TORSDOF 5
ENDMDL
MODEL 7
REMARK VINA RESULT:      -5.5      1.702      2.877
REMARK  5 active torsions:
REMARK  status: ('A' for Active; 'I' for Inactive)
REMARK    1  A    between atoms: C_1  and  C_7 
REMARK    2  A    between atoms: C_4  and  O_5 
REMARK    3  A    between atoms: C_4  and  C_7 
REMARK    4  A    between atoms: C_7  and  N_13 
REMARK       I    between atoms: N_13  and  C_15 
REMARK    5  A    between atoms: C_15  and  C_19 
ROOT
HETATM    1  H           1     -21.722  -4.428 -12.137  0.00  0.00     0.255 HD
HETATM    2  H           1     -22.465  -2.409 -12.539  0.00  0.00     0.274 HD
HETATM    3  H           1     -20.288  -3.507 -12.054  0.00  0.00     0.275 HD
HETATM    4  H           1     -23.636  -2.280 -11.304  0.00  0.00     0.254 HD
HETATM    5  H           1     -21.778  -2.739 -12.366  0.00  0.00     0.275 HD
HETATM    6  C           1     -23.611  -4.664 -10.494  0.00  0.00     0.004 C 
HETATM    7  C           1     -23.011  -3.330 -10.065  0.00  0.00     0.062 C 
HETATM    8  C           1     -21.520  -3.322 -10.371  0.00  0.00     0.274 C 
HETATM    9  C           1     -23.399  -4.858 -11.989  0.00  0.00     0.047 C 
HETATM   10  N           1     -21.311  -3.514 -11.844  0.00  0.00    -0.067 N 
HETATM   11  N           1     -23.489  -2.414 -12.329  0.00  0.00    -0.080 N 
HETATM   12  C           1     -24.079  -3.727 -12.750  0.00  0.00     0.229 C 
HETATM   13  H           1     -23.956  -1.639 -12.851  0.00  0.00     0.274 HD
ENDROOT
BRANCH   8  14
HETATM   14  C           1     -20.844  -4.442  -9.618  0.00  0.00     0.249 C 
HETATM   15  N           1     -21.000  -4.546  -8.262  0.00  0.00    -0.343 N 
HETATM   16  H           1     -21.569  -3.872  -7.765  0.00  0.00     0.163 HD
HETATM   17  O           1     -20.165  -5.246 -10.212  0.00  0.00    -0.271 OA
BRANCH  15  18
HETATM   18  C           1     -20.351  -5.622  -7.539  0.00  0.00     0.214 C 
BRANCH  18  19
HETATM   19  C           1     -21.359  -6.312  -6.653  0.00  0.00     0.199 C 
HETATM   20  O           1     -22.299  -5.660  -6.150  0.00  0.00    -0.646 OA
HETATM   21  O           1     -21.255  -7.537  -6.423  0.00  0.00    -0.646 OA
ENDBRANCH  18  19
BRANCH  18  22
HETATM   22  C           1     -19.228  -5.051  -6.681  0.00  0.00     0.147 C 
HETATM   23  C           1     -18.460  -4.007  -7.482  0.00  0.00     0.042 C 
BRANCH  22  24
HETATM   24  O           1     -19.772  -4.455  -5.536  0.00  0.00    -0.393 OA
HETATM   25  H           1     -19.460  -3.567  -5.514  0.00  0.00     0.210 HD
ENDBRANCH  22  24
ENDBRANCH  18  22
ENDBRANCH  15  18
ENDBRANCH   8  14
TORSDOF 5
ENDMDL
MODEL 8
REMARK VINA RESULT:      -5.2      6.454      9.637
REMARK  5 active torsions:
REMARK  status: ('A' for Active; 'I' for Inactive)
REMARK    1  A    between atoms: C_1  and  C_7 
REMARK    2  A    between atoms: C_4  and  O_5 
REMARK    3  A    between atoms: C_4  and  C_7 
REMARK    4  A    between atoms: C_7  and  N_13 
REMARK       I    between atoms: N_13  and  C_15 
REMARK    5  A    between atoms: C_15  and  C_19 
ROOT
HETATM    1  H           1     -20.185  -9.007  -0.912  0.00  0.00     0.255 HD
HETATM    2  H           1     -19.826 -10.764   0.343  0.00  0.00     0.274 HD
HETATM    3  H           1     -19.274 -10.001  -1.958  0.00  0.00     0.275 HD
HETATM    4  H           1     -21.436 -11.179   0.727  0.00  0.00     0.254 HD
HETATM    5  H           1     -19.664 -10.545  -0.390  0.00  0.00     0.275 HD
HETATM    6  C           1     -22.596  -9.150  -0.209  0.00  0.00     0.004 C 
HETATM    7  C           1     -22.329 -10.587  -0.643  0.00  0.00     0.062 C 
HETATM    8  C           1     -21.268 -10.598  -1.735  0.00  0.00     0.274 C 
HETATM    9  C           1     -21.310  -8.535   0.326  0.00  0.00     0.047 C 
HETATM   10  N           1     -20.002  -9.991  -1.209  0.00  0.00    -0.067 N 
HETATM   11  N           1     -20.554 -10.756   1.093  0.00  0.00    -0.080 N 
HETATM   12  C           1     -20.818  -9.343   1.519  0.00  0.00     0.229 C 
HETATM   13  H           1     -20.216 -11.310   1.912  0.00  0.00     0.274 HD
ENDROOT
BRANCH   8  14
HETATM   14  C           1     -21.755  -9.797  -2.919  0.00  0.00     0.249 C 
HETATM   15  N           1     -21.239  -8.554  -3.163  0.00  0.00    -0.343 N 
HETATM   16  H           1     -20.530  -8.171  -2.549  0.00  0.00     0.163 HD
HETATM   17  O           1     -22.601 -10.254  -3.650  0.00  0.00    -0.271 OA
BRANCH  15  18
HETATM   18  C           1     -21.707  -7.785  -4.299  0.00  0.00     0.214 C 
BRANCH  18  19
HETATM   19  C           1     -20.668  -7.822  -5.393  0.00  0.00     0.199 C 
HETATM   20  O           1     -20.958  -7.429  -6.544  0.00  0.00    -0.646 OA
HETATM   21  O           1     -19.518  -8.247  -5.149  0.00  0.00    -0.646 OA
ENDBRANCH  18  19
BRANCH  18  22
HETATM   22  C           1     -21.943  -6.341  -3.871  0.00  0.00     0.147 C 
HETATM   23  C           1     -21.903  -6.250  -2.352  0.00  0.00     0.042 C 
BRANCH  22  24
HETATM   24  O           1     -20.944  -5.523  -4.416  0.00  0.00    -0.393 OA
HETATM   25  H           1     -20.646  -5.944  -5.205  0.00  0.00     0.210 HD
ENDBRANCH  22  24
ENDBRANCH  18  22
ENDBRANCH  15  18
ENDBRANCH   8  14
TORSDOF 5
ENDMDL
MODEL 9
REMARK VINA RESULT:      -5.0      7.088     10.469
REMARK  5 active torsions:
REMARK  status: ('A' for Active; 'I' for Inactive)
REMARK    1  A    between atoms: C_1  and  C_7 
REMARK    2  A    between atoms: C_4  and  O_5 
REMARK    3  A    between atoms: C_4  and  C_7 
REMARK    4  A    between atoms: C_7  and  N_13 
REMARK       I    between atoms: N_13  and  C_15 
REMARK    5  A    between atoms: C_15  and  C_19 
ROOT
HETATM    1  H           1     -21.322 -12.322  -0.478  0.00  0.00     0.255 HD
HETATM    2  H           1     -22.548 -13.888  -1.392  0.00  0.00     0.274 HD
HETATM    3  H           1     -20.423 -12.693  -1.881  0.00  0.00     0.275 HD
HETATM    4  H           1     -24.031 -13.054  -1.524  0.00  0.00     0.254 HD
HETATM    5  H           1     -21.890 -13.505  -1.568  0.00  0.00     0.275 HD
HETATM    6  C           1     -23.442 -10.997  -0.198  0.00  0.00     0.004 C 
HETATM    7  C           1     -23.533 -11.394  -1.667  0.00  0.00     0.062 C 
HETATM    8  C           1     -22.130 -11.537  -2.243  0.00  0.00     0.274 C 
HETATM    9  C           1     -22.684 -12.071   0.571  0.00  0.00     0.047 C 
HETATM   10  N           1     -21.385 -12.594  -1.484  0.00  0.00    -0.067 N 
HETATM   11  N           1     -23.510 -13.791  -0.997  0.00  0.00    -0.080 N 
HETATM   12  C           1     -23.421 -13.399   0.448  0.00  0.00     0.229 C 
HETATM   13  H           1     -24.015 -14.701  -1.080  0.00  0.00     0.274 HD
ENDROOT
BRANCH   8  14
HETATM   14  C           1     -21.399 -10.221  -2.122  0.00  0.00     0.249 C 
HETATM   15  N           1     -21.870  -9.115  -2.775  0.00  0.00    -0.343 N 
HETATM   16  H           1     -22.709  -9.178  -3.338  0.00  0.00     0.163 HD
HETATM   17  O           1     -20.399 -10.146  -1.450  0.00  0.00    -0.271 OA
BRANCH  15  18
HETATM   18  C           1     -21.168  -7.851  -2.659  0.00  0.00     0.214 C 
BRANCH  18  19
HETATM   19  C           1     -21.991  -6.893  -1.835  0.00  0.00     0.199 C 
HETATM   20  O           1     -22.357  -7.213  -0.683  0.00  0.00    -0.646 OA
HETATM   21  O           1     -22.307  -5.777  -2.303  0.00  0.00    -0.646 OA
ENDBRANCH  18  19
BRANCH  18  22
HETATM   22  C           1     -20.945  -7.266  -4.048  0.00  0.00     0.147 C 
HETATM   23  C           1     -19.934  -8.120  -4.801  0.00  0.00     0.042 C 
BRANCH  22  24
HETATM   24  O           1     -22.159  -7.251  -4.748  0.00  0.00    -0.393 OA
HETATM   25  H           1     -22.055  -6.647  -5.463  0.00  0.00     0.210 HD
ENDBRANCH  22  24
ENDBRANCH  18  22
ENDBRANCH  15  18
ENDBRANCH   8  14
TORSDOF 5
ENDMDL
