MODEL 1
REMARK VINA RESULT:      -6.1      0.000      0.000
REMARK  8 active torsions:
REMARK  status: ('A' for Active; 'I' for Inactive)
REMARK    1  A    between atoms: C_4  and  C_9 
REMARK    2  A    between atoms: C_5  and  N_17 
REMARK    3  A    between atoms: C_5  and  C_6 
REMARK    4  A    between atoms: C_6  and  C_22 
REMARK       I    between atoms: C_9  and  N_25 
REMARK    5  A    between atoms: C_21  and  C_22 
REMARK    6  A    between atoms: C_21  and  C_29 
REMARK    7  A    between atoms: N_25  and  C_29 
REMARK    8  A    between atoms: C_28  and  C_29 
ROOT
HETATM    1  C           1     -21.606  -3.905  -7.337  0.00  0.00     0.249 C 
HETATM    2  H           1     -23.277  -5.081  -7.670  0.00  0.00     0.163 HD
HETATM    3  O           1     -20.886  -3.053  -7.802  0.00  0.00    -0.271 OA
HETATM    4  N           1     -22.673  -4.367  -8.059  0.00  0.00    -0.345 N 
ENDROOT
BRANCH   1   5
HETATM    5  C           1     -21.328  -4.459  -5.962  0.00  0.00     0.274 C 
HETATM    6  C           1     -19.873  -4.902  -5.876  0.00  0.00     0.042 C 
HETATM    7  C           1     -19.608  -5.979  -6.920  0.00  0.00     0.004 C 
HETATM    8  C           1     -19.151  -7.257  -6.227  0.00  0.00     0.027 C 
HETATM    9  C           1     -20.238  -7.733  -5.271  0.00  0.00     0.229 C 
HETATM   10  N           1     -21.497  -8.005  -6.041  0.00  0.00    -0.079 N 
HETATM   11  H           1     -22.242  -8.331  -5.385  0.00  0.00     0.274 HD
HETATM   12  H           1     -21.810  -7.127  -6.515  0.00  0.00     0.274 HD
HETATM   13  H           1     -21.315  -8.743  -6.757  0.00  0.00     0.274 HD
HETATM   14  H           1     -22.041  -6.373  -6.424  0.00  0.00     0.275 HD
HETATM   15  N           1     -22.224  -5.635  -5.707  0.00  0.00    -0.067 N 
HETATM   16  H           1     -22.031  -6.019  -4.754  0.00  0.00     0.275 HD
HETATM   17  H           1     -23.221  -5.331  -5.764  0.00  0.00     0.275 HD
ENDBRANCH   1   5
BRANCH   4  18
HETATM   18  C           1     -22.940  -3.835  -9.381  0.00  0.00     0.185 C 
BRANCH  18  19
HETATM   19  C           1     -22.245  -4.698 -10.425  0.00  0.00     0.036 C 
BRANCH  19  20
HETATM   20  C           1     -21.202  -3.866 -11.160  0.00  0.00     0.004 C 
BRANCH  20  21
HETATM   21  C           1     -21.866  -2.639 -11.769  0.00  0.00     0.027 C 
BRANCH  21  22
HETATM   22  C           1     -22.733  -3.063 -12.947  0.00  0.00     0.229 C 
BRANCH  22  23
HETATM   23  N           1     -24.086  -2.425 -12.829  0.00  0.00    -0.079 N 
HETATM   24  H           1     -23.983  -1.386 -12.848  0.00  0.00     0.274 HD
HETATM   25  H           1     -24.530  -2.717 -11.930  0.00  0.00     0.274 HD
HETATM   26  H           1     -24.685  -2.730 -13.629  0.00  0.00     0.274 HD
ENDBRANCH  22  23
ENDBRANCH  21  22
ENDBRANCH  20  21
ENDBRANCH  19  20
ENDBRANCH  18  19
BRANCH  18  27
HETATM   27  C           1     -24.428  -3.840  -9.633  0.00  0.00     0.196 C 
HETATM   28  O           1     -25.056  -2.761  -9.694  0.00  0.00    -0.646 OA
HETATM   29  O           1     -25.032  -4.925  -9.781  0.00  0.00    -0.646 OA
ENDBRANCH  18  27
ENDBRANCH   4  18
TORSDOF 8
ENDMDL
MODEL 2
REMARK VINA RESULT:      -5.9      3.458      7.370
REMARK  8 active torsions:
REMARK  status: ('A' for Active; 'I' for Inactive)
REMARK    1  A    between atoms: C_4  and  C_9 
REMARK    2  A    between atoms: C_5  and  N_17 
REMARK    3  A    between atoms: C_5  and  C_6 
REMARK    4  A    between atoms: C_6  and  C_22 
REMARK       I    between atoms: C_9  and  N_25 
REMARK    5  A    between atoms: C_21  and  C_22 
REMARK    6  A    between atoms: C_21  and  C_29 
REMARK    7  A    between atoms: N_25  and  C_29 
REMARK    8  A    between atoms: C_28  and  C_29 
ROOT
HETATM    1  C           1     -20.399  -5.232  -6.630  0.00  0.00     0.249 C 
HETATM    2  H           1     -20.984  -4.179  -4.947  0.00  0.00     0.163 HD
HETATM    3  O           1     -20.171  -6.329  -7.083  0.00  0.00    -0.271 OA
HETATM    4  N           1     -20.793  -5.098  -5.326  0.00  0.00    -0.345 N 
ENDROOT
BRANCH   1   5
HETATM    5  C           1     -20.249  -4.010  -7.503  0.00  0.00     0.274 C 
HETATM    6  C           1     -21.586  -3.287  -7.599  0.00  0.00     0.042 C 
HETATM    7  C           1     -22.625  -4.220  -8.206  0.00  0.00     0.004 C 
HETATM    8  C           1     -23.167  -3.609  -9.493  0.00  0.00     0.027 C 
HETATM    9  C           1     -22.024  -3.410 -10.481  0.00  0.00     0.229 C 
HETATM   10  N           1     -21.390  -4.735 -10.786  0.00  0.00    -0.079 N 
HETATM   11  H           1     -20.606  -4.598 -11.463  0.00  0.00     0.274 HD
HETATM   12  H           1     -21.018  -5.153  -9.903  0.00  0.00     0.274 HD
HETATM   13  H           1     -22.102  -5.375 -11.202  0.00  0.00     0.274 HD
HETATM   14  H           1     -20.520  -5.067  -9.290  0.00  0.00     0.275 HD
HETATM   15  N           1     -19.807  -4.427  -8.874  0.00  0.00    -0.067 N 
HETATM   16  H           1     -19.703  -3.581  -9.479  0.00  0.00     0.275 HD
HETATM   17  H           1     -18.889  -4.922  -8.808  0.00  0.00     0.275 HD
ENDBRANCH   1   5
BRANCH   4  18
HETATM   18  C           1     -20.937  -6.272  -4.488  0.00  0.00     0.185 C 
BRANCH  18  19
HETATM   19  C           1     -21.054  -5.844  -3.031  0.00  0.00     0.036 C 
BRANCH  19  20
HETATM   20  C           1     -21.167  -7.077  -2.145  0.00  0.00     0.004 C 
BRANCH  20  21
HETATM   21  C           1     -22.283  -6.874  -1.129  0.00  0.00     0.027 C 
BRANCH  21  22
HETATM   22  C           1     -22.423  -8.124  -0.272  0.00  0.00     0.229 C 
BRANCH  22  23
HETATM   23  N           1     -23.582  -7.961   0.666  0.00  0.00    -0.079 N 
HETATM   24  H           1     -23.497  -7.049   1.169  0.00  0.00     0.274 HD
HETATM   25  H           1     -23.582  -8.744   1.358  0.00  0.00     0.274 HD
HETATM   26  H           1     -24.475  -7.977   0.123  0.00  0.00     0.274 HD
ENDBRANCH  22  23
ENDBRANCH  21  22
ENDBRANCH  20  21
ENDBRANCH  19  20
ENDBRANCH  18  19
BRANCH  18  27
HETATM   27  C           1     -22.179  -7.028  -4.891  0.00  0.00     0.196 C 
HETATM   28  O           1     -22.117  -8.255  -5.121  0.00  0.00    -0.646 OA
HETATM   29  O           1     -23.270  -6.426  -4.996  0.00  0.00    -0.646 OA
ENDBRANCH  18  27
ENDBRANCH   4  18
TORSDOF 8
ENDMDL
MODEL 3
REMARK VINA RESULT:      -5.5      4.468      6.635
REMARK  8 active torsions:
REMARK  status: ('A' for Active; 'I' for Inactive)
REMARK    1  A    between atoms: C_4  and  C_9 
REMARK    2  A    between atoms: C_5  and  N_17 
REMARK    3  A    between atoms: C_5  and  C_6 
REMARK    4  A    between atoms: C_6  and  C_22 
REMARK       I    between atoms: C_9  and  N_25 
REMARK    5  A    between atoms: C_21  and  C_22 
REMARK    6  A    between atoms: C_21  and  C_29 
REMARK    7  A    between atoms: N_25  and  C_29 
REMARK    8  A    between atoms: C_28  and  C_29 
ROOT
HETATM    1  C           1     -20.600  -9.120  -3.154  0.00  0.00     0.249 C 
HETATM    2  H           1     -21.803  -9.216  -4.836  0.00  0.00     0.163 HD
HETATM    3  O           1     -19.897  -8.406  -2.478  0.00  0.00    -0.271 OA
HETATM    4  N           1     -21.213  -8.618  -4.270  0.00  0.00    -0.345 N 
ENDROOT
BRANCH   1   5
HETATM    5  C           1     -20.803 -10.564  -2.766  0.00  0.00     0.274 C 
HETATM    6  C           1     -22.277 -10.809  -2.471  0.00  0.00     0.042 C 
HETATM    7  C           1     -22.721  -9.909  -1.325  0.00  0.00     0.004 C 
HETATM    8  C           1     -23.222 -10.767  -0.169  0.00  0.00     0.027 C 
HETATM    9  C           1     -22.099 -11.680   0.308  0.00  0.00     0.229 C 
HETATM   10  N           1     -20.939 -10.847   0.770  0.00  0.00    -0.079 N 
HETATM   11  H           1     -20.170 -11.474   1.098  0.00  0.00     0.274 HD
HETATM   12  H           1     -20.596 -10.260  -0.024  0.00  0.00     0.274 HD
HETATM   13  H           1     -21.244 -10.230   1.555  0.00  0.00     0.274 HD
HETATM   14  H           1     -20.296 -10.253  -0.759  0.00  0.00     0.275 HD
HETATM   15  N           1     -19.990 -10.871  -1.544  0.00  0.00    -0.067 N 
HETATM   16  H           1     -20.130 -11.871  -1.275  0.00  0.00     0.275 HD
HETATM   17  H           1     -18.979 -10.704  -1.748  0.00  0.00     0.275 HD
ENDBRANCH   1   5
BRANCH   4  18
HETATM   18  C           1     -21.019  -7.230  -4.643  0.00  0.00     0.185 C 
BRANCH  18  19
HETATM   19  C           1     -20.887  -7.125  -6.157  0.00  0.00     0.036 C 
BRANCH  19  20
HETATM   20  C           1     -19.940  -5.985  -6.507  0.00  0.00     0.004 C 
BRANCH  20  21
HETATM   21  C           1     -20.525  -5.173  -7.655  0.00  0.00     0.027 C 
BRANCH  21  22
HETATM   22  C           1     -21.290  -3.981  -7.097  0.00  0.00     0.229 C 
BRANCH  22  23
HETATM   23  N           1     -22.755  -4.153  -7.370  0.00  0.00    -0.079 N 
HETATM   24  H           1     -22.900  -4.338  -8.387  0.00  0.00     0.274 HD
HETATM   25  H           1     -23.263  -3.282  -7.096  0.00  0.00     0.274 HD
HETATM   26  H           1     -23.120  -4.958  -6.814  0.00  0.00     0.274 HD
ENDBRANCH  22  23
ENDBRANCH  21  22
ENDBRANCH  20  21
ENDBRANCH  19  20
ENDBRANCH  18  19
BRANCH  18  27
HETATM   27  C           1     -22.203  -6.416  -4.184  0.00  0.00     0.196 C 
HETATM   28  O           1     -23.105  -6.112  -4.995  0.00  0.00    -0.646 OA
HETATM   29  O           1     -22.282  -6.045  -2.992  0.00  0.00    -0.646 OA
ENDBRANCH  18  27
ENDBRANCH   4  18
TORSDOF 8
ENDMDL
MODEL 4
REMARK VINA RESULT:      -5.5      1.847      6.774
REMARK  8 active torsions:
REMARK  status: ('A' for Active; 'I' for Inactive)
REMARK    1  A    between atoms: C_4  and  C_9 
REMARK    2  A    between atoms: C_5  and  N_17 
REMARK    3  A    between atoms: C_5  and  C_6 
REMARK    4  A    between atoms: C_6  and  C_22 
REMARK       I    between atoms: C_9  and  N_25 
REMARK    5  A    between atoms: C_21  and  C_22 
REMARK    6  A    between atoms: C_21  and  C_29 
REMARK    7  A    between atoms: N_25  and  C_29 
REMARK    8  A    between atoms: C_28  and  C_29 
ROOT
HETATM    1  C           1     -22.941  -4.373  -9.113  0.00  0.00     0.249 C 
HETATM    2  H           1     -21.728  -6.048  -9.068  0.00  0.00     0.163 HD
HETATM    3  O           1     -23.200  -3.322  -8.575  0.00  0.00    -0.271 OA
HETATM    4  N           1     -21.945  -5.169  -8.616  0.00  0.00    -0.345 N 
ENDROOT
BRANCH   1   5
HETATM    5  C           1     -23.716  -4.806 -10.333  0.00  0.00     0.274 C 
HETATM    6  C           1     -22.747  -5.108 -11.469  0.00  0.00     0.042 C 
HETATM    7  C           1     -21.943  -3.857 -11.797  0.00  0.00     0.004 C 
HETATM    8  C           1     -22.189  -3.459 -13.247  0.00  0.00     0.027 C 
HETATM    9  C           1     -23.672  -3.177 -13.452  0.00  0.00     0.229 C 
HETATM   10  N           1     -24.097  -2.057 -12.548  0.00  0.00    -0.079 N 
HETATM   11  H           1     -25.115  -1.864 -12.689  0.00  0.00     0.274 HD
HETATM   12  H           1     -23.929  -2.331 -11.553  0.00  0.00     0.274 HD
HETATM   13  H           1     -23.545  -1.200 -12.772  0.00  0.00     0.274 HD
HETATM   14  H           1     -24.094  -2.848 -10.974  0.00  0.00     0.275 HD
HETATM   15  N           1     -24.647  -3.706 -10.749  0.00  0.00    -0.067 N 
HETATM   16  H           1     -25.184  -4.005 -11.595  0.00  0.00     0.275 HD
HETATM   17  H           1     -25.312  -3.500  -9.970  0.00  0.00     0.275 HD
ENDBRANCH   1   5
BRANCH   4  18
HETATM   18  C           1     -21.200  -4.753  -7.444  0.00  0.00     0.185 C 
BRANCH  18  19
HETATM   19  C           1     -21.026  -5.940  -6.506  0.00  0.00     0.036 C 
BRANCH  19  20
HETATM   20  C           1     -22.209  -6.011  -5.549  0.00  0.00     0.004 C 
BRANCH  20  21
HETATM   21  C           1     -21.944  -7.073  -4.491  0.00  0.00     0.027 C 
BRANCH  21  22
HETATM   22  C           1     -21.317  -6.423  -3.265  0.00  0.00     0.229 C 
BRANCH  22  23
HETATM   23  N           1     -22.395  -5.837  -2.402  0.00  0.00    -0.079 N 
HETATM   24  H           1     -23.268  -5.724  -2.964  0.00  0.00     0.274 HD
HETATM   25  H           1     -22.086  -4.904  -2.046  0.00  0.00     0.274 HD
HETATM   26  H           1     -22.580  -6.473  -1.595  0.00  0.00     0.274 HD
ENDBRANCH  22  23
ENDBRANCH  21  22
ENDBRANCH  20  21
ENDBRANCH  19  20
ENDBRANCH  18  19
BRANCH  18  27
HETATM   27  C           1     -19.845  -4.241  -7.865  0.00  0.00     0.196 C 
HETATM   28  O           1     -18.836  -4.499  -7.173  0.00  0.00    -0.646 OA
HETATM   29  O           1     -19.731  -3.558  -8.906  0.00  0.00    -0.646 OA
ENDBRANCH  18  27
ENDBRANCH   4  18
TORSDOF 8
ENDMDL
MODEL 5
REMARK VINA RESULT:      -5.5      3.715      5.849
REMARK  8 active torsions:
REMARK  status: ('A' for Active; 'I' for Inactive)
REMARK    1  A    between atoms: C_4  and  C_9 
REMARK    2  A    between atoms: C_5  and  N_17 
REMARK    3  A    between atoms: C_5  and  C_6 
REMARK    4  A    between atoms: C_6  and  C_22 
REMARK       I    between atoms: C_9  and  N_25 
REMARK    5  A    between atoms: C_21  and  C_22 
REMARK    6  A    between atoms: C_21  and  C_29 
REMARK    7  A    between atoms: N_25  and  C_29 
REMARK    8  A    between atoms: C_28  and  C_29 
ROOT
HETATM    1  C           1     -20.117  -9.031  -4.851  0.00  0.00     0.249 C 
HETATM    2  H           1     -21.444  -8.590  -6.377  0.00  0.00     0.163 HD
HETATM    3  O           1     -19.391  -8.566  -4.005  0.00  0.00    -0.271 OA
HETATM    4  N           1     -20.835  -8.200  -5.669  0.00  0.00    -0.345 N 
ENDROOT
BRANCH   1   5
HETATM    5  C           1     -20.233 -10.527  -5.007  0.00  0.00     0.274 C 
HETATM    6  C           1     -21.689 -10.944  -4.844  0.00  0.00     0.042 C 
HETATM    7  C           1     -22.182 -10.538  -3.462  0.00  0.00     0.004 C 
HETATM    8  C           1     -22.627 -11.778  -2.696  0.00  0.00     0.027 C 
HETATM    9  C           1     -21.451 -12.736  -2.554  0.00  0.00     0.229 C 
HETATM   10  N           1     -20.341 -12.059  -1.806  0.00  0.00    -0.079 N 
HETATM   11  H           1     -19.535 -12.717  -1.708  0.00  0.00     0.274 HD
HETATM   12  H           1     -20.036 -11.209  -2.332  0.00  0.00     0.274 HD
HETATM   13  H           1     -20.679 -11.780  -0.858  0.00  0.00     0.274 HD
HETATM   14  H           1     -19.738 -10.924  -3.011  0.00  0.00     0.275 HD
HETATM   15  N           1     -19.399 -11.203  -3.959  0.00  0.00    -0.067 N 
HETATM   16  H           1     -19.479 -12.240  -4.066  0.00  0.00     0.275 HD
HETATM   17  H           1     -18.401 -10.918  -4.072  0.00  0.00     0.275 HD
ENDBRANCH   1   5
BRANCH   4  18
HETATM   18  C           1     -20.724  -6.762  -5.519  0.00  0.00     0.185 C 
BRANCH  18  19
HETATM   19  C           1     -20.779  -6.104  -6.892  0.00  0.00     0.036 C 
BRANCH  19  20
HETATM   20  C           1     -20.159  -4.715  -6.815  0.00  0.00     0.004 C 
BRANCH  20  21
HETATM   21  C           1     -21.211  -3.669  -7.162  0.00  0.00     0.027 C 
BRANCH  21  22
HETATM   22  C           1     -22.221  -4.267  -8.132  0.00  0.00     0.229 C 
BRANCH  22  23
HETATM   23  N           1     -23.599  -4.161  -7.549  0.00  0.00    -0.079 N 
HETATM   24  H           1     -23.532  -4.091  -6.509  0.00  0.00     0.274 HD
HETATM   25  H           1     -24.151  -5.010  -7.808  0.00  0.00     0.274 HD
HETATM   26  H           1     -24.072  -3.309  -7.926  0.00  0.00     0.274 HD
ENDBRANCH  22  23
ENDBRANCH  21  22
ENDBRANCH  20  21
ENDBRANCH  19  20
ENDBRANCH  18  19
BRANCH  18  27
HETATM   27  C           1     -21.866  -6.255  -4.673  0.00  0.00     0.196 C 
HETATM   28  O           1     -21.678  -5.988  -3.466  0.00  0.00    -0.646 OA
HETATM   29  O           1     -22.999  -6.104  -5.178  0.00  0.00    -0.646 OA
ENDBRANCH  18  27
ENDBRANCH   4  18
TORSDOF 8
ENDMDL
MODEL 6
REMARK VINA RESULT:      -5.4     17.928     19.521
REMARK  8 active torsions:
REMARK  status: ('A' for Active; 'I' for Inactive)
REMARK    1  A    between atoms: C_4  and  C_9 
REMARK    2  A    between atoms: C_5  and  N_17 
REMARK    3  A    between atoms: C_5  and  C_6 
REMARK    4  A    between atoms: C_6  and  C_22 
REMARK       I    between atoms: C_9  and  N_25 
REMARK    5  A    between atoms: C_21  and  C_22 
REMARK    6  A    between atoms: C_21  and  C_29 
REMARK    7  A    between atoms: N_25  and  C_29 
REMARK    8  A    between atoms: C_28  and  C_29 
ROOT
HETATM    1  C           1     -12.933   6.849 -20.602  0.00  0.00     0.249 C 
HETATM    2  H           1     -12.395   7.591 -18.747  0.00  0.00     0.163 HD
HETATM    3  O           1     -12.919   7.054 -21.793  0.00  0.00    -0.271 OA
HETATM    4  N           1     -12.384   7.763 -19.744  0.00  0.00    -0.345 N 
ENDROOT
BRANCH   1   5
HETATM    5  C           1     -13.554   5.584 -20.062  0.00  0.00     0.274 C 
HETATM    6  C           1     -12.455   4.620 -19.636  0.00  0.00     0.042 C 
HETATM    7  C           1     -11.582   4.282 -20.838  0.00  0.00     0.004 C 
HETATM    8  C           1     -11.627   2.781 -21.094  0.00  0.00     0.027 C 
HETATM    9  C           1     -13.063   2.357 -21.375  0.00  0.00     0.229 C 
HETATM   10  N           1     -13.572   3.086 -22.584  0.00  0.00    -0.079 N 
HETATM   11  H           1     -14.558   2.795 -22.777  0.00  0.00     0.274 HD
HETATM   12  H           1     -13.542   4.116 -22.407  0.00  0.00     0.274 HD
HETATM   13  H           1     -12.973   2.855 -23.408  0.00  0.00     0.274 HD
HETATM   14  H           1     -13.794   4.715 -21.952  0.00  0.00     0.275 HD
HETATM   15  N           1     -14.394   4.946 -21.128  0.00  0.00    -0.067 N 
HETATM   16  H           1     -14.824   4.070 -20.754  0.00  0.00     0.275 HD
HETATM   17  H           1     -15.148   5.608 -21.419  0.00  0.00     0.275 HD
ENDBRANCH   1   5
BRANCH   4  18
HETATM   18  C           1     -11.787   8.978 -20.264  0.00  0.00     0.185 C 
BRANCH  18  19
HETATM   19  C           1     -12.659  10.170 -19.893  0.00  0.00     0.036 C 
BRANCH  19  20
HETATM   20  C           1     -13.353   9.900 -18.565  0.00  0.00     0.004 C 
BRANCH  20  21
HETATM   21  C           1     -14.397  10.978 -18.307  0.00  0.00     0.027 C 
BRANCH  21  22
HETATM   22  C           1     -15.297  10.550 -17.156  0.00  0.00     0.229 C 
BRANCH  22  23
HETATM   23  N           1     -15.132  11.502 -16.009  0.00  0.00    -0.079 N 
HETATM   24  H           1     -14.503  12.285 -16.295  0.00  0.00     0.274 HD
HETATM   25  H           1     -14.715  10.996 -15.196  0.00  0.00     0.274 HD
HETATM   26  H           1     -16.065  11.886 -15.739  0.00  0.00     0.274 HD
ENDBRANCH  22  23
ENDBRANCH  21  22
ENDBRANCH  20  21
ENDBRANCH  19  20
ENDBRANCH  18  19
BRANCH  18  27
HETATM   27  C           1     -10.412   9.156 -19.667  0.00  0.00     0.196 C 
HETATM   28  O           1      -9.512   9.719 -20.328  0.00  0.00    -0.646 OA
HETATM   29  O           1     -10.173   8.740 -18.513  0.00  0.00    -0.646 OA
ENDBRANCH  18  27
ENDBRANCH   4  18
TORSDOF 8
ENDMDL
MODEL 7
REMARK VINA RESULT:      -5.3      5.139      7.554
REMARK  8 active torsions:
REMARK  status: ('A' for Active; 'I' for Inactive)
REMARK    1  A    between atoms: C_4  and  C_9 
REMARK    2  A    between atoms: C_5  and  N_17 
REMARK    3  A    between atoms: C_5  and  C_6 
REMARK    4  A    between atoms: C_6  and  C_22 
REMARK       I    between atoms: C_9  and  N_25 
REMARK    5  A    between atoms: C_21  and  C_22 
REMARK    6  A    between atoms: C_21  and  C_29 
REMARK    7  A    between atoms: N_25  and  C_29 
REMARK    8  A    between atoms: C_28  and  C_29 
ROOT
HETATM    1  C           1     -20.077  -9.387  -4.925  0.00  0.00     0.249 C 
HETATM    2  H           1     -19.602  -7.731  -3.779  0.00  0.00     0.163 HD
HETATM    3  O           1     -20.754  -9.800  -5.837  0.00  0.00    -0.271 OA
HETATM    4  N           1     -20.170  -8.077  -4.542  0.00  0.00    -0.345 N 
ENDROOT
BRANCH   1   5
HETATM    5  C           1     -19.128 -10.317  -4.210  0.00  0.00     0.274 C 
HETATM    6  C           1     -17.713  -9.759  -4.290  0.00  0.00     0.042 C 
HETATM    7  C           1     -17.297  -9.635  -5.750  0.00  0.00     0.004 C 
HETATM    8  C           1     -16.062 -10.492  -6.002  0.00  0.00     0.027 C 
HETATM    9  C           1     -16.382 -11.948  -5.687  0.00  0.00     0.229 C 
HETATM   10  N           1     -17.503 -12.416  -6.568  0.00  0.00    -0.079 N 
HETATM   11  H           1     -17.721 -13.415  -6.352  0.00  0.00     0.274 HD
HETATM   12  H           1     -18.349 -11.828  -6.394  0.00  0.00     0.274 HD
HETATM   13  H           1     -17.218 -12.330  -7.569  0.00  0.00     0.274 HD
HETATM   14  H           1     -18.885 -11.582  -5.862  0.00  0.00     0.275 HD
HETATM   15  N           1     -19.169 -11.668  -4.859  0.00  0.00    -0.067 N 
HETATM   16  H           1     -18.512 -12.313  -4.365  0.00  0.00     0.275 HD
HETATM   17  H           1     -20.140 -12.051  -4.804  0.00  0.00     0.275 HD
ENDBRANCH   1   5
BRANCH   4  18
HETATM   18  C           1     -21.082  -7.183  -5.229  0.00  0.00     0.185 C 
BRANCH  18  19
HETATM   19  C           1     -21.914  -6.423  -4.205  0.00  0.00     0.036 C 
BRANCH  19  20
HETATM   20  C           1     -21.252  -6.521  -2.837  0.00  0.00     0.004 C 
BRANCH  20  21
HETATM   21  C           1     -22.297  -6.309  -1.750  0.00  0.00     0.027 C 
BRANCH  21  22
HETATM   22  C           1     -22.123  -7.363  -0.665  0.00  0.00     0.229 C 
BRANCH  22  23
HETATM   23  N           1     -20.889  -8.169  -0.943  0.00  0.00    -0.079 N 
HETATM   24  H           1     -20.057  -7.681  -0.542  0.00  0.00     0.274 HD
HETATM   25  H           1     -20.768  -8.275  -1.976  0.00  0.00     0.274 HD
HETATM   26  H           1     -20.983  -9.113  -0.506  0.00  0.00     0.274 HD
ENDBRANCH  22  23
ENDBRANCH  21  22
ENDBRANCH  20  21
ENDBRANCH  19  20
ENDBRANCH  18  19
BRANCH  18  27
HETATM   27  C           1     -20.292  -6.203  -6.063  0.00  0.00     0.196 C 
HETATM   28  O           1     -20.233  -5.001  -5.726  0.00  0.00    -0.646 OA
HETATM   29  O           1     -19.697  -6.595  -7.090  0.00  0.00    -0.646 OA
ENDBRANCH  18  27
ENDBRANCH   4  18
TORSDOF 8
ENDMDL
MODEL 8
REMARK VINA RESULT:      -5.2      7.267      9.086
REMARK  8 active torsions:
REMARK  status: ('A' for Active; 'I' for Inactive)
REMARK    1  A    between atoms: C_4  and  C_9 
REMARK    2  A    between atoms: C_5  and  N_17 
REMARK    3  A    between atoms: C_5  and  C_6 
REMARK    4  A    between atoms: C_6  and  C_22 
REMARK       I    between atoms: C_9  and  N_25 
REMARK    5  A    between atoms: C_21  and  C_22 
REMARK    6  A    between atoms: C_21  and  C_29 
REMARK    7  A    between atoms: N_25  and  C_29 
REMARK    8  A    between atoms: C_28  and  C_29 
ROOT
HETATM    1  C           1     -20.119  -9.781  -2.527  0.00  0.00     0.249 C 
HETATM    2  H           1     -19.480  -8.047  -1.595  0.00  0.00     0.163 HD
HETATM    3  O           1     -21.082 -10.401  -2.912  0.00  0.00    -0.271 OA
HETATM    4  N           1     -20.287  -8.567  -1.917  0.00  0.00    -0.345 N 
ENDROOT
BRANCH   1   5
HETATM    5  C           1     -18.733 -10.344  -2.720  0.00  0.00     0.274 C 
HETATM    6  C           1     -17.914  -9.394  -3.585  0.00  0.00     0.042 C 
HETATM    7  C           1     -18.589  -9.232  -4.940  0.00  0.00     0.004 C 
HETATM    8  C           1     -17.641  -9.694  -6.040  0.00  0.00     0.027 C 
HETATM    9  C           1     -17.285 -11.159  -5.821  0.00  0.00     0.229 C 
HETATM   10  N           1     -18.535 -11.988  -5.860  0.00  0.00    -0.079 N 
HETATM   11  H           1     -18.290 -12.993  -5.711  0.00  0.00     0.274 HD
HETATM   12  H           1     -19.185 -11.672  -5.105  0.00  0.00     0.274 HD
HETATM   13  H           1     -18.998 -11.877  -6.789  0.00  0.00     0.274 HD
HETATM   14  H           1     -19.291 -11.568  -4.325  0.00  0.00     0.275 HD
HETATM   15  N           1     -18.826 -11.680  -3.395  0.00  0.00    -0.067 N 
HETATM   16  H           1     -17.867 -12.070  -3.530  0.00  0.00     0.275 HD
HETATM   17  H           1     -19.387 -12.331  -2.801  0.00  0.00     0.275 HD
ENDBRANCH   1   5
BRANCH   4  18
HETATM   18  C           1     -21.619  -8.026  -1.731  0.00  0.00     0.185 C 
BRANCH  18  19
HETATM   19  C           1     -21.845  -7.732  -0.254  0.00  0.00     0.036 C 
BRANCH  19  20
HETATM   20  C           1     -23.039  -8.534   0.247  0.00  0.00     0.004 C 
BRANCH  20  21
HETATM   21  C           1     -22.701 -10.019   0.223  0.00  0.00     0.027 C 
BRANCH  21  22
HETATM   22  C           1     -23.908 -10.807  -0.268  0.00  0.00     0.229 C 
BRANCH  22  23
HETATM   23  N           1     -23.666 -11.270  -1.674  0.00  0.00    -0.079 N 
HETATM   24  H           1     -24.546 -11.676  -2.063  0.00  0.00     0.274 HD
HETATM   25  H           1     -22.915 -11.997  -1.676  0.00  0.00     0.274 HD
HETATM   26  H           1     -23.367 -10.460  -2.261  0.00  0.00     0.274 HD
ENDBRANCH  22  23
ENDBRANCH  21  22
ENDBRANCH  20  21
ENDBRANCH  19  20
ENDBRANCH  18  19
BRANCH  18  27
HETATM   27  C           1     -21.757  -6.749  -2.524  0.00  0.00     0.196 C 
HETATM   28  O           1     -22.526  -5.847  -2.128  0.00  0.00    -0.646 OA
HETATM   29  O           1     -21.103  -6.596  -3.579  0.00  0.00    -0.646 OA
ENDBRANCH  18  27
ENDBRANCH   4  18
TORSDOF 8
ENDMDL
MODEL 9
REMARK VINA RESULT:      -5.1      3.199      7.309
REMARK  8 active torsions:
REMARK  status: ('A' for Active; 'I' for Inactive)
REMARK    1  A    between atoms: C_4  and  C_9 
REMARK    2  A    between atoms: C_5  and  N_17 
REMARK    3  A    between atoms: C_5  and  C_6 
REMARK    4  A    between atoms: C_6  and  C_22 
REMARK       I    between atoms: C_9  and  N_25 
REMARK    5  A    between atoms: C_21  and  C_22 
REMARK    6  A    between atoms: C_21  and  C_29 
REMARK    7  A    between atoms: N_25  and  C_29 
REMARK    8  A    between atoms: C_28  and  C_29 
ROOT
HETATM    1  C           1     -20.788  -5.658  -6.326  0.00  0.00     0.249 C 
HETATM    2  H           1     -20.814  -4.897  -4.401  0.00  0.00     0.163 HD
HETATM    3  O           1     -20.954  -6.646  -7.003  0.00  0.00    -0.271 OA
HETATM    4  N           1     -20.952  -5.724  -4.969  0.00  0.00    -0.345 N 
ENDROOT
BRANCH   1   5
HETATM    5  C           1     -20.402  -4.353  -6.977  0.00  0.00     0.274 C 
HETATM    6  C           1     -21.650  -3.664  -7.514  0.00  0.00     0.042 C 
HETATM    7  C           1     -22.324  -4.564  -8.542  0.00  0.00     0.004 C 
HETATM    8  C           1     -22.384  -3.847  -9.885  0.00  0.00     0.027 C 
HETATM    9  C           1     -20.970  -3.518 -10.348  0.00  0.00     0.229 C 
HETATM   10  N           1     -20.184  -4.788 -10.494  0.00  0.00    -0.079 N 
HETATM   11  H           1     -19.214  -4.561 -10.812  0.00  0.00     0.274 HD
HETATM   12  H           1     -20.142  -5.279  -9.572  0.00  0.00     0.274 HD
HETATM   13  H           1     -20.646  -5.405 -11.198  0.00  0.00     0.274 HD
HETATM   14  H           1     -19.917  -5.239  -8.812  0.00  0.00     0.275 HD
HETATM   15  N           1     -19.453  -4.620  -8.107  0.00  0.00    -0.067 N 
HETATM   16  H           1     -19.186  -3.717  -8.559  0.00  0.00     0.275 HD
HETATM   17  H           1     -18.597  -5.092  -7.739  0.00  0.00     0.275 HD
ENDBRANCH   1   5
BRANCH   4  18
HETATM   18  C           1     -21.323  -6.978  -4.343  0.00  0.00     0.185 C 
BRANCH  18  19
HETATM   19  C           1     -20.166  -7.962  -4.454  0.00  0.00     0.036 C 
BRANCH  19  20
HETATM   20  C           1     -20.710  -9.361  -4.714  0.00  0.00     0.004 C 
BRANCH  20  21
HETATM   21  C           1     -19.979 -10.364  -3.832  0.00  0.00     0.027 C 
BRANCH  21  22
HETATM   22  C           1     -20.993 -11.176  -3.039  0.00  0.00     0.229 C 
BRANCH  22  23
HETATM   23  N           1     -22.123 -10.287  -2.610  0.00  0.00    -0.079 N 
HETATM   24  H           1     -23.027 -10.801  -2.709  0.00  0.00     0.274 HD
HETATM   25  H           1     -22.138  -9.432  -3.210  0.00  0.00     0.274 HD
HETATM   26  H           1     -21.987 -10.010  -1.612  0.00  0.00     0.274 HD
ENDBRANCH  22  23
ENDBRANCH  21  22
ENDBRANCH  20  21
ENDBRANCH  19  20
ENDBRANCH  18  19
BRANCH  18  27
HETATM   27  C           1     -21.641  -6.738  -2.887  0.00  0.00     0.196 C 
HETATM   28  O           1     -22.501  -5.889  -2.568  0.00  0.00    -0.646 OA
HETATM   29  O           1     -21.044  -7.388  -2.002  0.00  0.00    -0.646 OA
ENDBRANCH  18  27
ENDBRANCH   4  18
TORSDOF 8
ENDMDL
