MODEL 1
REMARK VINA RESULT:      -6.1      0.000      0.000
REMARK  10 active torsions:
REMARK  status: ('A' for Active; 'I' for Inactive)
REMARK    1  A    between atoms: C_2  and  S_16 
REMARK    2  A    between atoms: C_2  and  C_3 
REMARK    3  A    between atoms: C_3  and  C_10 
REMARK    4  A    between atoms: C_4  and  C_15 
REMARK    5  A    between atoms: C_4  and  C_22 
REMARK    6  A    between atoms: C_4  and  N_23 
REMARK    7  A    between atoms: C_9  and  C_10 
REMARK    8  A    between atoms: C_10  and  N_12 
REMARK       I    between atoms: N_12  and  C_15 
REMARK       I    between atoms: N_19  and  C_20 
REMARK    9  A    between atoms: C_20  and  C_21 
REMARK   10  A    between atoms: C_21  and  C_22 
ROOT
HETATM    1  C           1     -33.231  -2.943 -11.551  0.00  0.00     0.275 C 
ENDROOT
BRANCH   1   2
HETATM    2  C           1     -34.309  -2.547 -12.529  0.00  0.00     0.249 C 
HETATM    3  O           1     -34.695  -3.338 -13.357  0.00  0.00    -0.271 OA
HETATM    4  N           1     -34.851  -1.291 -12.477  0.00  0.00    -0.345 N 
HETATM    5  H           1     -34.530  -0.629 -11.783  0.00  0.00     0.163 HD
BRANCH   4   6
HETATM    6  C           1     -35.889  -0.911 -13.416  0.00  0.00     0.186 C 
BRANCH   6   7
HETATM    7  C           1     -36.966  -0.118 -12.688  0.00  0.00     0.046 C 
BRANCH   7   8
HETATM    8  C           1     -36.577   0.042 -11.225  0.00  0.00     0.076 C 
BRANCH   8   9
HETATM    9  S           1     -38.075   0.085 -10.201  0.00  0.00    -0.173 SA
HETATM   10  C           1     -37.225  -0.017  -8.600  0.00  0.00     0.089 C 
ENDBRANCH   8   9
ENDBRANCH   7   8
ENDBRANCH   6   7
BRANCH   6  11
HETATM   11  C           1     -35.289  -0.059 -14.509  0.00  0.00     0.196 C 
HETATM   12  O           1     -35.018  -0.566 -15.618  0.00  0.00    -0.646 OA
HETATM   13  O           1     -35.063   1.153 -14.303  0.00  0.00    -0.646 OA
ENDBRANCH   6  11
ENDBRANCH   4   6
ENDBRANCH   1   2
BRANCH   1  14
HETATM   14  C           1     -33.042  -4.455 -11.586  0.00  0.00     0.052 C 
BRANCH  14  15
HETATM   15  C           1     -33.951  -5.104 -10.551  0.00  0.00     0.105 C 
BRANCH  15  16
HETATM   16  C           1     -34.584  -6.341 -11.141  0.00  0.00     0.215 C 
HETATM   17  N           1     -35.002  -6.340 -12.445  0.00  0.00    -0.370 N 
HETATM   18  H           1     -35.426  -7.169 -12.840  0.00  0.00     0.159 HD
HETATM   19  H           1     -34.888  -5.510 -13.012  0.00  0.00     0.159 HD
HETATM   20  O           1     -34.720  -7.331 -10.464  0.00  0.00    -0.274 OA
ENDBRANCH  15  16
ENDBRANCH  14  15
ENDBRANCH   1  14
BRANCH   1  21
HETATM   21  N           1     -33.630  -2.523 -10.168  0.00  0.00    -0.066 N 
HETATM   22  H           1     -33.665  -3.359  -9.544  0.00  0.00     0.275 HD
HETATM   23  H           1     -32.931  -1.839  -9.796  0.00  0.00     0.275 HD
HETATM   24  H           1     -34.573  -2.073 -10.200  0.00  0.00     0.275 HD
ENDBRANCH   1  21
TORSDOF 10
ENDMDL
MODEL 2
REMARK VINA RESULT:      -6.1     12.527     14.181
REMARK  10 active torsions:
REMARK  status: ('A' for Active; 'I' for Inactive)
REMARK    1  A    between atoms: C_2  and  S_16 
REMARK    2  A    between atoms: C_2  and  C_3 
REMARK    3  A    between atoms: C_3  and  C_10 
REMARK    4  A    between atoms: C_4  and  C_15 
REMARK    5  A    between atoms: C_4  and  C_22 
REMARK    6  A    between atoms: C_4  and  N_23 
REMARK    7  A    between atoms: C_9  and  C_10 
REMARK    8  A    between atoms: C_10  and  N_12 
REMARK       I    between atoms: N_12  and  C_15 
REMARK       I    between atoms: N_19  and  C_20 
REMARK    9  A    between atoms: C_20  and  C_21 
REMARK   10  A    between atoms: C_21  and  C_22 
ROOT
HETATM    1  C           1     -21.104  -5.875  -6.949  0.00  0.00     0.275 C 
ENDROOT
BRANCH   1   2
HETATM    2  C           1     -21.665  -4.723  -7.744  0.00  0.00     0.249 C 
HETATM    3  O           1     -21.649  -3.606  -7.283  0.00  0.00    -0.271 OA
HETATM    4  N           1     -22.190  -4.942  -8.989  0.00  0.00    -0.345 N 
HETATM    5  H           1     -22.202  -5.877  -9.376  0.00  0.00     0.163 HD
BRANCH   4   6
HETATM    6  C           1     -22.728  -3.834  -9.754  0.00  0.00     0.186 C 
BRANCH   6   7
HETATM    7  C           1     -22.288  -3.959 -11.207  0.00  0.00     0.046 C 
BRANCH   7   8
HETATM    8  C           1     -22.493  -2.628 -11.916  0.00  0.00     0.076 C 
BRANCH   8   9
HETATM    9  S           1     -23.882  -2.766 -13.076  0.00  0.00    -0.173 SA
HETATM   10  C           1     -22.886  -2.689 -14.591  0.00  0.00     0.089 C 
ENDBRANCH   8   9
ENDBRANCH   7   8
ENDBRANCH   6   7
BRANCH   6  11
HETATM   11  C           1     -24.236  -3.858  -9.680  0.00  0.00     0.196 C 
HETATM   12  O           1     -24.852  -4.931  -9.852  0.00  0.00    -0.646 OA
HETATM   13  O           1     -24.867  -2.805  -9.446  0.00  0.00    -0.646 OA
ENDBRANCH   6  11
ENDBRANCH   4   6
ENDBRANCH   1   2
BRANCH   1  14
HETATM   14  C           1     -21.105  -5.520  -5.467  0.00  0.00     0.052 C 
BRANCH  14  15
HETATM   15  C           1     -22.172  -6.335  -4.750  0.00  0.00     0.105 C 
BRANCH  15  16
HETATM   16  C           1     -21.768  -6.539  -3.310  0.00  0.00     0.215 C 
HETATM   17  N           1     -22.432  -5.876  -2.312  0.00  0.00    -0.370 N 
HETATM   18  H           1     -22.160  -6.013  -1.348  0.00  0.00     0.159 HD
HETATM   19  H           1     -23.193  -5.250  -2.541  0.00  0.00     0.159 HD
HETATM   20  O           1     -20.859  -7.286  -3.038  0.00  0.00    -0.274 OA
ENDBRANCH  15  16
ENDBRANCH  14  15
ENDBRANCH   1  14
BRANCH   1  21
HETATM   21  N           1     -19.699  -6.154  -7.394  0.00  0.00    -0.066 N 
HETATM   22  H           1     -19.038  -5.961  -6.608  0.00  0.00     0.275 HD
HETATM   23  H           1     -19.617  -7.156  -7.681  0.00  0.00     0.275 HD
HETATM   24  H           1     -19.462  -5.538  -8.205  0.00  0.00     0.275 HD
ENDBRANCH   1  21
TORSDOF 10
ENDMDL
MODEL 3
REMARK VINA RESULT:      -6.0      2.497      3.443
REMARK  10 active torsions:
REMARK  status: ('A' for Active; 'I' for Inactive)
REMARK    1  A    between atoms: C_2  and  S_16 
REMARK    2  A    between atoms: C_2  and  C_3 
REMARK    3  A    between atoms: C_3  and  C_10 
REMARK    4  A    between atoms: C_4  and  C_15 
REMARK    5  A    between atoms: C_4  and  C_22 
REMARK    6  A    between atoms: C_4  and  N_23 
REMARK    7  A    between atoms: C_9  and  C_10 
REMARK    8  A    between atoms: C_10  and  N_12 
REMARK       I    between atoms: N_12  and  C_15 
REMARK       I    between atoms: N_19  and  C_20 
REMARK    9  A    between atoms: C_20  and  C_21 
REMARK   10  A    between atoms: C_21  and  C_22 
ROOT
HETATM    1  C           1     -34.263  -4.193 -12.495  0.00  0.00     0.275 C 
ENDROOT
BRANCH   1   2
HETATM    2  C           1     -34.289  -2.773 -11.985  0.00  0.00     0.249 C 
HETATM    3  O           1     -33.397  -2.368 -11.279  0.00  0.00    -0.271 OA
HETATM    4  N           1     -35.323  -1.943 -12.325  0.00  0.00    -0.345 N 
HETATM    5  H           1     -36.071  -2.281 -12.918  0.00  0.00     0.163 HD
BRANCH   4   6
HETATM    6  C           1     -35.347  -0.578 -11.836  0.00  0.00     0.186 C 
BRANCH   6   7
HETATM    7  C           1     -35.417   0.382 -13.016  0.00  0.00     0.046 C 
BRANCH   7   8
HETATM    8  C           1     -36.536  -0.048 -13.955  0.00  0.00     0.076 C 
BRANCH   8   9
HETATM    9  S           1     -36.185   0.553 -15.632  0.00  0.00    -0.173 SA
HETATM   10  C           1     -35.614  -1.036 -16.297  0.00  0.00     0.089 C 
ENDBRANCH   8   9
ENDBRANCH   7   8
ENDBRANCH   6   7
BRANCH   6  11
HETATM   11  C           1     -36.557  -0.382 -10.955  0.00  0.00     0.196 C 
HETATM   12  O           1     -36.626   0.612 -10.201  0.00  0.00    -0.646 OA
HETATM   13  O           1     -37.490  -1.214 -10.981  0.00  0.00    -0.646 OA
ENDBRANCH   6  11
ENDBRANCH   4   6
ENDBRANCH   1   2
BRANCH   1  14
HETATM   14  C           1     -33.500  -5.073 -11.512  0.00  0.00     0.052 C 
BRANCH  14  15
HETATM   15  C           1     -34.371  -5.348 -10.295  0.00  0.00     0.105 C 
BRANCH  15  16
HETATM   16  C           1     -34.706  -6.819 -10.237  0.00  0.00     0.215 C 
HETATM   17  N           1     -35.018  -7.496 -11.387  0.00  0.00    -0.370 N 
HETATM   18  H           1     -35.242  -8.481 -11.347  0.00  0.00     0.159 HD
HETATM   19  H           1     -35.024  -7.009 -12.274  0.00  0.00     0.159 HD
HETATM   20  O           1     -34.699  -7.399  -9.178  0.00  0.00    -0.274 OA
ENDBRANCH  15  16
ENDBRANCH  14  15
ENDBRANCH   1  14
BRANCH   1  21
HETATM   21  N           1     -33.585  -4.233 -13.832  0.00  0.00    -0.066 N 
HETATM   22  H           1     -34.284  -4.048 -14.585  0.00  0.00     0.275 HD
HETATM   23  H           1     -32.836  -3.504 -13.864  0.00  0.00     0.275 HD
HETATM   24  H           1     -33.158  -5.176 -13.977  0.00  0.00     0.275 HD
ENDBRANCH   1  21
TORSDOF 10
ENDMDL
MODEL 4
REMARK VINA RESULT:      -5.7     12.692     14.731
REMARK  10 active torsions:
REMARK  status: ('A' for Active; 'I' for Inactive)
REMARK    1  A    between atoms: C_2  and  S_16 
REMARK    2  A    between atoms: C_2  and  C_3 
REMARK    3  A    between atoms: C_3  and  C_10 
REMARK    4  A    between atoms: C_4  and  C_15 
REMARK    5  A    between atoms: C_4  and  C_22 
REMARK    6  A    between atoms: C_4  and  N_23 
REMARK    7  A    between atoms: C_9  and  C_10 
REMARK    8  A    between atoms: C_10  and  N_12 
REMARK       I    between atoms: N_12  and  C_15 
REMARK       I    between atoms: N_19  and  C_20 
REMARK    9  A    between atoms: C_20  and  C_21 
REMARK   10  A    between atoms: C_21  and  C_22 
ROOT
HETATM    1  C           1     -23.679  -4.596 -10.446  0.00  0.00     0.275 C 
ENDROOT
BRANCH   1   2
HETATM    2  C           1     -23.087  -4.453  -9.066  0.00  0.00     0.249 C 
HETATM    3  O           1     -23.703  -3.880  -8.200  0.00  0.00    -0.271 OA
HETATM    4  N           1     -21.851  -4.976  -8.794  0.00  0.00    -0.345 N 
HETATM    5  H           1     -21.334  -5.457  -9.519  0.00  0.00     0.163 HD
BRANCH   4   6
HETATM    6  C           1     -21.282  -4.840  -7.467  0.00  0.00     0.186 C 
BRANCH   6   7
HETATM    7  C           1     -21.298  -6.193  -6.768  0.00  0.00     0.046 C 
BRANCH   7   8
HETATM    8  C           1     -22.134  -6.099  -5.498  0.00  0.00     0.076 C 
BRANCH   8   9
HETATM    9  S           1     -21.184  -6.756  -4.098  0.00  0.00    -0.173 SA
HETATM   10  C           1     -20.116  -7.849  -5.078  0.00  0.00     0.089 C 
ENDBRANCH   8   9
ENDBRANCH   7   8
ENDBRANCH   6   7
BRANCH   6  11
HETATM   11  C           1     -19.860  -4.347  -7.578  0.00  0.00     0.196 C 
HETATM   12  O           1     -18.998  -4.740  -6.764  0.00  0.00    -0.646 OA
HETATM   13  O           1     -19.546  -3.547  -8.486  0.00  0.00    -0.646 OA
ENDBRANCH   6  11
ENDBRANCH   4   6
ENDBRANCH   1   2
BRANCH   1  14
HETATM   14  C           1     -22.614  -4.284 -11.491  0.00  0.00     0.052 C 
BRANCH  14  15
HETATM   15  C           1     -22.733  -2.828 -11.919  0.00  0.00     0.105 C 
BRANCH  15  16
HETATM   16  C           1     -23.296  -2.758 -13.318  0.00  0.00     0.215 C 
HETATM   17  N           1     -22.494  -3.038 -14.393  0.00  0.00    -0.370 N 
HETATM   18  H           1     -22.872  -2.991 -15.330  0.00  0.00     0.159 HD
HETATM   19  H           1     -21.525  -3.292 -14.249  0.00  0.00     0.159 HD
HETATM   20  O           1     -24.452  -2.456 -13.489  0.00  0.00    -0.274 OA
ENDBRANCH  15  16
ENDBRANCH  14  15
ENDBRANCH   1  14
BRANCH   1  21
HETATM   21  N           1     -24.824  -3.640 -10.601  0.00  0.00    -0.066 N 
HETATM   22  H           1     -24.461  -2.660 -10.628  0.00  0.00     0.275 HD
HETATM   23  H           1     -25.333  -3.848 -11.491  0.00  0.00     0.275 HD
HETATM   24  H           1     -25.478  -3.746  -9.792  0.00  0.00     0.275 HD
ENDBRANCH   1  21
TORSDOF 10
ENDMDL
MODEL 5
REMARK VINA RESULT:      -5.5     12.607     14.166
REMARK  10 active torsions:
REMARK  status: ('A' for Active; 'I' for Inactive)
REMARK    1  A    between atoms: C_2  and  S_16 
REMARK    2  A    between atoms: C_2  and  C_3 
REMARK    3  A    between atoms: C_3  and  C_10 
REMARK    4  A    between atoms: C_4  and  C_15 
REMARK    5  A    between atoms: C_4  and  C_22 
REMARK    6  A    between atoms: C_4  and  N_23 
REMARK    7  A    between atoms: C_9  and  C_10 
REMARK    8  A    between atoms: C_10  and  N_12 
REMARK       I    between atoms: N_12  and  C_15 
REMARK       I    between atoms: N_19  and  C_20 
REMARK    9  A    between atoms: C_20  and  C_21 
REMARK   10  A    between atoms: C_21  and  C_22 
ROOT
HETATM    1  C           1     -21.532  -5.393  -5.967  0.00  0.00     0.275 C 
ENDROOT
BRANCH   1   2
HETATM    2  C           1     -21.775  -4.379  -7.056  0.00  0.00     0.249 C 
HETATM    3  O           1     -21.266  -3.285  -6.988  0.00  0.00    -0.271 OA
HETATM    4  N           1     -22.569  -4.699  -8.124  0.00  0.00    -0.345 N 
HETATM    5  H           1     -22.995  -5.615  -8.183  0.00  0.00     0.163 HD
BRANCH   4   6
HETATM    6  C           1     -22.802  -3.724  -9.173  0.00  0.00     0.186 C 
BRANCH   6   7
HETATM    7  C           1     -21.885  -4.020 -10.352  0.00  0.00     0.046 C 
BRANCH   7   8
HETATM    8  C           1     -21.972  -2.883 -11.361  0.00  0.00     0.076 C 
BRANCH   8   9
HETATM    9  S           1     -22.536  -3.532 -12.959  0.00  0.00    -0.173 SA
HETATM   10  C           1     -24.035  -2.515 -13.069  0.00  0.00     0.089 C 
ENDBRANCH   8   9
ENDBRANCH   7   8
ENDBRANCH   6   7
BRANCH   6  11
HETATM   11  C           1     -24.241  -3.802  -9.620  0.00  0.00     0.196 C 
HETATM   12  O           1     -24.974  -2.792  -9.546  0.00  0.00    -0.646 OA
HETATM   13  O           1     -24.699  -4.876 -10.066  0.00  0.00    -0.646 OA
ENDBRANCH   6  11
ENDBRANCH   4   6
ENDBRANCH   1   2
BRANCH   1  14
HETATM   14  C           1     -20.831  -6.612  -6.553  0.00  0.00     0.052 C 
BRANCH  14  15
HETATM   15  C           1     -20.126  -7.377  -5.441  0.00  0.00     0.105 C 
BRANCH  15  16
HETATM   16  C           1     -20.902  -8.632  -5.122  0.00  0.00     0.215 C 
HETATM   17  N           1     -20.565  -9.816  -5.723  0.00  0.00    -0.370 N 
HETATM   18  H           1     -21.086 -10.656  -5.509  0.00  0.00     0.159 HD
HETATM   19  H           1     -19.797  -9.849  -6.381  0.00  0.00     0.159 HD
HETATM   20  O           1     -21.818  -8.592  -4.337  0.00  0.00    -0.274 OA
ENDBRANCH  15  16
ENDBRANCH  14  15
ENDBRANCH   1  14
BRANCH   1  21
HETATM   21  N           1     -22.843  -5.811  -5.370  0.00  0.00    -0.066 N 
HETATM   22  H           1     -23.616  -5.600  -6.041  0.00  0.00     0.275 HD
HETATM   23  H           1     -22.824  -6.838  -5.172  0.00  0.00     0.275 HD
HETATM   24  H           1     -23.003  -5.288  -4.480  0.00  0.00     0.275 HD
ENDBRANCH   1  21
TORSDOF 10
ENDMDL
MODEL 6
REMARK VINA RESULT:      -5.5     14.204     16.269
REMARK  10 active torsions:
REMARK  status: ('A' for Active; 'I' for Inactive)
REMARK    1  A    between atoms: C_2  and  S_16 
REMARK    2  A    between atoms: C_2  and  C_3 
REMARK    3  A    between atoms: C_3  and  C_10 
REMARK    4  A    between atoms: C_4  and  C_15 
REMARK    5  A    between atoms: C_4  and  C_22 
REMARK    6  A    between atoms: C_4  and  N_23 
REMARK    7  A    between atoms: C_9  and  C_10 
REMARK    8  A    between atoms: C_10  and  N_12 
REMARK       I    between atoms: N_12  and  C_15 
REMARK       I    between atoms: N_19  and  C_20 
REMARK    9  A    between atoms: C_20  and  C_21 
REMARK   10  A    between atoms: C_21  and  C_22 
ROOT
HETATM    1  C           1     -21.517  -4.617  -8.549  0.00  0.00     0.275 C 
ENDROOT
BRANCH   1   2
HETATM    2  C           1     -21.083  -5.078  -7.180  0.00  0.00     0.249 C 
HETATM    3  O           1     -20.637  -4.282  -6.387  0.00  0.00    -0.271 OA
HETATM    4  N           1     -21.197  -6.397  -6.835  0.00  0.00    -0.345 N 
HETATM    5  H           1     -21.571  -7.064  -7.498  0.00  0.00     0.163 HD
BRANCH   4   6
HETATM    6  C           1     -20.781  -6.841  -5.518  0.00  0.00     0.186 C 
BRANCH   6   7
HETATM    7  C           1     -21.962  -6.762  -4.560  0.00  0.00     0.046 C 
BRANCH   7   8
HETATM    8  C           1     -21.480  -6.276  -3.199  0.00  0.00     0.076 C 
BRANCH   8   9
HETATM    9  S           1     -21.348  -7.686  -2.064  0.00  0.00    -0.173 SA
HETATM   10  C           1     -22.406  -6.994  -0.763  0.00  0.00     0.089 C 
ENDBRANCH   8   9
ENDBRANCH   7   8
ENDBRANCH   6   7
BRANCH   6  11
HETATM   11  C           1     -20.292  -8.267  -5.599  0.00  0.00     0.196 C 
HETATM   12  O           1     -19.068  -8.511  -5.556  0.00  0.00    -0.646 OA
HETATM   13  O           1     -21.114  -9.203  -5.710  0.00  0.00    -0.646 OA
ENDBRANCH   6  11
ENDBRANCH   4   6
ENDBRANCH   1   2
BRANCH   1  14
HETATM   14  C           1     -20.322  -4.034  -9.293  0.00  0.00     0.052 C 
BRANCH  14  15
HETATM   15  C           1     -20.329  -4.530 -10.732  0.00  0.00     0.105 C 
BRANCH  15  16
HETATM   16  C           1     -21.441  -3.852 -11.494  0.00  0.00     0.215 C 
HETATM   17  N           1     -22.319  -4.598 -12.233  0.00  0.00    -0.370 N 
HETATM   18  H           1     -23.064  -4.143 -12.744  0.00  0.00     0.159 HD
HETATM   19  H           1     -22.222  -5.605 -12.269  0.00  0.00     0.159 HD
HETATM   20  O           1     -21.557  -2.650 -11.452  0.00  0.00    -0.274 OA
ENDBRANCH  15  16
ENDBRANCH  14  15
ENDBRANCH   1  14
BRANCH   1  21
HETATM   21  N           1     -22.579  -3.566  -8.411  0.00  0.00    -0.066 N 
HETATM   22  H           1     -22.610  -3.228  -7.423  0.00  0.00     0.275 HD
HETATM   23  H           1     -22.360  -2.765  -9.046  0.00  0.00     0.275 HD
HETATM   24  H           1     -23.506  -3.972  -8.669  0.00  0.00     0.275 HD
ENDBRANCH   1  21
TORSDOF 10
ENDMDL
MODEL 7
REMARK VINA RESULT:      -5.4     14.522     16.980
REMARK  10 active torsions:
REMARK  status: ('A' for Active; 'I' for Inactive)
REMARK    1  A    between atoms: C_2  and  S_16 
REMARK    2  A    between atoms: C_2  and  C_3 
REMARK    3  A    between atoms: C_3  and  C_10 
REMARK    4  A    between atoms: C_4  and  C_15 
REMARK    5  A    between atoms: C_4  and  C_22 
REMARK    6  A    between atoms: C_4  and  N_23 
REMARK    7  A    between atoms: C_9  and  C_10 
REMARK    8  A    between atoms: C_10  and  N_12 
REMARK       I    between atoms: N_12  and  C_15 
REMARK       I    between atoms: N_19  and  C_20 
REMARK    9  A    between atoms: C_20  and  C_21 
REMARK   10  A    between atoms: C_21  and  C_22 
ROOT
HETATM    1  C           1     -20.460  -5.036  -6.585  0.00  0.00     0.275 C 
ENDROOT
BRANCH   1   2
HETATM    2  C           1     -21.378  -5.793  -5.657  0.00  0.00     0.249 C 
HETATM    3  O           1     -22.563  -5.557  -5.653  0.00  0.00    -0.271 OA
HETATM    4  N           1     -20.868  -6.750  -4.822  0.00  0.00    -0.345 N 
HETATM    5  H           1     -19.876  -6.949  -4.825  0.00  0.00     0.163 HD
BRANCH   4   6
HETATM    6  C           1     -21.750  -7.479  -3.931  0.00  0.00     0.186 C 
BRANCH   6   7
HETATM    7  C           1     -21.357  -8.951  -3.921  0.00  0.00     0.046 C 
BRANCH   7   8
HETATM    8  C           1     -20.072  -9.138  -4.716  0.00  0.00     0.076 C 
BRANCH   8   9
HETATM    9  S           1     -19.063 -10.432  -3.940  0.00  0.00    -0.173 SA
HETATM   10  C           1     -17.970  -9.309  -3.023  0.00  0.00     0.089 C 
ENDBRANCH   8   9
ENDBRANCH   7   8
ENDBRANCH   6   7
BRANCH   6  11
HETATM   11  C           1     -21.631  -6.917  -2.535  0.00  0.00     0.196 C 
HETATM   12  O           1     -22.324  -5.934  -2.197  0.00  0.00    -0.646 OA
HETATM   13  O           1     -20.839  -7.435  -1.718  0.00  0.00    -0.646 OA
ENDBRANCH   6  11
ENDBRANCH   4   6
ENDBRANCH   1   2
BRANCH   1  14
HETATM   14  C           1     -21.196  -3.830  -7.156  0.00  0.00     0.052 C 
BRANCH  14  15
HETATM   15  C           1     -21.436  -4.040  -8.645  0.00  0.00     0.105 C 
BRANCH  15  16
HETATM   16  C           1     -22.911  -3.918  -8.940  0.00  0.00     0.215 C 
HETATM   17  N           1     -23.826  -4.059  -7.930  0.00  0.00    -0.370 N 
HETATM   18  H           1     -24.814  -3.977  -8.129  0.00  0.00     0.159 HD
HETATM   19  H           1     -23.512  -4.245  -6.986  0.00  0.00     0.159 HD
HETATM   20  O           1     -23.285  -3.696 -10.067  0.00  0.00    -0.274 OA
ENDBRANCH  15  16
ENDBRANCH  14  15
ENDBRANCH   1  14
BRANCH   1  21
HETATM   21  N           1     -20.028  -5.934  -7.705  0.00  0.00    -0.066 N 
HETATM   22  H           1     -20.854  -6.458  -8.072  0.00  0.00     0.275 HD
HETATM   23  H           1     -19.612  -5.357  -8.473  0.00  0.00     0.275 HD
HETATM   24  H           1     -19.314  -6.611  -7.353  0.00  0.00     0.275 HD
ENDBRANCH   1  21
TORSDOF 10
ENDMDL
MODEL 8
REMARK VINA RESULT:      -5.3     13.829     16.117
REMARK  10 active torsions:
REMARK  status: ('A' for Active; 'I' for Inactive)
REMARK    1  A    between atoms: C_2  and  S_16 
REMARK    2  A    between atoms: C_2  and  C_3 
REMARK    3  A    between atoms: C_3  and  C_10 
REMARK    4  A    between atoms: C_4  and  C_15 
REMARK    5  A    between atoms: C_4  and  C_22 
REMARK    6  A    between atoms: C_4  and  N_23 
REMARK    7  A    between atoms: C_9  and  C_10 
REMARK    8  A    between atoms: C_10  and  N_12 
REMARK       I    between atoms: N_12  and  C_15 
REMARK       I    between atoms: N_19  and  C_20 
REMARK    9  A    between atoms: C_20  and  C_21 
REMARK   10  A    between atoms: C_21  and  C_22 
ROOT
HETATM    1  C           1     -20.936  -3.888  -7.596  0.00  0.00     0.275 C 
ENDROOT
BRANCH   1   2
HETATM    2  C           1     -20.548  -4.701  -6.385  0.00  0.00     0.249 C 
HETATM    3  O           1     -19.564  -4.407  -5.750  0.00  0.00    -0.271 OA
HETATM    4  N           1     -21.314  -5.770  -6.006  0.00  0.00    -0.345 N 
HETATM    5  H           1     -22.140  -6.016  -6.537  0.00  0.00     0.163 HD
BRANCH   4   6
HETATM    6  C           1     -20.943  -6.551  -4.841  0.00  0.00     0.186 C 
BRANCH   6   7
HETATM    7  C           1     -22.135  -6.654  -3.899  0.00  0.00     0.046 C 
BRANCH   7   8
HETATM    8  C           1     -21.705  -6.268  -2.490  0.00  0.00     0.076 C 
BRANCH   8   9
HETATM    9  S           1     -21.253  -7.762  -1.564  0.00  0.00    -0.173 SA
HETATM   10  C           1     -22.519  -7.588  -0.276  0.00  0.00     0.089 C 
ENDBRANCH   8   9
ENDBRANCH   7   8
ENDBRANCH   6   7
BRANCH   6  11
HETATM   11  C           1     -20.523  -7.933  -5.277  0.00  0.00     0.196 C 
HETATM   12  O           1     -19.455  -8.424  -4.853  0.00  0.00    -0.646 OA
HETATM   13  O           1     -21.245  -8.587  -6.062  0.00  0.00    -0.646 OA
ENDBRANCH   6  11
ENDBRANCH   4   6
ENDBRANCH   1   2
BRANCH   1  14
HETATM   14  C           1     -22.374  -4.206  -7.983  0.00  0.00     0.052 C 
BRANCH  14  15
HETATM   15  C           1     -22.492  -4.262  -9.500  0.00  0.00     0.105 C 
BRANCH  15  16
HETATM   16  C           1     -23.762  -3.570  -9.933  0.00  0.00     0.215 C 
HETATM   17  N           1     -24.711  -3.237  -9.004  0.00  0.00    -0.370 N 
HETATM   18  H           1     -25.562  -2.775  -9.295  0.00  0.00     0.159 HD
HETATM   19  H           1     -24.561  -3.455  -8.027  0.00  0.00     0.159 HD
HETATM   20  O           1     -23.941  -3.311 -11.099  0.00  0.00    -0.274 OA
ENDBRANCH  15  16
ENDBRANCH  14  15
ENDBRANCH   1  14
BRANCH   1  21
HETATM   21  N           1     -20.025  -4.226  -8.738  0.00  0.00    -0.066 N 
HETATM   22  H           1     -19.084  -3.804  -8.573  0.00  0.00     0.275 HD
HETATM   23  H           1     -19.933  -5.265  -8.814  0.00  0.00     0.275 HD
HETATM   24  H           1     -20.426  -3.847  -9.627  0.00  0.00     0.275 HD
ENDBRANCH   1  21
TORSDOF 10
ENDMDL
MODEL 9
REMARK VINA RESULT:      -5.2     25.529     26.698
REMARK  10 active torsions:
REMARK  status: ('A' for Active; 'I' for Inactive)
REMARK    1  A    between atoms: C_2  and  S_16 
REMARK    2  A    between atoms: C_2  and  C_3 
REMARK    3  A    between atoms: C_3  and  C_10 
REMARK    4  A    between atoms: C_4  and  C_15 
REMARK    5  A    between atoms: C_4  and  C_22 
REMARK    6  A    between atoms: C_4  and  N_23 
REMARK    7  A    between atoms: C_9  and  C_10 
REMARK    8  A    between atoms: C_10  and  N_12 
REMARK       I    between atoms: N_12  and  C_15 
REMARK       I    between atoms: N_19  and  C_20 
REMARK    9  A    between atoms: C_20  and  C_21 
REMARK   10  A    between atoms: C_21  and  C_22 
ROOT
HETATM    1  C           1     -12.902   5.303 -20.531  0.00  0.00     0.275 C 
ENDROOT
BRANCH   1   2
HETATM    2  C           1     -12.558   6.757 -20.743  0.00  0.00     0.249 C 
HETATM    3  O           1     -12.414   7.187 -21.863  0.00  0.00    -0.271 OA
HETATM    4  N           1     -12.411   7.589 -19.666  0.00  0.00    -0.345 N 
HETATM    5  H           1     -12.533   7.229 -18.728  0.00  0.00     0.163 HD
BRANCH   4   6
HETATM    6  C           1     -12.082   8.987 -19.869  0.00  0.00     0.186 C 
BRANCH   6   7
HETATM    7  C           1     -12.928   9.847 -18.940  0.00  0.00     0.046 C 
BRANCH   7   8
HETATM    8  C           1     -13.654  10.911 -19.752  0.00  0.00     0.076 C 
BRANCH   8   9
HETATM    9  S           1     -14.671  11.929 -18.646  0.00  0.00    -0.173 SA
HETATM   10  C           1     -15.197  10.575 -17.558  0.00  0.00     0.089 C 
ENDBRANCH   8   9
ENDBRANCH   7   8
ENDBRANCH   6   7
BRANCH   6  11
HETATM   11  C           1     -10.620   9.207 -19.568  0.00  0.00     0.196 C 
HETATM   12  O           1     -10.140   8.816 -18.483  0.00  0.00    -0.646 OA
HETATM   13  O           1      -9.889   9.780 -20.405  0.00  0.00    -0.646 OA
ENDBRANCH   6  11
ENDBRANCH   4   6
ENDBRANCH   1   2
BRANCH   1  14
HETATM   14  C           1     -11.867   4.664 -19.613  0.00  0.00     0.052 C 
BRANCH  14  15
HETATM   15  C           1     -10.519   4.620 -20.320  0.00  0.00     0.105 C 
BRANCH  15  16
HETATM   16  C           1      -9.565   5.577 -19.647  0.00  0.00     0.215 C 
HETATM   17  N           1      -9.521   5.651 -18.280  0.00  0.00    -0.370 N 
HETATM   18  H           1      -8.882   6.292 -17.830  0.00  0.00     0.159 HD
HETATM   19  H           1     -10.128   5.064 -17.722  0.00  0.00     0.159 HD
HETATM   20  O           1      -8.841   6.276 -20.313  0.00  0.00    -0.274 OA
ENDBRANCH  15  16
ENDBRANCH  14  15
ENDBRANCH   1  14
BRANCH   1  21
HETATM   21  N           1     -12.905   4.592 -21.851  0.00  0.00    -0.066 N 
HETATM   22  H           1     -13.747   3.977 -21.916  0.00  0.00     0.275 HD
HETATM   23  H           1     -12.925   5.295 -22.625  0.00  0.00     0.275 HD
HETATM   24  H           1     -12.041   4.008 -21.934  0.00  0.00     0.275 HD
ENDBRANCH   1  21
TORSDOF 10
ENDMDL
