MODEL 1
REMARK VINA RESULT:      -8.3      0.000      0.000
REMARK  8 active torsions:
REMARK  status: ('A' for Active; 'I' for Inactive)
REMARK    1  A    between atoms: N_1  and  C_2 
REMARK    2  A    between atoms: C_2  and  C_15 
REMARK    3  A    between atoms: C_2  and  C_22 
REMARK    4  A    between atoms: C_4  and  C_10 
REMARK    5  A    between atoms: C_6  and  C_22 
REMARK    6  A    between atoms: C_10  and  C_13 
REMARK    7  A    between atoms: C_10  and  N_16 
REMARK    8  A    between atoms: C_13  and  O_14 
REMARK       I    between atoms: C_15  and  N_16 
ROOT
HETATM    1  C           1     -21.096  -5.835  -6.872  0.00  0.00     0.278 C 
ENDROOT
BRANCH   1   2
HETATM    2  N           1     -19.728  -6.112  -7.422  0.00  0.00    -0.066 N 
HETATM    3  H           1     -19.644  -5.693  -8.374  0.00  0.00     0.275 HD
HETATM    4  H           1     -19.009  -5.691  -6.790  0.00  0.00     0.275 HD
HETATM    5  H           1     -19.579  -7.145  -7.480  0.00  0.00     0.275 HD
ENDBRANCH   1   2
BRANCH   1   6
HETATM    6  C           1     -21.675  -4.621  -7.555  0.00  0.00     0.249 C 
HETATM    7  O           1     -21.626  -3.542  -7.014  0.00  0.00    -0.271 OA
HETATM    8  N           1     -22.257  -4.741  -8.789  0.00  0.00    -0.343 N 
HETATM    9  H           1     -22.299  -5.644  -9.243  0.00  0.00     0.163 HD
BRANCH   8  10
HETATM   10  C           1     -22.814  -3.574  -9.445  0.00  0.00     0.214 C 
BRANCH  10  11
HETATM   11  C           1     -24.290  -3.787  -9.680  0.00  0.00     0.199 C 
HETATM   12  O           1     -25.080  -2.821  -9.606  0.00  0.00    -0.646 OA
HETATM   13  O           1     -24.721  -4.929  -9.948  0.00  0.00    -0.646 OA
ENDBRANCH  10  11
BRANCH  10  14
HETATM   14  C           1     -22.114  -3.359 -10.780  0.00  0.00     0.147 C 
HETATM   15  C           1     -21.040  -4.422 -10.967  0.00  0.00     0.042 C 
BRANCH  14  16
HETATM   16  O           1     -23.050  -3.454 -11.819  0.00  0.00    -0.393 OA
HETATM   17  H           1     -23.419  -2.594 -11.935  0.00  0.00     0.210 HD
ENDBRANCH  14  16
ENDBRANCH  10  14
ENDBRANCH   8  10
ENDBRANCH   1   6
BRANCH   1  18
HETATM   18  C           1     -20.998  -5.578  -5.374  0.00  0.00     0.083 C 
BRANCH  18  19
HETATM   19  C           1     -21.074  -6.878  -4.638  0.00  0.00    -0.028 A 
HETATM   20  C           1     -20.748  -8.117  -5.142  0.00  0.00     0.096 A 
HETATM   21  N           1     -20.956  -9.040  -4.152  0.00  0.00    -0.365 N 
HETATM   22  C           1     -21.411  -8.420  -3.010  0.00  0.00     0.042 A 
HETATM   23  H           1     -20.791 -10.073  -4.250  0.00  0.00     0.165 HD
HETATM   24  C           1     -21.752  -8.957  -1.763  0.00  0.00     0.030 A 
HETATM   25  C           1     -21.494  -7.056  -3.290  0.00  0.00    -0.002 A 
HETATM   26  C           1     -22.190  -8.071  -0.775  0.00  0.00     0.002 A 
HETATM   27  C           1     -22.283  -6.703  -1.026  0.00  0.00     0.001 A 
HETATM   28  C           1     -21.938  -6.182  -2.280  0.00  0.00     0.014 A 
ENDBRANCH  18  19
ENDBRANCH   1  18
TORSDOF 8
ENDMDL
MODEL 2
REMARK VINA RESULT:      -7.6      2.913      7.878
REMARK  8 active torsions:
REMARK  status: ('A' for Active; 'I' for Inactive)
REMARK    1  A    between atoms: N_1  and  C_2 
REMARK    2  A    between atoms: C_2  and  C_15 
REMARK    3  A    between atoms: C_2  and  C_22 
REMARK    4  A    between atoms: C_4  and  C_10 
REMARK    5  A    between atoms: C_6  and  C_22 
REMARK    6  A    between atoms: C_10  and  C_13 
REMARK    7  A    between atoms: C_10  and  N_16 
REMARK    8  A    between atoms: C_13  and  O_14 
REMARK       I    between atoms: C_15  and  N_16 
ROOT
HETATM    1  C           1     -22.197  -5.141  -6.815  0.00  0.00     0.278 C 
ENDROOT
BRANCH   1   2
HETATM    2  N           1     -23.617  -4.891  -6.399  0.00  0.00    -0.066 N 
HETATM    3  H           1     -23.854  -5.501  -5.585  0.00  0.00     0.275 HD
HETATM    4  H           1     -23.727  -3.888  -6.126  0.00  0.00     0.275 HD
HETATM    5  H           1     -24.257  -5.108  -7.196  0.00  0.00     0.275 HD
ENDBRANCH   1   2
BRANCH   1   6
HETATM    6  C           1     -21.401  -5.616  -5.625  0.00  0.00     0.249 C 
HETATM    7  O           1     -20.333  -5.111  -5.371  0.00  0.00    -0.271 OA
HETATM    8  N           1     -21.888  -6.621  -4.832  0.00  0.00    -0.343 N 
HETATM    9  H           1     -22.782  -7.044  -5.044  0.00  0.00     0.163 HD
BRANCH   8  10
HETATM   10  C           1     -21.122  -7.078  -3.689  0.00  0.00     0.214 C 
BRANCH  10  11
HETATM   11  C           1     -20.627  -8.480  -3.945  0.00  0.00     0.199 C 
HETATM   12  O           1     -19.399  -8.714  -3.972  0.00  0.00    -0.646 OA
HETATM   13  O           1     -21.444  -9.407  -4.130  0.00  0.00    -0.646 OA
ENDBRANCH  10  11
BRANCH  10  14
HETATM   14  C           1     -22.007  -7.071  -2.449  0.00  0.00     0.147 C 
HETATM   15  C           1     -21.216  -7.593  -1.258  0.00  0.00     0.042 C 
BRANCH  14  16
HETATM   16  O           1     -22.434  -5.761  -2.187  0.00  0.00    -0.393 OA
HETATM   17  H           1     -22.908  -5.470  -2.948  0.00  0.00     0.210 HD
ENDBRANCH  14  16
ENDBRANCH  10  14
ENDBRANCH   8  10
ENDBRANCH   1   6
BRANCH   1  18
HETATM   18  C           1     -21.591  -3.850  -7.350  0.00  0.00     0.083 C 
BRANCH  18  19
HETATM   19  C           1     -21.350  -3.983  -8.821  0.00  0.00    -0.028 A 
HETATM   20  C           1     -20.159  -4.326  -9.421  0.00  0.00     0.096 A 
HETATM   21  N           1     -20.361  -4.336 -10.775  0.00  0.00    -0.365 N 
HETATM   22  C           1     -21.665  -4.005 -11.066  0.00  0.00     0.042 A 
HETATM   23  H           1     -19.625  -4.564 -11.490  0.00  0.00     0.165 HD
HETATM   24  C           1     -22.316  -3.891 -12.300  0.00  0.00     0.030 A 
HETATM   25  C           1     -22.310  -3.778  -9.850  0.00  0.00    -0.002 A 
HETATM   26  C           1     -23.668  -3.535 -12.287  0.00  0.00     0.002 A 
HETATM   27  C           1     -24.339  -3.301 -11.088  0.00  0.00     0.001 A 
HETATM   28  C           1     -23.672  -3.420  -9.863  0.00  0.00     0.014 A 
ENDBRANCH  18  19
ENDBRANCH   1  18
TORSDOF 8
ENDMDL
MODEL 3
REMARK VINA RESULT:      -7.6      2.838      7.852
REMARK  8 active torsions:
REMARK  status: ('A' for Active; 'I' for Inactive)
REMARK    1  A    between atoms: N_1  and  C_2 
REMARK    2  A    between atoms: C_2  and  C_15 
REMARK    3  A    between atoms: C_2  and  C_22 
REMARK    4  A    between atoms: C_4  and  C_10 
REMARK    5  A    between atoms: C_6  and  C_22 
REMARK    6  A    between atoms: C_10  and  C_13 
REMARK    7  A    between atoms: C_10  and  N_16 
REMARK    8  A    between atoms: C_13  and  O_14 
REMARK       I    between atoms: C_15  and  N_16 
ROOT
HETATM    1  C           1     -21.137  -4.957  -6.208  0.00  0.00     0.278 C 
ENDROOT
BRANCH   1   2
HETATM    2  N           1     -19.709  -4.660  -5.856  0.00  0.00    -0.066 N 
HETATM    3  H           1     -19.269  -5.511  -5.442  0.00  0.00     0.275 HD
HETATM    4  H           1     -19.190  -4.382  -6.719  0.00  0.00     0.275 HD
HETATM    5  H           1     -19.678  -3.879  -5.163  0.00  0.00     0.275 HD
ENDBRANCH   1   2
BRANCH   1   6
HETATM    6  C           1     -21.673  -6.021  -5.282  0.00  0.00     0.249 C 
HETATM    7  O           1     -22.865  -6.159  -5.144  0.00  0.00    -0.271 OA
HETATM    8  N           1     -20.806  -6.829  -4.595  0.00  0.00    -0.343 N 
HETATM    9  H           1     -19.808  -6.715  -4.710  0.00  0.00     0.163 HD
BRANCH   8  10
HETATM   10  C           1     -21.320  -7.852  -3.705  0.00  0.00     0.214 C 
BRANCH  10  11
HETATM   11  C           1     -21.219  -7.371  -2.278  0.00  0.00     0.199 C 
HETATM   12  O           1     -20.331  -7.826  -1.526  0.00  0.00    -0.646 OA
HETATM   13  O           1     -22.026  -6.517  -1.848  0.00  0.00    -0.646 OA
ENDBRANCH  10  11
BRANCH  10  14
HETATM   14  C           1     -20.504  -9.127  -3.869  0.00  0.00     0.147 C 
HETATM   15  C           1     -21.019  -9.908  -5.071  0.00  0.00     0.042 C 
BRANCH  14  16
HETATM   16  O           1     -19.157  -8.796  -4.069  0.00  0.00    -0.393 OA
HETATM   17  H           1     -19.116  -8.277  -4.855  0.00  0.00     0.210 HD
ENDBRANCH  14  16
ENDBRANCH  10  14
ENDBRANCH   8  10
ENDBRANCH   1   6
BRANCH   1  18
HETATM   18  C           1     -21.212  -5.451  -7.647  0.00  0.00     0.083 C 
BRANCH  18  19
HETATM   19  C           1     -22.250  -4.671  -8.390  0.00  0.00    -0.028 A 
HETATM   20  C           1     -23.454  -4.235  -7.885  0.00  0.00     0.096 A 
HETATM   21  N           1     -24.108  -3.562  -8.883  0.00  0.00    -0.365 N 
HETATM   22  C           1     -23.347  -3.555 -10.030  0.00  0.00     0.042 A 
HETATM   23  H           1     -25.054  -3.116  -8.786  0.00  0.00     0.165 HD
HETATM   24  C           1     -23.609  -2.993 -11.286  0.00  0.00     0.030 A 
HETATM   25  C           1     -22.171  -4.248  -9.746  0.00  0.00    -0.002 A 
HETATM   26  C           1     -22.635  -3.145 -12.278  0.00  0.00     0.002 A 
HETATM   27  C           1     -21.450  -3.833 -12.023  0.00  0.00     0.001 A 
HETATM   28  C           1     -21.205  -4.389 -10.761  0.00  0.00     0.014 A 
ENDBRANCH  18  19
ENDBRANCH   1  18
TORSDOF 8
ENDMDL
MODEL 4
REMARK VINA RESULT:      -7.5      3.464      7.887
REMARK  8 active torsions:
REMARK  status: ('A' for Active; 'I' for Inactive)
REMARK    1  A    between atoms: N_1  and  C_2 
REMARK    2  A    between atoms: C_2  and  C_15 
REMARK    3  A    between atoms: C_2  and  C_22 
REMARK    4  A    between atoms: C_4  and  C_10 
REMARK    5  A    between atoms: C_6  and  C_22 
REMARK    6  A    between atoms: C_10  and  C_13 
REMARK    7  A    between atoms: C_10  and  N_16 
REMARK    8  A    between atoms: C_13  and  O_14 
REMARK       I    between atoms: C_15  and  N_16 
ROOT
HETATM    1  C           1     -21.451  -6.170  -5.721  0.00  0.00     0.278 C 
ENDROOT
BRANCH   1   2
HETATM    2  N           1     -21.846  -5.948  -4.290  0.00  0.00    -0.066 N 
HETATM    3  H           1     -22.758  -5.440  -4.256  0.00  0.00     0.275 HD
HETATM    4  H           1     -21.942  -6.871  -3.809  0.00  0.00     0.275 HD
HETATM    5  H           1     -21.112  -5.379  -3.811  0.00  0.00     0.275 HD
ENDBRANCH   1   2
BRANCH   1   6
HETATM    6  C           1     -20.310  -7.155  -5.779  0.00  0.00     0.249 C 
HETATM    7  O           1     -19.520  -7.112  -6.692  0.00  0.00    -0.271 OA
HETATM    8  N           1     -20.171  -8.101  -4.798  0.00  0.00    -0.343 N 
HETATM    9  H           1     -20.832  -8.138  -4.034  0.00  0.00     0.163 HD
BRANCH   8  10
HETATM   10  C           1     -19.075  -9.048  -4.855  0.00  0.00     0.214 C 
BRANCH  10  11
HETATM   11  C           1     -19.550 -10.328  -5.497  0.00  0.00     0.199 C 
HETATM   12  O           1     -18.841 -10.899  -6.353  0.00  0.00    -0.646 OA
HETATM   13  O           1     -20.655 -10.816  -5.174  0.00  0.00    -0.646 OA
ENDBRANCH  10  11
BRANCH  10  14
HETATM   14  C           1     -18.582  -9.341  -3.443  0.00  0.00     0.147 C 
HETATM   15  C           1     -19.607  -8.840  -2.434  0.00  0.00     0.042 C 
BRANCH  14  16
HETATM   16  O           1     -18.412 -10.724  -3.287  0.00  0.00    -0.393 OA
HETATM   17  H           1     -17.747 -10.846  -2.630  0.00  0.00     0.210 HD
ENDBRANCH  14  16
ENDBRANCH  10  14
ENDBRANCH   8  10
ENDBRANCH   1   6
BRANCH   1  18
HETATM   18  C           1     -21.013  -4.848  -6.337  0.00  0.00     0.083 C 
BRANCH  18  19
HETATM   19  C           1     -21.963  -4.465  -7.428  0.00  0.00    -0.028 A 
HETATM   20  C           1     -23.326  -4.316  -7.302  0.00  0.00     0.096 A 
HETATM   21  N           1     -23.823  -3.961  -8.528  0.00  0.00    -0.365 N 
HETATM   22  C           1     -22.803  -3.877  -9.449  0.00  0.00     0.042 A 
HETATM   23  H           1     -24.836  -3.779  -8.735  0.00  0.00     0.165 HD
HETATM   24  C           1     -22.838  -3.550 -10.811  0.00  0.00     0.030 A 
HETATM   25  C           1     -21.620  -4.190  -8.781  0.00  0.00    -0.002 A 
HETATM   26  C           1     -21.625  -3.544 -11.505  0.00  0.00     0.002 A 
HETATM   27  C           1     -20.427  -3.853 -10.863  0.00  0.00     0.001 A 
HETATM   28  C           1     -20.411  -4.178  -9.501  0.00  0.00     0.014 A 
ENDBRANCH  18  19
ENDBRANCH   1  18
TORSDOF 8
ENDMDL
MODEL 5
REMARK VINA RESULT:      -7.1      1.369      2.224
REMARK  8 active torsions:
REMARK  status: ('A' for Active; 'I' for Inactive)
REMARK    1  A    between atoms: N_1  and  C_2 
REMARK    2  A    between atoms: C_2  and  C_15 
REMARK    3  A    between atoms: C_2  and  C_22 
REMARK    4  A    between atoms: C_4  and  C_10 
REMARK    5  A    between atoms: C_6  and  C_22 
REMARK    6  A    between atoms: C_10  and  C_13 
REMARK    7  A    between atoms: C_10  and  N_16 
REMARK    8  A    between atoms: C_13  and  O_14 
REMARK       I    between atoms: C_15  and  N_16 
ROOT
HETATM    1  C           1     -20.945  -5.338  -6.554  0.00  0.00     0.278 C 
ENDROOT
BRANCH   1   2
HETATM    2  N           1     -20.061  -4.658  -5.550  0.00  0.00    -0.066 N 
HETATM    3  H           1     -20.009  -5.238  -4.683  0.00  0.00     0.275 HD
HETATM    4  H           1     -19.103  -4.545  -5.951  0.00  0.00     0.275 HD
HETATM    5  H           1     -20.456  -3.719  -5.318  0.00  0.00     0.275 HD
ENDBRANCH   1   2
BRANCH   1   6
HETATM    6  C           1     -21.493  -4.312  -7.515  0.00  0.00     0.249 C 
HETATM    7  O           1     -21.568  -3.153  -7.185  0.00  0.00    -0.271 OA
HETATM    8  N           1     -21.907  -4.696  -8.763  0.00  0.00    -0.343 N 
HETATM    9  H           1     -21.844  -5.667  -9.041  0.00  0.00     0.163 HD
BRANCH   8  10
HETATM   10  C           1     -22.434  -3.711  -9.687  0.00  0.00     0.214 C 
BRANCH  10  11
HETATM   11  C           1     -23.896  -3.988  -9.937  0.00  0.00     0.199 C 
HETATM   12  O           1     -24.686  -3.042 -10.140  0.00  0.00    -0.646 OA
HETATM   13  O           1     -24.317  -5.166  -9.939  0.00  0.00    -0.646 OA
ENDBRANCH  10  11
BRANCH  10  14
HETATM   14  C           1     -21.671  -3.789 -11.004  0.00  0.00     0.147 C 
HETATM   15  C           1     -20.331  -4.475 -10.774  0.00  0.00     0.042 C 
BRANCH  14  16
HETATM   16  O           1     -22.419  -4.526 -11.933  0.00  0.00    -0.393 OA
HETATM   17  H           1     -21.948  -4.498 -12.749  0.00  0.00     0.210 HD
ENDBRANCH  14  16
ENDBRANCH  10  14
ENDBRANCH   8  10
ENDBRANCH   1   6
BRANCH   1  18
HETATM   18  C           1     -22.097  -6.025  -5.832  0.00  0.00     0.083 C 
BRANCH  18  19
HETATM   19  C           1     -21.603  -6.612  -4.548  0.00  0.00    -0.028 A 
HETATM   20  C           1     -22.010  -6.254  -3.282  0.00  0.00     0.096 A 
HETATM   21  N           1     -21.320  -7.027  -2.386  0.00  0.00    -0.365 N 
HETATM   22  C           1     -20.470  -7.882  -3.051  0.00  0.00     0.042 A 
HETATM   23  H           1     -21.425  -6.974  -1.343  0.00  0.00     0.165 HD
HETATM   24  C           1     -19.581  -8.842  -2.552  0.00  0.00     0.030 A 
HETATM   25  C           1     -20.630  -7.641  -4.415  0.00  0.00    -0.002 A 
HETATM   26  C           1     -18.835  -9.576  -3.479  0.00  0.00     0.002 A 
HETATM   27  C           1     -18.974  -9.356  -4.849  0.00  0.00     0.001 A 
HETATM   28  C           1     -19.868  -8.392  -5.330  0.00  0.00     0.014 A 
ENDBRANCH  18  19
ENDBRANCH   1  18
TORSDOF 8
ENDMDL
MODEL 6
REMARK VINA RESULT:      -7.0      3.497      7.850
REMARK  8 active torsions:
REMARK  status: ('A' for Active; 'I' for Inactive)
REMARK    1  A    between atoms: N_1  and  C_2 
REMARK    2  A    between atoms: C_2  and  C_15 
REMARK    3  A    between atoms: C_2  and  C_22 
REMARK    4  A    between atoms: C_4  and  C_10 
REMARK    5  A    between atoms: C_6  and  C_22 
REMARK    6  A    between atoms: C_10  and  C_13 
REMARK    7  A    between atoms: C_10  and  N_16 
REMARK    8  A    between atoms: C_13  and  O_14 
REMARK       I    between atoms: C_15  and  N_16 
ROOT
HETATM    1  C           1     -21.721  -6.354  -5.965  0.00  0.00     0.278 C 
ENDROOT
BRANCH   1   2
HETATM    2  N           1     -22.900  -6.122  -5.066  0.00  0.00    -0.066 N 
HETATM    3  H           1     -22.601  -5.566  -4.235  0.00  0.00     0.275 HD
HETATM    4  H           1     -23.638  -5.598  -5.590  0.00  0.00     0.275 HD
HETATM    5  H           1     -23.283  -7.042  -4.751  0.00  0.00     0.275 HD
ENDBRANCH   1   2
BRANCH   1   6
HETATM    6  C           1     -20.779  -7.336  -5.314  0.00  0.00     0.249 C 
HETATM    7  O           1     -19.769  -7.674  -5.884  0.00  0.00    -0.271 OA
HETATM    8  N           1     -21.069  -7.845  -4.076  0.00  0.00    -0.343 N 
HETATM    9  H           1     -21.914  -7.562  -3.597  0.00  0.00     0.163 HD
BRANCH   8  10
HETATM   10  C           1     -20.163  -8.789  -3.450  0.00  0.00     0.214 C 
BRANCH  10  11
HETATM   11  C           1     -20.647 -10.195  -3.709  0.00  0.00     0.199 C 
HETATM   12  O           1     -21.872 -10.438  -3.742  0.00  0.00    -0.646 OA
HETATM   13  O           1     -19.821 -11.116  -3.889  0.00  0.00    -0.646 OA
ENDBRANCH  10  11
BRANCH  10  14
HETATM   14  C           1     -20.122  -8.536  -1.948  0.00  0.00     0.147 C 
HETATM   15  C           1     -21.274  -7.620  -1.556  0.00  0.00     0.042 C 
BRANCH  14  16
HETATM   16  O           1     -20.241  -9.755  -1.266  0.00  0.00    -0.393 OA
HETATM   17  H           1     -21.090  -9.758  -0.856  0.00  0.00     0.210 HD
ENDBRANCH  14  16
ENDBRANCH  10  14
ENDBRANCH   8  10
ENDBRANCH   1   6
BRANCH   1  18
HETATM   18  C           1     -20.997  -5.035  -6.201  0.00  0.00     0.083 C 
BRANCH  18  19
HETATM   19  C           1     -20.921  -4.762  -7.670  0.00  0.00    -0.028 A 
HETATM   20  C           1     -19.798  -4.869  -8.459  0.00  0.00     0.096 A 
HETATM   21  N           1     -20.152  -4.533  -9.738  0.00  0.00    -0.365 N 
HETATM   22  C           1     -21.489  -4.208  -9.794  0.00  0.00     0.042 A 
HETATM   23  H           1     -19.497  -4.524 -10.559  0.00  0.00     0.165 HD
HETATM   24  C           1     -22.279  -3.808 -10.878  0.00  0.00     0.030 A 
HETATM   25  C           1     -21.997  -4.344  -8.502  0.00  0.00    -0.002 A 
HETATM   26  C           1     -23.629  -3.541 -10.631  0.00  0.00     0.002 A 
HETATM   27  C           1     -24.164  -3.668  -9.351  0.00  0.00     0.001 A 
HETATM   28  C           1     -23.359  -4.069  -8.277  0.00  0.00     0.014 A 
ENDBRANCH  18  19
ENDBRANCH   1  18
TORSDOF 8
ENDMDL
MODEL 7
REMARK VINA RESULT:      -6.9      2.553      3.778
REMARK  8 active torsions:
REMARK  status: ('A' for Active; 'I' for Inactive)
REMARK    1  A    between atoms: N_1  and  C_2 
REMARK    2  A    between atoms: C_2  and  C_15 
REMARK    3  A    between atoms: C_2  and  C_22 
REMARK    4  A    between atoms: C_4  and  C_10 
REMARK    5  A    between atoms: C_6  and  C_22 
REMARK    6  A    between atoms: C_10  and  C_13 
REMARK    7  A    between atoms: C_10  and  N_16 
REMARK    8  A    between atoms: C_13  and  O_14 
REMARK       I    between atoms: C_15  and  N_16 
ROOT
HETATM    1  C           1     -20.755  -4.580  -9.994  0.00  0.00     0.278 C 
ENDROOT
BRANCH   1   2
HETATM    2  N           1     -19.444  -4.925 -10.638  0.00  0.00    -0.066 N 
HETATM    3  H           1     -19.075  -5.809 -10.224  0.00  0.00     0.275 HD
HETATM    4  H           1     -19.586  -5.054 -11.666  0.00  0.00     0.275 HD
HETATM    5  H           1     -18.762  -4.151 -10.474  0.00  0.00     0.275 HD
ENDBRANCH   1   2
BRANCH   1   6
HETATM    6  C           1     -21.488  -3.578 -10.852  0.00  0.00     0.249 C 
HETATM    7  O           1     -20.950  -2.543 -11.166  0.00  0.00    -0.271 OA
HETATM    8  N           1     -22.763  -3.842 -11.275  0.00  0.00    -0.343 N 
HETATM    9  H           1     -23.214  -4.709 -11.013  0.00  0.00     0.163 HD
BRANCH   8  10
HETATM   10  C           1     -23.468  -2.879 -12.099  0.00  0.00     0.214 C 
BRANCH  10  11
HETATM   11  C           1     -24.950  -2.986 -11.839  0.00  0.00     0.199 C 
HETATM   12  O           1     -25.368  -3.187 -10.679  0.00  0.00    -0.646 OA
HETATM   13  O           1     -25.760  -2.873 -12.785  0.00  0.00    -0.646 OA
ENDBRANCH  10  11
BRANCH  10  14
HETATM   14  C           1     -23.188  -3.167 -13.569  0.00  0.00     0.147 C 
HETATM   15  C           1     -23.424  -1.905 -14.387  0.00  0.00     0.042 C 
BRANCH  14  16
HETATM   16  O           1     -21.856  -3.578 -13.719  0.00  0.00    -0.393 OA
HETATM   17  H           1     -21.477  -3.039 -14.392  0.00  0.00     0.210 HD
ENDBRANCH  14  16
ENDBRANCH  10  14
ENDBRANCH   8  10
ENDBRANCH   1   6
BRANCH   1  18
HETATM   18  C           1     -20.501  -3.981  -8.617  0.00  0.00     0.083 C 
BRANCH  18  19
HETATM   19  C           1     -21.485  -4.540  -7.639  0.00  0.00    -0.028 A 
HETATM   20  C           1     -22.804  -4.169  -7.513  0.00  0.00     0.096 A 
HETATM   21  N           1     -23.355  -4.917  -6.506  0.00  0.00    -0.365 N 
HETATM   22  C           1     -22.413  -5.769  -5.976  0.00  0.00     0.042 A 
HETATM   23  H           1     -24.353  -4.849  -6.185  0.00  0.00     0.165 HD
HETATM   24  C           1     -22.522  -6.708  -4.942  0.00  0.00     0.030 A 
HETATM   25  C           1     -21.225  -5.552  -6.673  0.00  0.00    -0.002 A 
HETATM   26  C           1     -21.380  -7.444  -4.615  0.00  0.00     0.002 A 
HETATM   27  C           1     -20.178  -7.248  -5.295  0.00  0.00     0.001 A 
HETATM   28  C           1     -20.088  -6.305  -6.326  0.00  0.00     0.014 A 
ENDBRANCH  18  19
ENDBRANCH   1  18
TORSDOF 8
ENDMDL
MODEL 8
REMARK VINA RESULT:      -6.9      2.959      7.698
REMARK  8 active torsions:
REMARK  status: ('A' for Active; 'I' for Inactive)
REMARK    1  A    between atoms: N_1  and  C_2 
REMARK    2  A    between atoms: C_2  and  C_15 
REMARK    3  A    between atoms: C_2  and  C_22 
REMARK    4  A    between atoms: C_4  and  C_10 
REMARK    5  A    between atoms: C_6  and  C_22 
REMARK    6  A    between atoms: C_10  and  C_13 
REMARK    7  A    between atoms: C_10  and  N_16 
REMARK    8  A    between atoms: C_13  and  O_14 
REMARK       I    between atoms: C_15  and  N_16 
ROOT
HETATM    1  C           1     -20.549  -5.782  -5.865  0.00  0.00     0.278 C 
ENDROOT
BRANCH   1   2
HETATM    2  N           1     -20.399  -6.646  -7.082  0.00  0.00    -0.066 N 
HETATM    3  H           1     -19.690  -7.389  -6.897  0.00  0.00     0.275 HD
HETATM    4  H           1     -21.318  -7.089  -7.309  0.00  0.00     0.275 HD
HETATM    5  H           1     -20.087  -6.059  -7.889  0.00  0.00     0.275 HD
ENDBRANCH   1   2
BRANCH   1   6
HETATM    6  C           1     -21.416  -6.487  -4.852  0.00  0.00     0.249 C 
HETATM    7  O           1     -22.582  -6.695  -5.094  0.00  0.00    -0.271 OA
HETATM    8  N           1     -20.883  -6.893  -3.658  0.00  0.00    -0.343 N 
HETATM    9  H           1     -19.907  -6.720  -3.454  0.00  0.00     0.163 HD
BRANCH   8  10
HETATM   10  C           1     -21.717  -7.571  -2.684  0.00  0.00     0.214 C 
BRANCH  10  11
HETATM   11  C           1     -22.207  -6.574  -1.662  0.00  0.00     0.199 C 
HETATM   12  O           1     -22.913  -6.956  -0.705  0.00  0.00    -0.646 OA
HETATM   13  O           1     -21.907  -5.366  -1.775  0.00  0.00    -0.646 OA
ENDBRANCH  10  11
BRANCH  10  14
HETATM   14  C           1     -20.906  -8.655  -1.986  0.00  0.00     0.147 C 
HETATM   15  C           1     -19.670  -8.977  -2.816  0.00  0.00     0.042 C 
BRANCH  14  16
HETATM   16  O           1     -20.513  -8.201  -0.720  0.00  0.00    -0.393 OA
HETATM   17  H           1     -21.259  -7.768  -0.339  0.00  0.00     0.210 HD
ENDBRANCH  14  16
ENDBRANCH  10  14
ENDBRANCH   8  10
ENDBRANCH   1   6
BRANCH   1  18
HETATM   18  C           1     -21.197  -4.461  -6.257  0.00  0.00     0.083 C 
BRANCH  18  19
HETATM   19  C           1     -21.050  -4.250  -7.731  0.00  0.00    -0.028 A 
HETATM   20  C           1     -19.865  -4.117  -8.418  0.00  0.00     0.096 A 
HETATM   21  N           1     -20.166  -3.942  -9.743  0.00  0.00    -0.365 N 
HETATM   22  C           1     -21.530  -3.958  -9.927  0.00  0.00     0.042 A 
HETATM   23  H           1     -19.457  -3.813 -10.507  0.00  0.00     0.165 HD
HETATM   24  C           1     -22.287  -3.818 -11.097  0.00  0.00     0.030 A 
HETATM   25  C           1     -22.111  -4.151  -8.674  0.00  0.00    -0.002 A 
HETATM   26  C           1     -23.678  -3.879 -10.978  0.00  0.00     0.002 A 
HETATM   27  C           1     -24.287  -4.070  -9.738  0.00  0.00     0.001 A 
HETATM   28  C           1     -23.514  -4.208  -8.579  0.00  0.00     0.014 A 
ENDBRANCH  18  19
ENDBRANCH   1  18
TORSDOF 8
ENDMDL
MODEL 9
REMARK VINA RESULT:      -6.9      2.131      3.724
REMARK  8 active torsions:
REMARK  status: ('A' for Active; 'I' for Inactive)
REMARK    1  A    between atoms: N_1  and  C_2 
REMARK    2  A    between atoms: C_2  and  C_15 
REMARK    3  A    between atoms: C_2  and  C_22 
REMARK    4  A    between atoms: C_4  and  C_10 
REMARK    5  A    between atoms: C_6  and  C_22 
REMARK    6  A    between atoms: C_10  and  C_13 
REMARK    7  A    between atoms: C_10  and  N_16 
REMARK    8  A    between atoms: C_13  and  O_14 
REMARK       I    between atoms: C_15  and  N_16 
ROOT
HETATM    1  C           1     -21.246  -8.236  -5.104  0.00  0.00     0.278 C 
ENDROOT
BRANCH   1   2
HETATM    2  N           1     -21.009  -9.587  -5.712  0.00  0.00    -0.066 N 
HETATM    3  H           1     -21.683 -10.275  -5.307  0.00  0.00     0.275 HD
HETATM    4  H           1     -21.146  -9.532  -6.746  0.00  0.00     0.275 HD
HETATM    5  H           1     -20.031  -9.894  -5.505  0.00  0.00     0.275 HD
ENDBRANCH   1   2
BRANCH   1   6
HETATM    6  C           1     -20.902  -7.166  -6.110  0.00  0.00     0.249 C 
HETATM    7  O           1     -19.833  -7.186  -6.673  0.00  0.00    -0.271 OA
HETATM    8  N           1     -21.801  -6.170  -6.385  0.00  0.00    -0.343 N 
HETATM    9  H           1     -22.696  -6.152  -5.914  0.00  0.00     0.163 HD
BRANCH   8  10
HETATM   10  C           1     -21.470  -5.141  -7.351  0.00  0.00     0.214 C 
BRANCH  10  11
HETATM   11  C           1     -20.265  -4.370  -6.870  0.00  0.00     0.199 C 
HETATM   12  O           1     -19.410  -3.972  -7.689  0.00  0.00    -0.646 OA
HETATM   13  O           1     -20.124  -4.129  -5.651  0.00  0.00    -0.646 OA
ENDBRANCH  10  11
BRANCH  10  14
HETATM   14  C           1     -22.651  -4.191  -7.508  0.00  0.00     0.147 C 
HETATM   15  C           1     -23.095  -4.170  -8.964  0.00  0.00     0.042 C 
BRANCH  14  16
HETATM   16  O           1     -23.711  -4.629  -6.702  0.00  0.00    -0.393 OA
HETATM   17  H           1     -24.487  -4.188  -7.006  0.00  0.00     0.210 HD
ENDBRANCH  14  16
ENDBRANCH  10  14
ENDBRANCH   8  10
ENDBRANCH   1   6
BRANCH   1  18
HETATM   18  C           1     -20.370  -8.074  -3.869  0.00  0.00     0.083 C 
BRANCH  18  19
HETATM   19  C           1     -21.174  -7.471  -2.761  0.00  0.00    -0.028 A 
HETATM   20  C           1     -21.468  -6.135  -2.605  0.00  0.00     0.096 A 
HETATM   21  N           1     -22.222  -6.001  -1.470  0.00  0.00    -0.365 N 
HETATM   22  C           1     -22.423  -7.231  -0.884  0.00  0.00     0.042 A 
HETATM   23  H           1     -22.593  -5.091  -1.100  0.00  0.00     0.165 HD
HETATM   24  C           1     -23.125  -7.576   0.277  0.00  0.00     0.030 A 
HETATM   25  C           1     -21.772  -8.175  -1.679  0.00  0.00    -0.002 A 
HETATM   26  C           1     -23.161  -8.927   0.633  0.00  0.00     0.002 A 
HETATM   27  C           1     -22.520  -9.892  -0.142  0.00  0.00     0.001 A 
HETATM   28  C           1     -21.823  -9.529  -1.300  0.00  0.00     0.014 A 
ENDBRANCH  18  19
ENDBRANCH   1  18
TORSDOF 8
ENDMDL
