MODEL 1
REMARK VINA RESULT:      -5.3      0.000      0.000
REMARK  8 active torsions:
REMARK  status: ('A' for Active; 'I' for Inactive)
REMARK    1  A    between atoms: Se_2  and  C_3 
REMARK    2  A    between atoms: C_3  and  C_4 
REMARK    3  A    between atoms: C_4  and  C_5 
REMARK    4  A    between atoms: C_4  and  N_10 
REMARK    5  A    between atoms: C_7  and  C_8 
REMARK    6  A    between atoms: C_7  and  C_16 
REMARK    7  A    between atoms: C_7  and  N_14 
REMARK       I    between atoms: C_8  and  N_10 
REMARK    8  A    between atoms: O_9  and  C_16 
ROOT
HETATM    1  C           1     -23.570  -3.145 -13.154  0.00  0.00     0.251 C 
HETATM    2  N           1     -23.080  -3.169 -11.875  0.00  0.00    -0.345 N 
HETATM    3  O           1     -24.407  -3.946 -13.495  0.00  0.00    -0.271 OA
HETATM    4  H           1     -22.380  -2.497 -11.589  0.00  0.00     0.163 HD
ENDROOT
BRANCH   1   5
HETATM    5  C           1     -23.065  -2.116 -14.135  0.00  0.00     0.297 C 
BRANCH   5   6
HETATM    6  C           1     -24.234  -1.280 -14.642  0.00  0.00     0.206 C 
BRANCH   6   7
HETATM    7  O           1     -23.755  -0.273 -15.491  0.00  0.00    -0.398 OA
HETATM    8  H           1     -24.035  -0.494 -16.364  0.00  0.00     0.209 HD
ENDBRANCH   6   7
ENDBRANCH   5   6
BRANCH   5   9
HETATM    9  N           1     -22.409  -2.809 -15.292  0.00  0.00    -0.064 N 
HETATM   10  H           1     -22.967  -3.653 -15.554  0.00  0.00     0.275 HD
HETATM   11  H           1     -21.443  -3.100 -15.022  0.00  0.00     0.275 HD
HETATM   12  H           1     -22.362  -2.157 -16.108  0.00  0.00     0.275 HD
ENDBRANCH   5   9
ENDBRANCH   1   5
BRANCH   2  13
HETATM   13  C           1     -23.565  -4.158 -10.932  0.00  0.00     0.185 C 
BRANCH  13  14
HETATM   14  C           1     -22.385  -4.769 -10.187  0.00  0.00     0.039 C 
BRANCH  14  15
HETATM   15 Se           1     -20.723  -4.017 -10.874  0.00  0.00     0.000 Se
HETATM   16  H           1     -20.170  -5.317 -11.289  0.00  0.00     0.000 HD
ENDBRANCH  14  15
ENDBRANCH  13  14
BRANCH  13  17
HETATM   17  C           1     -24.494  -3.495  -9.945  0.00  0.00     0.196 C 
HETATM   18  O           1     -25.650  -3.172 -10.295  0.00  0.00    -0.646 OA
HETATM   19  O           1     -24.109  -3.270  -8.777  0.00  0.00    -0.646 OA
ENDBRANCH  13  17
ENDBRANCH   2  13
TORSDOF 8
ENDMDL
MODEL 2
REMARK VINA RESULT:      -5.2      2.451      3.161
REMARK  8 active torsions:
REMARK  status: ('A' for Active; 'I' for Inactive)
REMARK    1  A    between atoms: Se_2  and  C_3 
REMARK    2  A    between atoms: C_3  and  C_4 
REMARK    3  A    between atoms: C_4  and  C_5 
REMARK    4  A    between atoms: C_4  and  N_10 
REMARK    5  A    between atoms: C_7  and  C_8 
REMARK    6  A    between atoms: C_7  and  C_16 
REMARK    7  A    between atoms: C_7  and  N_14 
REMARK       I    between atoms: C_8  and  N_10 
REMARK    8  A    between atoms: O_9  and  C_16 
ROOT
HETATM    1  C           1     -22.775  -3.995 -10.917  0.00  0.00     0.251 C 
HETATM    2  N           1     -21.757  -3.807 -10.021  0.00  0.00    -0.345 N 
HETATM    3  O           1     -23.557  -4.902 -10.759  0.00  0.00    -0.271 OA
HETATM    4  H           1     -21.102  -3.047 -10.151  0.00  0.00     0.163 HD
ENDROOT
BRANCH   1   5
HETATM    5  C           1     -22.920  -3.069 -12.099  0.00  0.00     0.297 C 
BRANCH   5   6
HETATM    6  C           1     -24.319  -3.206 -12.683  0.00  0.00     0.206 C 
BRANCH   6   7
HETATM    7  O           1     -24.307  -4.163 -13.708  0.00  0.00    -0.398 OA
HETATM    8  H           1     -24.847  -3.827 -14.403  0.00  0.00     0.209 HD
ENDBRANCH   6   7
ENDBRANCH   5   6
BRANCH   5   9
HETATM    9  N           1     -21.905  -3.431 -13.143  0.00  0.00    -0.064 N 
HETATM   10  H           1     -22.264  -4.227 -13.717  0.00  0.00     0.275 HD
HETATM   11  H           1     -21.012  -3.710 -12.680  0.00  0.00     0.275 HD
HETATM   12  H           1     -21.734  -2.607 -13.763  0.00  0.00     0.275 HD
ENDBRANCH   5   9
ENDBRANCH   1   5
BRANCH   2  13
HETATM   13  C           1     -21.617  -4.696  -8.884  0.00  0.00     0.185 C 
BRANCH  13  14
HETATM   14  C           1     -20.142  -5.001  -8.657  0.00  0.00     0.039 C 
BRANCH  14  15
HETATM   15 Se           1     -19.932  -5.999  -6.997  0.00  0.00     0.000 Se
HETATM   16  H           1     -21.375  -6.220  -6.811  0.00  0.00     0.000 HD
ENDBRANCH  14  15
ENDBRANCH  13  14
BRANCH  13  17
HETATM   17  C           1     -22.189  -4.034  -7.655  0.00  0.00     0.196 C 
HETATM   18  O           1     -23.273  -4.435  -7.176  0.00  0.00    -0.646 OA
HETATM   19  O           1     -21.581  -3.085  -7.115  0.00  0.00    -0.646 OA
ENDBRANCH  13  17
ENDBRANCH   2  13
TORSDOF 8
ENDMDL
MODEL 3
REMARK VINA RESULT:      -5.1      3.947      6.365
REMARK  8 active torsions:
REMARK  status: ('A' for Active; 'I' for Inactive)
REMARK    1  A    between atoms: Se_2  and  C_3 
REMARK    2  A    between atoms: C_3  and  C_4 
REMARK    3  A    between atoms: C_4  and  C_5 
REMARK    4  A    between atoms: C_4  and  N_10 
REMARK    5  A    between atoms: C_7  and  C_8 
REMARK    6  A    between atoms: C_7  and  C_16 
REMARK    7  A    between atoms: C_7  and  N_14 
REMARK       I    between atoms: C_8  and  N_10 
REMARK    8  A    between atoms: O_9  and  C_16 
ROOT
HETATM    1  C           1     -21.693  -4.308  -7.081  0.00  0.00     0.251 C 
HETATM    2  N           1     -22.528  -4.681  -8.100  0.00  0.00    -0.345 N 
HETATM    3  O           1     -21.171  -3.220  -7.096  0.00  0.00    -0.271 OA
HETATM    4  H           1     -22.967  -5.593  -8.087  0.00  0.00     0.163 HD
ENDROOT
BRANCH   1   5
HETATM    5  C           1     -21.427  -5.258  -5.939  0.00  0.00     0.297 C 
BRANCH   5   6
HETATM    6  C           1     -20.463  -6.345  -6.396  0.00  0.00     0.206 C 
BRANCH   6   7
HETATM    7  O           1     -19.999  -6.047  -7.685  0.00  0.00    -0.398 OA
HETATM    8  H           1     -20.047  -6.845  -8.184  0.00  0.00     0.209 HD
ENDBRANCH   6   7
ENDBRANCH   5   6
BRANCH   5   9
HETATM    9  N           1     -22.716  -5.886  -5.500  0.00  0.00    -0.064 N 
HETATM   10  H           1     -22.633  -6.926  -5.554  0.00  0.00     0.275 HD
HETATM   11  H           1     -23.490  -5.566  -6.125  0.00  0.00     0.275 HD
HETATM   12  H           1     -22.924  -5.605  -4.516  0.00  0.00     0.275 HD
ENDBRANCH   5   9
ENDBRANCH   1   5
BRANCH   2  13
HETATM   13  C           1     -22.785  -3.770  -9.198  0.00  0.00     0.185 C 
BRANCH  13  14
HETATM   14  C           1     -21.938  -4.171 -10.399  0.00  0.00     0.039 C 
BRANCH  14  15
HETATM   15 Se           1     -22.264  -2.932 -11.867  0.00  0.00     0.000 Se
HETATM   16  H           1     -20.846  -2.826 -12.246  0.00  0.00     0.000 HD
ENDBRANCH  14  15
ENDBRANCH  13  14
BRANCH  13  17
HETATM   17  C           1     -24.246  -3.830  -9.569  0.00  0.00     0.196 C 
HETATM   18  O           1     -24.749  -4.909  -9.952  0.00  0.00    -0.646 OA
HETATM   19  O           1     -24.953  -2.803  -9.493  0.00  0.00    -0.646 OA
ENDBRANCH  13  17
ENDBRANCH   2  13
TORSDOF 8
ENDMDL
MODEL 4
REMARK VINA RESULT:      -5.0      3.559      6.280
REMARK  8 active torsions:
REMARK  status: ('A' for Active; 'I' for Inactive)
REMARK    1  A    between atoms: Se_2  and  C_3 
REMARK    2  A    between atoms: C_3  and  C_4 
REMARK    3  A    between atoms: C_4  and  C_5 
REMARK    4  A    between atoms: C_4  and  N_10 
REMARK    5  A    between atoms: C_7  and  C_8 
REMARK    6  A    between atoms: C_7  and  C_16 
REMARK    7  A    between atoms: C_7  and  N_14 
REMARK       I    between atoms: C_8  and  N_10 
REMARK    8  A    between atoms: O_9  and  C_16 
ROOT
HETATM    1  C           1     -21.760  -4.763  -7.638  0.00  0.00     0.251 C 
HETATM    2  N           1     -22.281  -4.811  -8.903  0.00  0.00    -0.345 N 
HETATM    3  O           1     -21.755  -3.722  -7.027  0.00  0.00    -0.271 OA
HETATM    4  H           1     -22.286  -5.684  -9.415  0.00  0.00     0.163 HD
ENDROOT
BRANCH   1   5
HETATM    5  C           1     -21.192  -6.011  -7.008  0.00  0.00     0.297 C 
BRANCH   5   6
HETATM    6  C           1     -21.373  -5.945  -5.497  0.00  0.00     0.206 C 
BRANCH   6   7
HETATM    7  O           1     -22.740  -5.971  -5.188  0.00  0.00    -0.398 OA
HETATM    8  H           1     -23.058  -5.088  -5.274  0.00  0.00     0.209 HD
ENDBRANCH   6   7
ENDBRANCH   5   6
BRANCH   5   9
HETATM    9  N           1     -19.732  -6.114  -7.332  0.00  0.00    -0.064 N 
HETATM   10  H           1     -19.199  -5.418  -6.763  0.00  0.00     0.275 HD
HETATM   11  H           1     -19.585  -5.918  -8.347  0.00  0.00     0.275 HD
HETATM   12  H           1     -19.392  -7.077  -7.109  0.00  0.00     0.275 HD
ENDBRANCH   5   9
ENDBRANCH   1   5
BRANCH   2  13
HETATM   13  C           1     -22.827  -3.612  -9.509  0.00  0.00     0.185 C 
BRANCH  13  14
HETATM   14  C           1     -22.186  -3.397 -10.874  0.00  0.00     0.039 C 
BRANCH  14  15
HETATM   15 Se           1     -20.429  -4.240 -10.908  0.00  0.00     0.000 Se
HETATM   16  H           1     -20.773  -5.264  -9.908  0.00  0.00     0.000 HD
ENDBRANCH  14  15
ENDBRANCH  13  14
BRANCH  13  17
HETATM   17  C           1     -24.319  -3.766  -9.671  0.00  0.00     0.196 C 
HETATM   18  O           1     -25.068  -2.773  -9.541  0.00  0.00    -0.646 OA
HETATM   19  O           1     -24.807  -4.886  -9.936  0.00  0.00    -0.646 OA
ENDBRANCH  13  17
ENDBRANCH   2  13
TORSDOF 8
ENDMDL
MODEL 5
REMARK VINA RESULT:      -4.4      3.690      5.193
REMARK  8 active torsions:
REMARK  status: ('A' for Active; 'I' for Inactive)
REMARK    1  A    between atoms: Se_2  and  C_3 
REMARK    2  A    between atoms: C_3  and  C_4 
REMARK    3  A    between atoms: C_4  and  C_5 
REMARK    4  A    between atoms: C_4  and  N_10 
REMARK    5  A    between atoms: C_7  and  C_8 
REMARK    6  A    between atoms: C_7  and  C_16 
REMARK    7  A    between atoms: C_7  and  N_14 
REMARK       I    between atoms: C_8  and  N_10 
REMARK    8  A    between atoms: O_9  and  C_16 
ROOT
HETATM    1  C           1     -23.330  -4.397  -8.834  0.00  0.00     0.251 C 
HETATM    2  N           1     -22.008  -4.739  -8.940  0.00  0.00    -0.345 N 
HETATM    3  O           1     -23.782  -4.058  -7.767  0.00  0.00    -0.271 OA
HETATM    4  H           1     -21.629  -5.022  -9.834  0.00  0.00     0.163 HD
ENDROOT
BRANCH   1   5
HETATM    5  C           1     -24.221  -4.442 -10.051  0.00  0.00     0.297 C 
BRANCH   5   6
HETATM    6  C           1     -23.498  -3.810 -11.233  0.00  0.00     0.206 C 
BRANCH   6   7
HETATM    7  O           1     -22.849  -4.808 -11.974  0.00  0.00    -0.398 OA
HETATM    8  H           1     -21.997  -4.474 -12.195  0.00  0.00     0.209 HD
ENDBRANCH   6   7
ENDBRANCH   5   6
BRANCH   5   9
HETATM    9  N           1     -25.484  -3.683  -9.774  0.00  0.00    -0.064 N 
HETATM   10  H           1     -26.163  -4.304  -9.278  0.00  0.00     0.275 HD
HETATM   11  H           1     -25.902  -3.360 -10.675  0.00  0.00     0.275 HD
HETATM   12  H           1     -25.268  -2.855  -9.173  0.00  0.00     0.275 HD
ENDBRANCH   5   9
ENDBRANCH   1   5
BRANCH   2  13
HETATM   13  C           1     -21.152  -4.695  -7.770  0.00  0.00     0.185 C 
BRANCH  13  14
HETATM   14  C           1     -21.072  -6.084  -7.149  0.00  0.00     0.039 C 
BRANCH  14  15
HETATM   15 Se           1     -21.227  -5.938  -5.211  0.00  0.00     0.000 Se
HETATM   16  H           1     -19.874  -6.454  -4.948  0.00  0.00     0.000 HD
ENDBRANCH  14  15
ENDBRANCH  13  14
BRANCH  13  17
HETATM   17  C           1     -19.770  -4.245  -8.177  0.00  0.00     0.196 C 
HETATM   18  O           1     -18.801  -4.433  -7.410  0.00  0.00    -0.646 OA
HETATM   19  O           1     -19.595  -3.684  -9.280  0.00  0.00    -0.646 OA
ENDBRANCH  13  17
ENDBRANCH   2  13
TORSDOF 8
ENDMDL
MODEL 6
REMARK VINA RESULT:      -4.3      6.339      8.325
REMARK  8 active torsions:
REMARK  status: ('A' for Active; 'I' for Inactive)
REMARK    1  A    between atoms: Se_2  and  C_3 
REMARK    2  A    between atoms: C_3  and  C_4 
REMARK    3  A    between atoms: C_4  and  C_5 
REMARK    4  A    between atoms: C_4  and  N_10 
REMARK    5  A    between atoms: C_7  and  C_8 
REMARK    6  A    between atoms: C_7  and  C_16 
REMARK    7  A    between atoms: C_7  and  N_14 
REMARK       I    between atoms: C_8  and  N_10 
REMARK    8  A    between atoms: O_9  and  C_16 
ROOT
HETATM    1  C           1     -21.604  -5.879  -5.819  0.00  0.00     0.251 C 
HETATM    2  N           1     -21.014  -6.803  -4.998  0.00  0.00    -0.345 N 
HETATM    3  O           1     -22.785  -5.651  -5.718  0.00  0.00    -0.271 OA
HETATM    4  H           1     -20.023  -6.995  -5.082  0.00  0.00     0.163 HD
ENDROOT
BRANCH   1   5
HETATM    5  C           1     -20.777  -5.147  -6.847  0.00  0.00     0.297 C 
BRANCH   5   6
HETATM    6  C           1     -21.692  -4.584  -7.927  0.00  0.00     0.206 C 
BRANCH   6   7
HETATM    7  O           1     -22.206  -3.349  -7.507  0.00  0.00    -0.398 OA
HETATM    8  H           1     -21.774  -2.684  -8.017  0.00  0.00     0.209 HD
ENDBRANCH   6   7
ENDBRANCH   5   6
BRANCH   5   9
HETATM    9  N           1     -19.798  -6.097  -7.469  0.00  0.00    -0.064 N 
HETATM   10  H           1     -20.073  -7.080  -7.243  0.00  0.00     0.275 HD
HETATM   11  H           1     -18.842  -5.908  -7.094  0.00  0.00     0.275 HD
HETATM   12  H           1     -19.797  -5.968  -8.506  0.00  0.00     0.275 HD
ENDBRANCH   5   9
ENDBRANCH   1   5
BRANCH   2  13
HETATM   13  C           1     -21.807  -7.508  -4.010  0.00  0.00     0.185 C 
BRANCH  13  14
HETATM   14  C           1     -21.369  -8.965  -3.953  0.00  0.00     0.039 C 
BRANCH  14  15
HETATM   15 Se           1     -19.645  -9.161  -4.841  0.00  0.00     0.000 Se
HETATM   16  H           1     -18.879  -8.544  -3.746  0.00  0.00     0.000 HD
ENDBRANCH  14  15
ENDBRANCH  13  14
BRANCH  13  17
HETATM   17  C           1     -21.607  -6.868  -2.658  0.00  0.00     0.196 C 
HETATM   18  O           1     -20.734  -7.310  -1.880  0.00  0.00    -0.646 OA
HETATM   19  O           1     -22.314  -5.896  -2.316  0.00  0.00    -0.646 OA
ENDBRANCH  13  17
ENDBRANCH   2  13
TORSDOF 8
ENDMDL
MODEL 7
REMARK VINA RESULT:      -4.1      6.019      7.917
REMARK  8 active torsions:
REMARK  status: ('A' for Active; 'I' for Inactive)
REMARK    1  A    between atoms: Se_2  and  C_3 
REMARK    2  A    between atoms: C_3  and  C_4 
REMARK    3  A    between atoms: C_4  and  C_5 
REMARK    4  A    between atoms: C_4  and  N_10 
REMARK    5  A    between atoms: C_7  and  C_8 
REMARK    6  A    between atoms: C_7  and  C_16 
REMARK    7  A    between atoms: C_7  and  N_14 
REMARK       I    between atoms: C_8  and  N_10 
REMARK    8  A    between atoms: O_9  and  C_16 
ROOT
HETATM    1  C           1     -20.817  -4.834  -6.203  0.00  0.00     0.251 C 
HETATM    2  N           1     -21.184  -6.153  -6.178  0.00  0.00    -0.345 N 
HETATM    3  O           1     -20.184  -4.367  -5.288  0.00  0.00    -0.271 OA
HETATM    4  H           1     -21.713  -6.546  -6.946  0.00  0.00     0.163 HD
ENDROOT
BRANCH   1   5
HETATM    5  C           1     -21.203  -3.966  -7.376  0.00  0.00     0.297 C 
BRANCH   5   6
HETATM    6  C           1     -22.580  -4.377  -7.880  0.00  0.00     0.206 C 
BRANCH   6   7
HETATM    7  O           1     -23.479  -4.420  -6.805  0.00  0.00    -0.398 OA
HETATM    8  H           1     -23.794  -3.541  -6.676  0.00  0.00     0.209 HD
ENDBRANCH   6   7
ENDBRANCH   5   6
BRANCH   5   9
HETATM    9  N           1     -20.198  -4.137  -8.476  0.00  0.00    -0.064 N 
HETATM   10  H           1     -19.879  -3.198  -8.805  0.00  0.00     0.275 HD
HETATM   11  H           1     -20.635  -4.655  -9.271  0.00  0.00     0.275 HD
HETATM   12  H           1     -19.377  -4.676  -8.117  0.00  0.00     0.275 HD
ENDBRANCH   5   9
ENDBRANCH   1   5
BRANCH   2  13
HETATM   13  C           1     -20.813  -6.988  -5.052  0.00  0.00     0.185 C 
BRANCH  13  14
HETATM   14  C           1     -22.031  -7.214  -4.166  0.00  0.00     0.039 C 
BRANCH  14  15
HETATM   15 Se           1     -21.774  -6.304  -2.462  0.00  0.00     0.000 Se
HETATM   16  H           1     -20.305  -6.326  -2.540  0.00  0.00     0.000 HD
ENDBRANCH  14  15
ENDBRANCH  13  14
BRANCH  13  17
HETATM   17  C           1     -20.304  -8.316  -5.558  0.00  0.00     0.196 C 
HETATM   18  O           1     -21.103  -9.259  -5.749  0.00  0.00    -0.646 OA
HETATM   19  O           1     -19.086  -8.472  -5.786  0.00  0.00    -0.646 OA
ENDBRANCH  13  17
ENDBRANCH   2  13
TORSDOF 8
ENDMDL
MODEL 8
REMARK VINA RESULT:      -4.1     11.002     13.321
REMARK  8 active torsions:
REMARK  status: ('A' for Active; 'I' for Inactive)
REMARK    1  A    between atoms: Se_2  and  C_3 
REMARK    2  A    between atoms: C_3  and  C_4 
REMARK    3  A    between atoms: C_4  and  C_5 
REMARK    4  A    between atoms: C_4  and  N_10 
REMARK    5  A    between atoms: C_7  and  C_8 
REMARK    6  A    between atoms: C_7  and  C_16 
REMARK    7  A    between atoms: C_7  and  N_14 
REMARK       I    between atoms: C_8  and  N_10 
REMARK    8  A    between atoms: O_9  and  C_16 
ROOT
HETATM    1  C           1     -21.624 -10.065  -0.771  0.00  0.00     0.251 C 
HETATM    2  N           1     -21.953  -9.249  -1.820  0.00  0.00    -0.345 N 
HETATM    3  O           1     -20.750  -9.740  -0.004  0.00  0.00    -0.271 OA
HETATM    4  H           1     -22.686  -9.521  -2.462  0.00  0.00     0.163 HD
ENDROOT
BRANCH   1   5
HETATM    5  C           1     -22.354 -11.371  -0.573  0.00  0.00     0.297 C 
BRANCH   5   6
HETATM    6  C           1     -23.800 -11.090  -0.187  0.00  0.00     0.206 C 
BRANCH   6   7
HETATM    7  O           1     -23.930  -9.748   0.198  0.00  0.00    -0.398 OA
HETATM    8  H           1     -23.091  -9.342   0.061  0.00  0.00     0.209 HD
ENDBRANCH   6   7
ENDBRANCH   5   6
BRANCH   5   9
HETATM    9  N           1     -21.689 -12.155   0.518  0.00  0.00    -0.064 N 
HETATM   10  H           1     -22.411 -12.499   1.191  0.00  0.00     0.275 HD
HETATM   11  H           1     -21.008 -11.544   1.021  0.00  0.00     0.275 HD
HETATM   12  H           1     -21.185 -12.971   0.103  0.00  0.00     0.275 HD
ENDBRANCH   5   9
ENDBRANCH   1   5
BRANCH   2  13
HETATM   13  C           1     -21.251  -7.994  -2.010  0.00  0.00     0.185 C 
BRANCH  13  14
HETATM   14  C           1     -20.887  -7.835  -3.481  0.00  0.00     0.039 C 
BRANCH  14  15
HETATM   15 Se           1     -19.441  -9.063  -3.929  0.00  0.00     0.000 Se
HETATM   16  H           1     -20.117  -9.610  -5.116  0.00  0.00     0.000 HD
ENDBRANCH  14  15
ENDBRANCH  13  14
BRANCH  13  17
HETATM   17  C           1     -22.141  -6.852  -1.585  0.00  0.00     0.196 C 
HETATM   18  O           1     -22.210  -5.819  -2.286  0.00  0.00    -0.646 OA
HETATM   19  O           1     -22.810  -6.939  -0.533  0.00  0.00    -0.646 OA
ENDBRANCH  13  17
ENDBRANCH   2  13
TORSDOF 8
ENDMDL
MODEL 9
REMARK VINA RESULT:      -4.1      9.737     11.538
REMARK  8 active torsions:
REMARK  status: ('A' for Active; 'I' for Inactive)
REMARK    1  A    between atoms: Se_2  and  C_3 
REMARK    2  A    between atoms: C_3  and  C_4 
REMARK    3  A    between atoms: C_4  and  C_5 
REMARK    4  A    between atoms: C_4  and  N_10 
REMARK    5  A    between atoms: C_7  and  C_8 
REMARK    6  A    between atoms: C_7  and  C_16 
REMARK    7  A    between atoms: C_7  and  N_14 
REMARK       I    between atoms: C_8  and  N_10 
REMARK    8  A    between atoms: O_9  and  C_16 
ROOT
HETATM    1  C           1     -21.274  -8.551  -3.382  0.00  0.00     0.251 C 
HETATM    2  N           1     -21.052  -8.220  -2.072  0.00  0.00    -0.345 N 
HETATM    3  O           1     -22.124  -9.361  -3.664  0.00  0.00    -0.271 OA
HETATM    4  H           1     -20.341  -7.540  -1.836  0.00  0.00     0.163 HD
ENDROOT
BRANCH   1   5
HETATM    5  C           1     -20.456  -7.904  -4.473  0.00  0.00     0.297 C 
BRANCH   5   6
HETATM    6  C           1     -20.963  -6.489  -4.716  0.00  0.00     0.206 C 
BRANCH   6   7
HETATM    7  O           1     -22.050  -6.229  -3.870  0.00  0.00    -0.398 OA
HETATM    8  H           1     -22.820  -6.202  -4.413  0.00  0.00     0.209 HD
ENDBRANCH   6   7
ENDBRANCH   5   6
BRANCH   5   9
HETATM    9  N           1     -20.584  -8.704  -5.735  0.00  0.00    -0.064 N 
HETATM   10  H           1     -19.707  -9.250  -5.893  0.00  0.00     0.275 HD
HETATM   11  H           1     -20.743  -8.060  -6.542  0.00  0.00     0.275 HD
HETATM   12  H           1     -21.392  -9.362  -5.649  0.00  0.00     0.275 HD
ENDBRANCH   5   9
ENDBRANCH   1   5
BRANCH   2  13
HETATM   13  C           1     -21.838  -8.841  -1.024  0.00  0.00     0.185 C 
BRANCH  13  14
HETATM   14  C           1     -20.905  -9.487  -0.007  0.00  0.00     0.039 C 
BRANCH  14  15
HETATM   15 Se           1     -21.443 -11.338   0.284  0.00  0.00     0.000 Se
HETATM   16  H           1     -20.111 -11.892  -0.008  0.00  0.00     0.000 HD
ENDBRANCH  14  15
ENDBRANCH  13  14
BRANCH  13  17
HETATM   17  C           1     -22.681  -7.793  -0.340  0.00  0.00     0.196 C 
HETATM   18  O           1     -23.316  -8.082   0.697  0.00  0.00    -0.646 OA
HETATM   19  O           1     -22.743  -6.637  -0.810  0.00  0.00    -0.646 OA
ENDBRANCH  13  17
ENDBRANCH   2  13
TORSDOF 8
ENDMDL
