MODEL 1
REMARK VINA RESULT:      -6.3      0.000      0.000
REMARK  9 active torsions:
REMARK  status: ('A' for Active; 'I' for Inactive)
REMARK    1  A    between atoms: C_1  and  C_15 
REMARK    2  A    between atoms: N_3  and  C_19 
REMARK    3  A    between atoms: C_8  and  C_17 
REMARK    4  A    between atoms: C_8  and  C_9 
REMARK    5  A    between atoms: C_9  and  C_10 
REMARK    6  A    between atoms: C_9  and  N_22 
REMARK    7  A    between atoms: C_15  and  C_21 
REMARK       I    between atoms: C_18  and  N_22 
REMARK    8  A    between atoms: C_18  and  C_19 
REMARK    9  A    between atoms: C_19  and  C_21 
ROOT
HETATM    1  O           1     -21.633  -3.599  -7.224  0.00  0.00    -0.271 OA
HETATM    2  H           1     -22.370  -5.832  -9.300  0.00  0.00     0.163 HD
HETATM    3  C           1     -21.721  -4.712  -7.686  0.00  0.00     0.249 C 
HETATM    4  N           1     -22.297  -4.899  -8.913  0.00  0.00    -0.344 N 
ENDROOT
BRANCH   3   5
HETATM    5  C           1     -21.196  -5.894  -6.909  0.00  0.00     0.275 C 
BRANCH   5   6
HETATM    6  N           1     -19.782  -6.176  -7.324  0.00  0.00    -0.066 N 
HETATM    7  H           1     -19.260  -6.596  -6.523  0.00  0.00     0.275 HD
HETATM    8  H           1     -19.781  -6.842  -8.128  0.00  0.00     0.275 HD
HETATM    9  H           1     -19.319  -5.283  -7.610  0.00  0.00     0.275 HD
ENDBRANCH   5   6
BRANCH   5  10
HETATM   10  C           1     -21.235  -5.583  -5.420  0.00  0.00     0.053 C 
BRANCH  10  11
HETATM   11  C           1     -22.100  -6.614  -4.707  0.00  0.00     0.115 C 
BRANCH  11  12
HETATM   12  C           1     -21.775  -6.614  -3.234  0.00  0.00     0.172 C 
HETATM   13  O           1     -22.423  -5.888  -2.450  0.00  0.00    -0.648 OA
HETATM   14  O           1     -20.857  -7.342  -2.797  0.00  0.00    -0.648 OA
ENDBRANCH  11  12
ENDBRANCH  10  11
ENDBRANCH   5  10
ENDBRANCH   3   5
BRANCH   4  15
HETATM   15  C           1     -22.801  -3.763  -9.659  0.00  0.00     0.195 C 
BRANCH  15  16
HETATM   16  C           1     -22.265  -3.813 -11.083  0.00  0.00     0.149 C 
BRANCH  16  17
HETATM   17  C           1     -20.761  -3.683 -11.060  0.00  0.00     0.175 C 
HETATM   18  O           1     -20.225  -2.579 -11.299  0.00  0.00    -0.648 OA
HETATM   19  O           1     -20.051  -4.679 -10.802  0.00  0.00    -0.648 OA
ENDBRANCH  16  17
ENDBRANCH  15  16
BRANCH  15  20
HETATM   20  C           1     -24.309  -3.810  -9.686  0.00  0.00     0.197 C 
HETATM   21  O           1     -24.970  -2.759  -9.535  0.00  0.00    -0.646 OA
HETATM   22  O           1     -24.897  -4.898  -9.860  0.00  0.00    -0.646 OA
ENDBRANCH  15  20
ENDBRANCH   4  15
TORSDOF 9
ENDMDL
MODEL 2
REMARK VINA RESULT:      -6.2      1.895      3.392
REMARK  9 active torsions:
REMARK  status: ('A' for Active; 'I' for Inactive)
REMARK    1  A    between atoms: C_1  and  C_15 
REMARK    2  A    between atoms: N_3  and  C_19 
REMARK    3  A    between atoms: C_8  and  C_17 
REMARK    4  A    between atoms: C_8  and  C_9 
REMARK    5  A    between atoms: C_9  and  C_10 
REMARK    6  A    between atoms: C_9  and  N_22 
REMARK    7  A    between atoms: C_15  and  C_21 
REMARK       I    between atoms: C_18  and  N_22 
REMARK    8  A    between atoms: C_18  and  C_19 
REMARK    9  A    between atoms: C_19  and  C_21 
ROOT
HETATM    1  O           1     -20.118  -5.200  -9.726  0.00  0.00    -0.271 OA
HETATM    2  H           1     -22.350  -3.029  -9.348  0.00  0.00     0.163 HD
HETATM    3  C           1     -20.723  -4.298  -9.197  0.00  0.00     0.249 C 
HETATM    4  N           1     -21.844  -3.784  -9.791  0.00  0.00    -0.344 N 
ENDROOT
BRANCH   3   5
HETATM    5  C           1     -20.242  -3.737  -7.882  0.00  0.00     0.275 C 
BRANCH   5   6
HETATM    6  N           1     -21.422  -3.316  -7.057  0.00  0.00    -0.066 N 
HETATM    7  H           1     -21.879  -4.160  -6.645  0.00  0.00     0.275 HD
HETATM    8  H           1     -21.102  -2.684  -6.289  0.00  0.00     0.275 HD
HETATM    9  H           1     -22.107  -2.810  -7.663  0.00  0.00     0.275 HD
ENDBRANCH   5   6
BRANCH   5  10
HETATM   10  C           1     -19.453  -4.802  -7.132  0.00  0.00     0.053 C 
BRANCH  10  11
HETATM   11  C           1     -20.081  -5.029  -5.762  0.00  0.00     0.115 C 
BRANCH  11  12
HETATM   12  C           1     -20.603  -6.442  -5.675  0.00  0.00     0.172 C 
HETATM   13  O           1     -20.941  -7.049  -6.714  0.00  0.00    -0.648 OA
HETATM   14  O           1     -20.697  -7.006  -4.563  0.00  0.00    -0.648 OA
ENDBRANCH  11  12
ENDBRANCH  10  11
ENDBRANCH   5  10
ENDBRANCH   3   5
BRANCH   4  15
HETATM   15  C           1     -22.306  -4.323 -11.056  0.00  0.00     0.195 C 
BRANCH  15  16
HETATM   16  C           1     -23.709  -4.888 -10.883  0.00  0.00     0.149 C 
BRANCH  16  17
HETATM   17  C           1     -24.480  -4.033  -9.907  0.00  0.00     0.175 C 
HETATM   18  O           1     -24.241  -4.111  -8.683  0.00  0.00    -0.648 OA
HETATM   19  O           1     -25.358  -3.245 -10.324  0.00  0.00    -0.648 OA
ENDBRANCH  16  17
ENDBRANCH  15  16
BRANCH  15  20
HETATM   20  C           1     -22.328  -3.225 -12.091  0.00  0.00     0.197 C 
HETATM   21  O           1     -22.994  -3.369 -13.139  0.00  0.00    -0.646 OA
HETATM   22  O           1     -21.681  -2.173 -11.901  0.00  0.00    -0.646 OA
ENDBRANCH  15  20
ENDBRANCH   4  15
TORSDOF 9
ENDMDL
MODEL 3
REMARK VINA RESULT:      -6.2      1.968      3.291
REMARK  9 active torsions:
REMARK  status: ('A' for Active; 'I' for Inactive)
REMARK    1  A    between atoms: C_1  and  C_15 
REMARK    2  A    between atoms: N_3  and  C_19 
REMARK    3  A    between atoms: C_8  and  C_17 
REMARK    4  A    between atoms: C_8  and  C_9 
REMARK    5  A    between atoms: C_9  and  C_10 
REMARK    6  A    between atoms: C_9  and  N_22 
REMARK    7  A    between atoms: C_15  and  C_21 
REMARK       I    between atoms: C_18  and  N_22 
REMARK    8  A    between atoms: C_18  and  C_19 
REMARK    9  A    between atoms: C_19  and  C_21 
ROOT
HETATM    1  O           1     -20.285  -4.858  -8.837  0.00  0.00    -0.271 OA
HETATM    2  H           1     -23.056  -3.434  -9.201  0.00  0.00     0.163 HD
HETATM    3  C           1     -21.291  -4.270  -8.517  0.00  0.00     0.249 C 
HETATM    4  N           1     -22.213  -3.926  -9.468  0.00  0.00    -0.344 N 
ENDROOT
BRANCH   3   5
HETATM    5  C           1     -21.530  -3.916  -7.071  0.00  0.00     0.275 C 
BRANCH   5   6
HETATM    6  N           1     -22.912  -4.347  -6.673  0.00  0.00    -0.066 N 
HETATM    7  H           1     -23.382  -4.804  -7.485  0.00  0.00     0.275 HD
HETATM    8  H           1     -22.850  -5.024  -5.880  0.00  0.00     0.275 HD
HETATM    9  H           1     -23.464  -3.511  -6.376  0.00  0.00     0.275 HD
ENDBRANCH   5   6
BRANCH   5  10
HETATM   10  C           1     -20.506  -4.626  -6.196  0.00  0.00     0.053 C 
BRANCH  10  11
HETATM   11  C           1     -21.185  -5.760  -5.438  0.00  0.00     0.115 C 
BRANCH  11  12
HETATM   12  C           1     -20.657  -7.084  -5.934  0.00  0.00     0.172 C 
HETATM   13  O           1     -21.311  -8.131  -5.736  0.00  0.00    -0.648 OA
HETATM   14  O           1     -19.568  -7.134  -6.545  0.00  0.00    -0.648 OA
ENDBRANCH  11  12
ENDBRANCH  10  11
ENDBRANCH   5  10
ENDBRANCH   3   5
BRANCH   4  15
HETATM   15  C           1     -21.983  -4.266 -10.859  0.00  0.00     0.195 C 
BRANCH  15  16
HETATM   16  C           1     -23.289  -4.727 -11.491  0.00  0.00     0.149 C 
BRANCH  16  17
HETATM   17  C           1     -24.451  -4.235 -10.663  0.00  0.00     0.175 C 
HETATM   18  O           1     -24.981  -3.133 -10.922  0.00  0.00    -0.648 OA
HETATM   19  O           1     -24.883  -4.929  -9.717  0.00  0.00    -0.648 OA
ENDBRANCH  16  17
ENDBRANCH  15  16
BRANCH  15  20
HETATM   20  C           1     -21.468  -3.054 -11.594  0.00  0.00     0.197 C 
HETATM   21  O           1     -20.309  -2.637 -11.378  0.00  0.00    -0.646 OA
HETATM   22  O           1     -22.199  -2.465 -12.419  0.00  0.00    -0.646 OA
ENDBRANCH  15  20
ENDBRANCH   4  15
TORSDOF 9
ENDMDL
MODEL 4
REMARK VINA RESULT:      -6.1      2.220      6.805
REMARK  9 active torsions:
REMARK  status: ('A' for Active; 'I' for Inactive)
REMARK    1  A    between atoms: C_1  and  C_15 
REMARK    2  A    between atoms: N_3  and  C_19 
REMARK    3  A    between atoms: C_8  and  C_17 
REMARK    4  A    between atoms: C_8  and  C_9 
REMARK    5  A    between atoms: C_9  and  C_10 
REMARK    6  A    between atoms: C_9  and  N_22 
REMARK    7  A    between atoms: C_15  and  C_21 
REMARK       I    between atoms: C_18  and  N_22 
REMARK    8  A    between atoms: C_18  and  C_19 
REMARK    9  A    between atoms: C_19  and  C_21 
ROOT
HETATM    1  O           1     -23.790  -4.111  -7.702  0.00  0.00    -0.271 OA
HETATM    2  H           1     -21.581  -5.268  -9.605  0.00  0.00     0.163 HD
HETATM    3  C           1     -23.306  -4.542  -8.721  0.00  0.00     0.249 C 
HETATM    4  N           1     -21.987  -4.905  -8.751  0.00  0.00    -0.344 N 
ENDROOT
BRANCH   3   5
HETATM    5  C           1     -24.156  -4.681  -9.959  0.00  0.00     0.275 C 
BRANCH   5   6
HETATM    6  N           1     -25.241  -3.645  -9.939  0.00  0.00    -0.066 N 
HETATM    7  H           1     -25.814  -3.723 -10.809  0.00  0.00     0.275 HD
HETATM    8  H           1     -25.851  -3.796  -9.104  0.00  0.00     0.275 HD
HETATM    9  H           1     -24.811  -2.693  -9.889  0.00  0.00     0.275 HD
ENDBRANCH   5   6
BRANCH   5  10
HETATM   10  C           1     -23.290  -4.484 -11.196  0.00  0.00     0.053 C 
BRANCH  10  11
HETATM   11  C           1     -23.257  -3.005 -11.563  0.00  0.00     0.115 C 
BRANCH  11  12
HETATM   12  C           1     -23.834  -2.816 -12.944  0.00  0.00     0.172 C 
HETATM   13  O           1     -25.072  -2.849 -13.114  0.00  0.00    -0.648 OA
HETATM   14  O           1     -23.074  -2.625 -13.918  0.00  0.00    -0.648 OA
ENDBRANCH  11  12
ENDBRANCH  10  11
ENDBRANCH   5  10
ENDBRANCH   3   5
BRANCH   4  15
HETATM   15  C           1     -21.170  -4.772  -7.560  0.00  0.00     0.195 C 
BRANCH  15  16
HETATM   16  C           1     -21.120  -6.107  -6.828  0.00  0.00     0.149 C 
BRANCH  16  17
HETATM   17  C           1     -21.627  -5.927  -5.418  0.00  0.00     0.175 C 
HETATM   18  O           1     -20.854  -5.524  -4.522  0.00  0.00    -0.648 OA
HETATM   19  O           1     -22.821  -6.181  -5.146  0.00  0.00    -0.648 OA
ENDBRANCH  16  17
ENDBRANCH  15  16
BRANCH  15  20
HETATM   20  C           1     -19.773  -4.360  -7.953  0.00  0.00     0.197 C 
HETATM   21  O           1     -18.816  -4.582  -7.181  0.00  0.00    -0.646 OA
HETATM   22  O           1     -19.573  -3.796  -9.050  0.00  0.00    -0.646 OA
ENDBRANCH  15  20
ENDBRANCH   4  15
TORSDOF 9
ENDMDL
MODEL 5
REMARK VINA RESULT:      -5.9      1.324      1.835
REMARK  9 active torsions:
REMARK  status: ('A' for Active; 'I' for Inactive)
REMARK    1  A    between atoms: C_1  and  C_15 
REMARK    2  A    between atoms: N_3  and  C_19 
REMARK    3  A    between atoms: C_8  and  C_17 
REMARK    4  A    between atoms: C_8  and  C_9 
REMARK    5  A    between atoms: C_9  and  C_10 
REMARK    6  A    between atoms: C_9  and  N_22 
REMARK    7  A    between atoms: C_15  and  C_21 
REMARK       I    between atoms: C_18  and  N_22 
REMARK    8  A    between atoms: C_18  and  C_19 
REMARK    9  A    between atoms: C_19  and  C_21 
ROOT
HETATM    1  O           1     -21.872  -3.467  -7.698  0.00  0.00    -0.271 OA
HETATM    2  H           1     -22.232  -5.938  -9.596  0.00  0.00     0.163 HD
HETATM    3  C           1     -21.792  -4.614  -8.068  0.00  0.00     0.249 C 
HETATM    4  N           1     -22.300  -4.978  -9.286  0.00  0.00    -0.344 N 
ENDROOT
BRANCH   3   5
HETATM    5  C           1     -21.132  -5.646  -7.187  0.00  0.00     0.275 C 
BRANCH   5   6
HETATM    6  N           1     -19.653  -5.649  -7.444  0.00  0.00    -0.066 N 
HETATM    7  H           1     -19.410  -6.446  -8.075  0.00  0.00     0.275 HD
HETATM    8  H           1     -19.377  -4.749  -7.897  0.00  0.00     0.275 HD
HETATM    9  H           1     -19.143  -5.754  -6.538  0.00  0.00     0.275 HD
ENDBRANCH   5   6
BRANCH   5  10
HETATM   10  C           1     -21.391  -5.309  -5.725  0.00  0.00     0.053 C 
BRANCH  10  11
HETATM   11  C           1     -22.210  -6.422  -5.085  0.00  0.00     0.115 C 
BRANCH  11  12
HETATM   12  C           1     -21.779  -6.603  -3.650  0.00  0.00     0.172 C 
HETATM   13  O           1     -22.339  -5.950  -2.743  0.00  0.00    -0.648 OA
HETATM   14  O           1     -20.863  -7.405  -3.369  0.00  0.00    -0.648 OA
ENDBRANCH  11  12
ENDBRANCH  10  11
ENDBRANCH   5  10
ENDBRANCH   3   5
BRANCH   4  15
HETATM   15  C           1     -22.935  -3.986 -10.132  0.00  0.00     0.195 C 
BRANCH  15  16
HETATM   16  C           1     -22.791  -4.397 -11.591  0.00  0.00     0.149 C 
BRANCH  16  17
HETATM   17  C           1     -23.385  -3.329 -12.476  0.00  0.00     0.175 C 
HETATM   18  O           1     -24.293  -3.620 -13.285  0.00  0.00    -0.648 OA
HETATM   19  O           1     -22.969  -2.152 -12.401  0.00  0.00    -0.648 OA
ENDBRANCH  16  17
ENDBRANCH  15  16
BRANCH  15  20
HETATM   20  C           1     -24.399  -3.887  -9.778  0.00  0.00     0.197 C 
HETATM   21  O           1     -25.106  -4.917  -9.752  0.00  0.00    -0.646 OA
HETATM   22  O           1     -24.903  -2.775  -9.512  0.00  0.00    -0.646 OA
ENDBRANCH  15  20
ENDBRANCH   4  15
TORSDOF 9
ENDMDL
MODEL 6
REMARK VINA RESULT:      -5.7      1.926      6.749
REMARK  9 active torsions:
REMARK  status: ('A' for Active; 'I' for Inactive)
REMARK    1  A    between atoms: C_1  and  C_15 
REMARK    2  A    between atoms: N_3  and  C_19 
REMARK    3  A    between atoms: C_8  and  C_17 
REMARK    4  A    between atoms: C_8  and  C_9 
REMARK    5  A    between atoms: C_9  and  C_10 
REMARK    6  A    between atoms: C_9  and  N_22 
REMARK    7  A    between atoms: C_15  and  C_21 
REMARK       I    between atoms: C_18  and  N_22 
REMARK    8  A    between atoms: C_18  and  C_19 
REMARK    9  A    between atoms: C_19  and  C_21 
ROOT
HETATM    1  O           1     -19.876  -4.405  -6.613  0.00  0.00    -0.271 OA
HETATM    2  H           1     -22.622  -5.910  -6.798  0.00  0.00     0.163 HD
HETATM    3  C           1     -20.966  -4.694  -7.046  0.00  0.00     0.249 C 
HETATM    4  N           1     -21.709  -5.668  -6.436  0.00  0.00    -0.344 N 
ENDROOT
BRANCH   3   5
HETATM    5  C           1     -21.507  -3.982  -8.261  0.00  0.00     0.275 C 
BRANCH   5   6
HETATM    6  N           1     -20.824  -4.503  -9.491  0.00  0.00    -0.066 N 
HETATM    7  H           1     -19.808  -4.264  -9.454  0.00  0.00     0.275 HD
HETATM    8  H           1     -20.937  -5.541  -9.539  0.00  0.00     0.275 HD
HETATM    9  H           1     -21.254  -4.066 -10.338  0.00  0.00     0.275 HD
ENDBRANCH   5   6
BRANCH   5  10
HETATM   10  C           1     -23.006  -4.229  -8.370  0.00  0.00     0.053 C 
BRANCH  10  11
HETATM   11  C           1     -23.380  -4.443  -9.831  0.00  0.00     0.115 C 
BRANCH  11  12
HETATM   12  C           1     -24.322  -3.352 -10.275  0.00  0.00     0.172 C 
HETATM   13  O           1     -24.262  -2.911 -11.444  0.00  0.00    -0.648 OA
HETATM   14  O           1     -25.164  -2.889  -9.476  0.00  0.00    -0.648 OA
ENDBRANCH  11  12
ENDBRANCH  10  11
ENDBRANCH   5  10
ENDBRANCH   3   5
BRANCH   4  15
HETATM   15  C           1     -21.188  -6.353  -5.268  0.00  0.00     0.195 C 
BRANCH  15  16
HETATM   16  C           1     -22.324  -6.623  -4.291  0.00  0.00     0.149 C 
BRANCH  16  17
HETATM   17  C           1     -21.790  -6.600  -2.879  0.00  0.00     0.175 C 
HETATM   18  O           1     -21.011  -7.497  -2.490  0.00  0.00    -0.648 OA
HETATM   19  O           1     -22.126  -5.683  -2.099  0.00  0.00    -0.648 OA
ENDBRANCH  16  17
ENDBRANCH  15  16
BRANCH  15  20
HETATM   20  C           1     -20.564  -7.660  -5.690  0.00  0.00     0.197 C 
HETATM   21  O           1     -21.257  -8.700  -5.727  0.00  0.00    -0.646 OA
HETATM   22  O           1     -19.354  -7.704  -6.000  0.00  0.00    -0.646 OA
ENDBRANCH  15  20
ENDBRANCH   4  15
TORSDOF 9
ENDMDL
MODEL 7
REMARK VINA RESULT:      -5.7      3.481      4.751
REMARK  9 active torsions:
REMARK  status: ('A' for Active; 'I' for Inactive)
REMARK    1  A    between atoms: C_1  and  C_15 
REMARK    2  A    between atoms: N_3  and  C_19 
REMARK    3  A    between atoms: C_8  and  C_17 
REMARK    4  A    between atoms: C_8  and  C_9 
REMARK    5  A    between atoms: C_9  and  C_10 
REMARK    6  A    between atoms: C_9  and  N_22 
REMARK    7  A    between atoms: C_15  and  C_21 
REMARK       I    between atoms: C_18  and  N_22 
REMARK    8  A    between atoms: C_18  and  C_19 
REMARK    9  A    between atoms: C_19  and  C_21 
ROOT
HETATM    1  O           1     -23.181  -3.068 -10.680  0.00  0.00    -0.271 OA
HETATM    2  H           1     -21.600  -3.672 -13.321  0.00  0.00     0.163 HD
HETATM    3  C           1     -22.305  -3.515 -11.381  0.00  0.00     0.249 C 
HETATM    4  N           1     -22.335  -3.299 -12.733  0.00  0.00    -0.344 N 
ENDROOT
BRANCH   3   5
HETATM    5  C           1     -21.179  -4.309 -10.768  0.00  0.00     0.275 C 
BRANCH   5   6
HETATM    6  N           1     -19.865  -3.748 -11.225  0.00  0.00    -0.066 N 
HETATM    7  H           1     -20.029  -2.870 -11.767  0.00  0.00     0.275 HD
HETATM    8  H           1     -19.268  -3.537 -10.393  0.00  0.00     0.275 HD
HETATM    9  H           1     -19.381  -4.447 -11.833  0.00  0.00     0.275 HD
ENDBRANCH   5   6
BRANCH   5  10
HETATM   10  C           1     -21.265  -4.227  -9.251  0.00  0.00     0.053 C 
BRANCH  10  11
HETATM   11  C           1     -19.864  -4.305  -8.657  0.00  0.00     0.115 C 
BRANCH  11  12
HETATM   12  C           1     -19.893  -5.146  -7.405  0.00  0.00     0.172 C 
HETATM   13  O           1     -20.422  -6.278  -7.425  0.00  0.00    -0.648 OA
HETATM   14  O           1     -19.388  -4.711  -6.347  0.00  0.00    -0.648 OA
ENDBRANCH  11  12
ENDBRANCH  10  11
ENDBRANCH   5  10
ENDBRANCH   3   5
BRANCH   4  15
HETATM   15  C           1     -23.417  -2.535 -13.322  0.00  0.00     0.195 C 
BRANCH  15  16
HETATM   16  C           1     -23.056  -2.166 -14.755  0.00  0.00     0.149 C 
BRANCH  16  17
HETATM   17  C           1     -23.742  -0.875 -15.130  0.00  0.00     0.175 C 
HETATM   18  O           1     -23.117   0.004 -15.762  0.00  0.00    -0.648 OA
HETATM   19  O           1     -24.936  -0.685 -14.810  0.00  0.00    -0.648 OA
ENDBRANCH  16  17
ENDBRANCH  15  16
BRANCH  15  20
HETATM   20  C           1     -24.678  -3.364 -13.317  0.00  0.00     0.197 C 
HETATM   21  O           1     -24.711  -4.454 -13.928  0.00  0.00    -0.646 OA
HETATM   22  O           1     -25.688  -2.962 -12.702  0.00  0.00    -0.646 OA
ENDBRANCH  15  20
ENDBRANCH   4  15
TORSDOF 9
ENDMDL
MODEL 8
REMARK VINA RESULT:      -5.6      2.049      6.674
REMARK  9 active torsions:
REMARK  status: ('A' for Active; 'I' for Inactive)
REMARK    1  A    between atoms: C_1  and  C_15 
REMARK    2  A    between atoms: N_3  and  C_19 
REMARK    3  A    between atoms: C_8  and  C_17 
REMARK    4  A    between atoms: C_8  and  C_9 
REMARK    5  A    between atoms: C_9  and  C_10 
REMARK    6  A    between atoms: C_9  and  N_22 
REMARK    7  A    between atoms: C_15  and  C_21 
REMARK       I    between atoms: C_18  and  N_22 
REMARK    8  A    between atoms: C_18  and  C_19 
REMARK    9  A    between atoms: C_19  and  C_21 
ROOT
HETATM    1  O           1     -22.563  -5.684  -5.600  0.00  0.00    -0.271 OA
HETATM    2  H           1     -19.869  -6.906  -4.557  0.00  0.00     0.163 HD
HETATM    3  C           1     -21.371  -5.864  -5.528  0.00  0.00     0.249 C 
HETATM    4  N           1     -20.868  -6.754  -4.618  0.00  0.00    -0.344 N 
ENDROOT
BRANCH   3   5
HETATM    5  C           1     -20.437  -5.108  -6.440  0.00  0.00     0.275 C 
BRANCH   5   6
HETATM    6  N           1     -19.934  -6.028  -7.514  0.00  0.00    -0.066 N 
HETATM    7  H           1     -20.742  -6.511  -7.967  0.00  0.00     0.275 HD
HETATM    8  H           1     -19.412  -5.475  -8.230  0.00  0.00     0.275 HD
HETATM    9  H           1     -19.297  -6.740  -7.090  0.00  0.00     0.275 HD
ENDBRANCH   5   6
BRANCH   5  10
HETATM   10  C           1     -21.181  -3.943  -7.078  0.00  0.00     0.053 C 
BRANCH  10  11
HETATM   11  C           1     -21.216  -4.130  -8.590  0.00  0.00     0.115 C 
BRANCH  11  12
HETATM   12  C           1     -22.620  -3.902  -9.093  0.00  0.00     0.172 C 
HETATM   13  O           1     -23.597  -4.150  -8.353  0.00  0.00    -0.648 OA
HETATM   14  O           1     -22.807  -3.465 -10.249  0.00  0.00    -0.648 OA
ENDBRANCH  11  12
ENDBRANCH  10  11
ENDBRANCH   5  10
ENDBRANCH   3   5
BRANCH   4  15
HETATM   15  C           1     -21.765  -7.481  -3.741  0.00  0.00     0.195 C 
BRANCH  15  16
HETATM   16  C           1     -21.355  -8.946  -3.697  0.00  0.00     0.149 C 
BRANCH  16  17
HETATM   17  C           1     -20.409  -9.239  -4.836  0.00  0.00     0.175 C 
HETATM   18  O           1     -20.861  -9.560  -5.957  0.00  0.00    -0.648 OA
HETATM   19  O           1     -19.174  -9.161  -4.659  0.00  0.00    -0.648 OA
ENDBRANCH  16  17
ENDBRANCH  15  16
BRANCH  15  20
HETATM   20  C           1     -21.693  -6.895  -2.352  0.00  0.00     0.197 C 
HETATM   21  O           1     -21.092  -7.510  -1.445  0.00  0.00    -0.646 OA
HETATM   22  O           1     -22.236  -5.796  -2.108  0.00  0.00    -0.646 OA
ENDBRANCH  15  20
ENDBRANCH   4  15
TORSDOF 9
ENDMDL
MODEL 9
REMARK VINA RESULT:      -5.5      2.816      3.889
REMARK  9 active torsions:
REMARK  status: ('A' for Active; 'I' for Inactive)
REMARK    1  A    between atoms: C_1  and  C_15 
REMARK    2  A    between atoms: N_3  and  C_19 
REMARK    3  A    between atoms: C_8  and  C_17 
REMARK    4  A    between atoms: C_8  and  C_9 
REMARK    5  A    between atoms: C_9  and  C_10 
REMARK    6  A    between atoms: C_9  and  N_22 
REMARK    7  A    between atoms: C_15  and  C_21 
REMARK       I    between atoms: C_18  and  N_22 
REMARK    8  A    between atoms: C_18  and  C_19 
REMARK    9  A    between atoms: C_19  and  C_21 
ROOT
HETATM    1  O           1     -24.626  -2.969  -9.617  0.00  0.00    -0.271 OA
HETATM    2  H           1     -21.812  -3.615 -10.844  0.00  0.00     0.163 HD
HETATM    3  C           1     -23.466  -3.307  -9.639  0.00  0.00     0.249 C 
HETATM    4  N           1     -22.784  -3.332 -10.825  0.00  0.00    -0.344 N 
ENDROOT
BRANCH   3   5
HETATM    5  C           1     -22.771  -3.700  -8.360  0.00  0.00     0.275 C 
BRANCH   5   6
HETATM    6  N           1     -23.761  -4.332  -7.426  0.00  0.00    -0.066 N 
HETATM    7  H           1     -24.126  -5.214  -7.849  0.00  0.00     0.275 HD
HETATM    8  H           1     -23.294  -4.548  -6.517  0.00  0.00     0.275 HD
HETATM    9  H           1     -24.554  -3.670  -7.262  0.00  0.00     0.275 HD
ENDBRANCH   5   6
BRANCH   5  10
HETATM   10  C           1     -21.660  -4.694  -8.668  0.00  0.00     0.053 C 
BRANCH  10  11
HETATM   11  C           1     -21.298  -5.461  -7.403  0.00  0.00     0.115 C 
BRANCH  11  12
HETATM   12  C           1     -20.124  -4.794  -6.729  0.00  0.00     0.172 C 
HETATM   13  O           1     -20.152  -4.574  -5.498  0.00  0.00    -0.648 OA
HETATM   14  O           1     -19.123  -4.462  -7.400  0.00  0.00    -0.648 OA
ENDBRANCH  11  12
ENDBRANCH  10  11
ENDBRANCH   5  10
ENDBRANCH   3   5
BRANCH   4  15
HETATM   15  C           1     -23.453  -2.954 -12.055  0.00  0.00     0.195 C 
BRANCH  15  16
HETATM   16  C           1     -22.417  -2.519 -13.083  0.00  0.00     0.149 C 
BRANCH  16  17
HETATM   17  C           1     -23.094  -2.281 -14.410  0.00  0.00     0.175 C 
HETATM   18  O           1     -24.026  -1.453 -14.498  0.00  0.00    -0.648 OA
HETATM   19  O           1     -22.723  -2.913 -15.424  0.00  0.00    -0.648 OA
ENDBRANCH  16  17
ENDBRANCH  15  16
BRANCH  15  20
HETATM   20  C           1     -24.227  -4.134 -12.589  0.00  0.00     0.197 C 
HETATM   21  O           1     -23.782  -5.293 -12.439  0.00  0.00    -0.646 OA
HETATM   22  O           1     -25.313  -3.953 -13.181  0.00  0.00    -0.646 OA
ENDBRANCH  15  20
ENDBRANCH   4  15
TORSDOF 9
ENDMDL
