MODEL 1
REMARK VINA RESULT:      -6.9      0.000      0.000
REMARK  9 active torsions:
REMARK  status: ('A' for Active; 'I' for Inactive)
REMARK       I    between atoms: C_2  and  N_3 
REMARK    1  A    between atoms: C_2  and  C_18 
REMARK    2  A    between atoms: N_3  and  C_21 
REMARK    3  A    between atoms: C_6  and  C_7 
REMARK    4  A    between atoms: C_7  and  C_18 
REMARK    5  A    between atoms: C_8  and  C_14 
REMARK    6  A    between atoms: C_14  and  C_22 
REMARK    7  A    between atoms: C_17  and  C_21 
REMARK    8  A    between atoms: C_18  and  N_19 
REMARK    9  A    between atoms: C_21  and  C_22 
ROOT
HETATM    1  C           1     -21.681  -4.602  -7.930  0.00  0.00     0.249 C 
HETATM    2  N           1     -22.251  -4.845  -9.150  0.00  0.00    -0.345 N 
HETATM    3  O           1     -21.671  -3.480  -7.481  0.00  0.00    -0.271 OA
HETATM    4  H           1     -22.259  -5.785  -9.528  0.00  0.00     0.163 HD
ENDROOT
BRANCH   1   5
HETATM    5  C           1     -21.064  -5.734  -7.147  0.00  0.00     0.275 C 
BRANCH   5   6
HETATM    6  C           1     -20.967  -5.343  -5.678  0.00  0.00     0.046 C 
BRANCH   6   7
HETATM    7  C           1     -21.786  -6.314  -4.838  0.00  0.00    -0.020 C 
HETATM    8  C           1     -21.513  -7.740  -5.299  0.00  0.00     0.009 C 
HETATM    9  C           1     -21.396  -6.170  -3.373  0.00  0.00     0.009 C 
ENDBRANCH   6   7
ENDBRANCH   5   6
BRANCH   5  10
HETATM   10  N           1     -19.690  -6.019  -7.679  0.00  0.00    -0.066 N 
HETATM   11  H           1     -19.678  -6.964  -8.124  0.00  0.00     0.275 HD
HETATM   12  H           1     -19.001  -5.995  -6.893  0.00  0.00     0.275 HD
HETATM   13  H           1     -19.435  -5.297  -8.389  0.00  0.00     0.275 HD
ENDBRANCH   5  10
ENDBRANCH   1   5
BRANCH   2  14
HETATM   14  C           1     -22.844  -3.758  -9.904  0.00  0.00     0.186 C 
BRANCH  14  15
HETATM   15  C           1     -24.345  -3.799  -9.748  0.00  0.00     0.196 C 
HETATM   16  O           1     -24.975  -2.752  -9.489  0.00  0.00    -0.646 OA
HETATM   17  O           1     -24.958  -4.881  -9.880  0.00  0.00    -0.646 OA
ENDBRANCH  14  15
BRANCH  14  18
HETATM   18  C           1     -22.482  -3.903 -11.376  0.00  0.00     0.046 C 
BRANCH  18  19
HETATM   19  C           1     -22.759  -2.592 -12.099  0.00  0.00     0.116 C 
BRANCH  19  20
HETATM   20  C           1     -23.756  -2.828 -13.207  0.00  0.00     0.172 C 
HETATM   21  O           1     -24.974  -2.926 -12.942  0.00  0.00    -0.648 OA
HETATM   22  O           1     -23.364  -2.927 -14.390  0.00  0.00    -0.648 OA
ENDBRANCH  19  20
ENDBRANCH  18  19
ENDBRANCH  14  18
ENDBRANCH   2  14
TORSDOF 9
ENDMDL
MODEL 2
REMARK VINA RESULT:      -6.8     11.866     13.647
REMARK  9 active torsions:
REMARK  status: ('A' for Active; 'I' for Inactive)
REMARK       I    between atoms: C_2  and  N_3 
REMARK    1  A    between atoms: C_2  and  C_18 
REMARK    2  A    between atoms: N_3  and  C_21 
REMARK    3  A    between atoms: C_6  and  C_7 
REMARK    4  A    between atoms: C_7  and  C_18 
REMARK    5  A    between atoms: C_8  and  C_14 
REMARK    6  A    between atoms: C_14  and  C_22 
REMARK    7  A    between atoms: C_17  and  C_21 
REMARK    8  A    between atoms: C_18  and  N_19 
REMARK    9  A    between atoms: C_21  and  C_22 
ROOT
HETATM    1  C           1     -34.516  -2.235 -12.315  0.00  0.00     0.249 C 
HETATM    2  N           1     -35.490  -1.594 -13.031  0.00  0.00    -0.345 N 
HETATM    3  O           1     -33.860  -1.624 -11.506  0.00  0.00    -0.271 OA
HETATM    4  H           1     -36.040  -2.106 -13.710  0.00  0.00     0.163 HD
ENDROOT
BRANCH   1   5
HETATM    5  C           1     -34.261  -3.706 -12.536  0.00  0.00     0.275 C 
BRANCH   5   6
HETATM    6  C           1     -33.287  -4.218 -11.483  0.00  0.00     0.046 C 
BRANCH   6   7
HETATM    7  C           1     -34.036  -5.075 -10.472  0.00  0.00    -0.020 C 
HETATM    8  C           1     -35.531  -4.799 -10.579  0.00  0.00     0.009 C 
HETATM    9  C           1     -33.770  -6.547 -10.759  0.00  0.00     0.009 C 
ENDBRANCH   6   7
ENDBRANCH   5   6
BRANCH   5  10
HETATM   10  N           1     -33.674  -3.911 -13.901  0.00  0.00    -0.066 N 
HETATM   11  H           1     -34.363  -4.412 -14.506  0.00  0.00     0.275 HD
HETATM   12  H           1     -32.801  -4.482 -13.822  0.00  0.00     0.275 HD
HETATM   13  H           1     -33.447  -2.984 -14.326  0.00  0.00     0.275 HD
ENDBRANCH   5  10
ENDBRANCH   1   5
BRANCH   2  14
HETATM   14  C           1     -35.735  -0.181 -12.819  0.00  0.00     0.186 C 
BRANCH  14  15
HETATM   15  C           1     -36.773  -0.008 -11.737  0.00  0.00     0.196 C 
HETATM   16  O           1     -36.449   0.480 -10.633  0.00  0.00    -0.646 OA
HETATM   17  O           1     -37.956  -0.354 -11.944  0.00  0.00    -0.646 OA
ENDBRANCH  14  15
BRANCH  14  18
HETATM   18  C           1     -36.240   0.447 -14.111  0.00  0.00     0.046 C 
BRANCH  18  19
HETATM   19  C           1     -35.202   0.257 -15.209  0.00  0.00     0.116 C 
BRANCH  19  20
HETATM   20  C           1     -35.631  -0.866 -16.121  0.00  0.00     0.172 C 
HETATM   21  O           1     -35.119  -2.000 -16.000  0.00  0.00    -0.648 OA
HETATM   22  O           1     -36.499  -0.662 -16.997  0.00  0.00    -0.648 OA
ENDBRANCH  19  20
ENDBRANCH  18  19
ENDBRANCH  14  18
ENDBRANCH   2  14
TORSDOF 9
ENDMDL
MODEL 3
REMARK VINA RESULT:      -6.7     11.687     13.891
REMARK  9 active torsions:
REMARK  status: ('A' for Active; 'I' for Inactive)
REMARK       I    between atoms: C_2  and  N_3 
REMARK    1  A    between atoms: C_2  and  C_18 
REMARK    2  A    between atoms: N_3  and  C_21 
REMARK    3  A    between atoms: C_6  and  C_7 
REMARK    4  A    between atoms: C_7  and  C_18 
REMARK    5  A    between atoms: C_8  and  C_14 
REMARK    6  A    between atoms: C_14  and  C_22 
REMARK    7  A    between atoms: C_17  and  C_21 
REMARK    8  A    between atoms: C_18  and  N_19 
REMARK    9  A    between atoms: C_21  and  C_22 
ROOT
HETATM    1  C           1     -34.556  -2.331 -12.491  0.00  0.00     0.249 C 
HETATM    2  N           1     -35.225  -1.146 -12.346  0.00  0.00    -0.345 N 
HETATM    3  O           1     -34.583  -2.914 -13.549  0.00  0.00    -0.271 OA
HETATM    4  H           1     -35.203  -0.657 -11.460  0.00  0.00     0.163 HD
ENDROOT
BRANCH   1   5
HETATM    5  C           1     -33.785  -2.909 -11.330  0.00  0.00     0.275 C 
BRANCH   5   6
HETATM    6  C           1     -34.590  -4.035 -10.695  0.00  0.00     0.046 C 
BRANCH   6   7
HETATM    7  C           1     -34.152  -5.368 -11.284  0.00  0.00    -0.020 C 
HETATM    8  C           1     -32.654  -5.336 -11.559  0.00  0.00     0.009 C 
HETATM    9  C           1     -34.462  -6.485 -10.296  0.00  0.00     0.009 C 
ENDBRANCH   6   7
ENDBRANCH   5   6
BRANCH   5  10
HETATM   10  N           1     -33.536  -1.836 -10.312  0.00  0.00    -0.066 N 
HETATM   11  H           1     -32.783  -1.197 -10.654  0.00  0.00     0.275 HD
HETATM   12  H           1     -33.238  -2.275  -9.410  0.00  0.00     0.275 HD
HETATM   13  H           1     -34.413  -1.289 -10.161  0.00  0.00     0.275 HD
ENDBRANCH   5  10
ENDBRANCH   1   5
BRANCH   2  14
HETATM   14  C           1     -35.967  -0.590 -13.461  0.00  0.00     0.186 C 
BRANCH  14  15
HETATM   15  C           1     -35.087   0.376 -14.218  0.00  0.00     0.196 C 
HETATM   16  O           1     -34.701   1.430 -13.670  0.00  0.00    -0.646 OA
HETATM   17  O           1     -34.745   0.120 -15.393  0.00  0.00    -0.646 OA
ENDBRANCH  14  15
BRANCH  14  18
HETATM   18  C           1     -37.195   0.143 -12.940  0.00  0.00     0.046 C 
BRANCH  18  19
HETATM   19  C           1     -37.678  -0.522 -11.658  0.00  0.00     0.116 C 
BRANCH  19  20
HETATM   20  C           1     -37.274   0.319 -10.471  0.00  0.00     0.172 C 
HETATM   21  O           1     -36.151   0.159  -9.946  0.00  0.00    -0.648 OA
HETATM   22  O           1     -38.063   1.173 -10.013  0.00  0.00    -0.648 OA
ENDBRANCH  19  20
ENDBRANCH  18  19
ENDBRANCH  14  18
ENDBRANCH   2  14
TORSDOF 9
ENDMDL
MODEL 4
REMARK VINA RESULT:      -6.7     12.045     14.044
REMARK  9 active torsions:
REMARK  status: ('A' for Active; 'I' for Inactive)
REMARK       I    between atoms: C_2  and  N_3 
REMARK    1  A    between atoms: C_2  and  C_18 
REMARK    2  A    between atoms: N_3  and  C_21 
REMARK    3  A    between atoms: C_6  and  C_7 
REMARK    4  A    between atoms: C_7  and  C_18 
REMARK    5  A    between atoms: C_8  and  C_14 
REMARK    6  A    between atoms: C_14  and  C_22 
REMARK    7  A    between atoms: C_17  and  C_21 
REMARK    8  A    between atoms: C_18  and  N_19 
REMARK    9  A    between atoms: C_21  and  C_22 
ROOT
HETATM    1  C           1     -34.974  -0.455 -12.628  0.00  0.00     0.249 C 
HETATM    2  N           1     -35.357  -0.901 -13.863  0.00  0.00    -0.345 N 
HETATM    3  O           1     -35.010   0.725 -12.373  0.00  0.00    -0.271 OA
HETATM    4  H           1     -35.327  -1.890 -14.077  0.00  0.00     0.163 HD
ENDROOT
BRANCH   1   5
HETATM    5  C           1     -34.505  -1.438 -11.583  0.00  0.00     0.275 C 
BRANCH   5   6
HETATM    6  C           1     -34.608  -2.854 -12.135  0.00  0.00     0.046 C 
BRANCH   6   7
HETATM    7  C           1     -33.798  -3.800 -11.258  0.00  0.00    -0.020 C 
HETATM    8  C           1     -34.646  -5.015 -10.902  0.00  0.00     0.009 C 
HETATM    9  C           1     -32.555  -4.253 -12.014  0.00  0.00     0.009 C 
ENDBRANCH   6   7
ENDBRANCH   5   6
BRANCH   5  10
HETATM   10  N           1     -35.363  -1.315 -10.360  0.00  0.00    -0.066 N 
HETATM   11  H           1     -34.994  -0.551  -9.749  0.00  0.00     0.275 HD
HETATM   12  H           1     -35.351  -2.219  -9.834  0.00  0.00     0.275 HD
HETATM   13  H           1     -36.344  -1.090 -10.643  0.00  0.00     0.275 HD
ENDBRANCH   5  10
ENDBRANCH   1   5
BRANCH   2  14
HETATM   14  C           1     -35.808   0.043 -14.868  0.00  0.00     0.186 C 
BRANCH  14  15
HETATM   15  C           1     -37.308  -0.049 -15.006  0.00  0.00     0.196 C 
HETATM   16  O           1     -37.896   0.618 -15.884  0.00  0.00    -0.646 OA
HETATM   17  O           1     -37.962  -0.793 -14.243  0.00  0.00    -0.646 OA
ENDBRANCH  14  15
BRANCH  14  18
HETATM   18  C           1     -35.153  -0.285 -16.203  0.00  0.00     0.046 C 
BRANCH  18  19
HETATM   19  C           1     -35.628  -1.651 -16.681  0.00  0.00     0.116 C 
BRANCH  19  20
HETATM   20  C           1     -34.489  -2.637 -16.597  0.00  0.00     0.172 C 
HETATM   21  O           1     -33.593  -2.632 -17.469  0.00  0.00    -0.648 OA
HETATM   22  O           1     -34.442  -3.459 -15.657  0.00  0.00    -0.648 OA
ENDBRANCH  19  20
ENDBRANCH  18  19
ENDBRANCH  14  18
ENDBRANCH   2  14
TORSDOF 9
ENDMDL
MODEL 5
REMARK VINA RESULT:      -6.2     12.572     14.258
REMARK  9 active torsions:
REMARK  status: ('A' for Active; 'I' for Inactive)
REMARK       I    between atoms: C_2  and  N_3 
REMARK    1  A    between atoms: C_2  and  C_18 
REMARK    2  A    between atoms: N_3  and  C_21 
REMARK    3  A    between atoms: C_6  and  C_7 
REMARK    4  A    between atoms: C_7  and  C_18 
REMARK    5  A    between atoms: C_8  and  C_14 
REMARK    6  A    between atoms: C_14  and  C_22 
REMARK    7  A    between atoms: C_17  and  C_21 
REMARK    8  A    between atoms: C_18  and  N_19 
REMARK    9  A    between atoms: C_21  and  C_22 
ROOT
HETATM    1  C           1     -35.393  -2.793 -11.364  0.00  0.00     0.249 C 
HETATM    2  N           1     -35.466  -1.637 -12.093  0.00  0.00    -0.345 N 
HETATM    3  O           1     -36.334  -3.145 -10.693  0.00  0.00    -0.271 OA
HETATM    4  H           1     -34.678  -1.341 -12.655  0.00  0.00     0.163 HD
ENDROOT
BRANCH   1   5
HETATM    5  C           1     -34.136  -3.626 -11.396  0.00  0.00     0.275 C 
BRANCH   5   6
HETATM    6  C           1     -34.197  -4.682 -10.299  0.00  0.00     0.046 C 
BRANCH   6   7
HETATM    7  C           1     -34.170  -6.069 -10.927  0.00  0.00    -0.020 C 
HETATM    8  C           1     -34.772  -7.078  -9.958  0.00  0.00     0.009 C 
HETATM    9  C           1     -34.981  -6.057 -12.216  0.00  0.00     0.009 C 
ENDBRANCH   6   7
ENDBRANCH   5   6
BRANCH   5  10
HETATM   10  N           1     -32.944  -2.743 -11.173  0.00  0.00    -0.066 N 
HETATM   11  H           1     -32.717  -2.714 -10.153  0.00  0.00     0.275 HD
HETATM   12  H           1     -33.159  -1.777 -11.510  0.00  0.00     0.275 HD
HETATM   13  H           1     -32.126  -3.122 -11.700  0.00  0.00     0.275 HD
ENDBRANCH   5  10
ENDBRANCH   1   5
BRANCH   2  14
HETATM   14  C           1     -36.674  -0.835 -12.062  0.00  0.00     0.186 C 
BRANCH  14  15
HETATM   15  C           1     -36.950  -0.290 -13.442  0.00  0.00     0.196 C 
HETATM   16  O           1     -37.953  -0.679 -14.078  0.00  0.00    -0.646 OA
HETATM   17  O           1     -36.176   0.551 -13.948  0.00  0.00    -0.646 OA
ENDBRANCH  14  15
BRANCH  14  18
HETATM   18  C           1     -36.493   0.320 -11.087  0.00  0.00     0.046 C 
BRANCH  18  19
HETATM   19  C           1     -37.591   0.272 -10.032  0.00  0.00     0.116 C 
BRANCH  19  20
HETATM   20  C           1     -36.990  -0.081  -8.694  0.00  0.00     0.172 C 
HETATM   21  O           1     -37.732  -0.419  -7.746  0.00  0.00    -0.648 OA
HETATM   22  O           1     -35.752  -0.036  -8.534  0.00  0.00    -0.648 OA
ENDBRANCH  19  20
ENDBRANCH  18  19
ENDBRANCH  14  18
ENDBRANCH   2  14
TORSDOF 9
ENDMDL
MODEL 6
REMARK VINA RESULT:      -6.0     11.858     13.906
REMARK  9 active torsions:
REMARK  status: ('A' for Active; 'I' for Inactive)
REMARK       I    between atoms: C_2  and  N_3 
REMARK    1  A    between atoms: C_2  and  C_18 
REMARK    2  A    between atoms: N_3  and  C_21 
REMARK    3  A    between atoms: C_6  and  C_7 
REMARK    4  A    between atoms: C_7  and  C_18 
REMARK    5  A    between atoms: C_8  and  C_14 
REMARK    6  A    between atoms: C_14  and  C_22 
REMARK    7  A    between atoms: C_17  and  C_21 
REMARK    8  A    between atoms: C_18  and  N_19 
REMARK    9  A    between atoms: C_21  and  C_22 
ROOT
HETATM    1  C           1     -34.550  -1.776 -12.111  0.00  0.00     0.249 C 
HETATM    2  N           1     -35.056  -0.551 -11.773  0.00  0.00    -0.345 N 
HETATM    3  O           1     -34.774  -2.243 -13.202  0.00  0.00    -0.271 OA
HETATM    4  H           1     -34.868  -0.159 -10.859  0.00  0.00     0.163 HD
ENDROOT
BRANCH   1   5
HETATM    5  C           1     -33.712  -2.545 -11.119  0.00  0.00     0.275 C 
BRANCH   5   6
HETATM    6  C           1     -34.419  -3.845 -10.755  0.00  0.00     0.046 C 
BRANCH   6   7
HETATM    7  C           1     -33.844  -4.985 -11.584  0.00  0.00    -0.020 C 
HETATM    8  C           1     -32.408  -4.659 -11.971  0.00  0.00     0.009 C 
HETATM    9  C           1     -33.870  -6.269 -10.765  0.00  0.00     0.009 C 
ENDBRANCH   6   7
ENDBRANCH   5   6
BRANCH   5  10
HETATM   10  N           1     -33.517  -1.720  -9.882  0.00  0.00    -0.066 N 
HETATM   11  H           1     -34.360  -1.122  -9.725  0.00  0.00     0.275 HD
HETATM   12  H           1     -32.675  -1.111  -9.999  0.00  0.00     0.275 HD
HETATM   13  H           1     -33.380  -2.350  -9.060  0.00  0.00     0.275 HD
ENDBRANCH   5  10
ENDBRANCH   1   5
BRANCH   2  14
HETATM   14  C           1     -35.861   0.189 -12.726  0.00  0.00     0.186 C 
BRANCH  14  15
HETATM   15  C           1     -37.320  -0.129 -12.504  0.00  0.00     0.196 C 
HETATM   16  O           1     -37.956  -0.774 -13.365  0.00  0.00    -0.646 OA
HETATM   17  O           1     -37.891   0.253 -11.460  0.00  0.00    -0.646 OA
ENDBRANCH  14  15
BRANCH  14  18
HETATM   18  C           1     -35.464  -0.205 -14.142  0.00  0.00     0.046 C 
BRANCH  18  19
HETATM   19  C           1     -35.552   1.012 -15.053  0.00  0.00     0.116 C 
BRANCH  19  20
HETATM   20  C           1     -36.661   0.813 -16.056  0.00  0.00     0.172 C 
HETATM   21  O           1     -37.551   1.680 -16.183  0.00  0.00    -0.648 OA
HETATM   22  O           1     -36.689  -0.220 -16.759  0.00  0.00    -0.648 OA
ENDBRANCH  19  20
ENDBRANCH  18  19
ENDBRANCH  14  18
ENDBRANCH   2  14
TORSDOF 9
ENDMDL
MODEL 7
REMARK VINA RESULT:      -6.0     12.222     14.310
REMARK  9 active torsions:
REMARK  status: ('A' for Active; 'I' for Inactive)
REMARK       I    between atoms: C_2  and  N_3 
REMARK    1  A    between atoms: C_2  and  C_18 
REMARK    2  A    between atoms: N_3  and  C_21 
REMARK    3  A    between atoms: C_6  and  C_7 
REMARK    4  A    between atoms: C_7  and  C_18 
REMARK    5  A    between atoms: C_8  and  C_14 
REMARK    6  A    between atoms: C_14  and  C_22 
REMARK    7  A    between atoms: C_17  and  C_21 
REMARK    8  A    between atoms: C_18  and  N_19 
REMARK    9  A    between atoms: C_21  and  C_22 
ROOT
HETATM    1  C           1     -35.244  -1.826 -10.885  0.00  0.00     0.249 C 
HETATM    2  N           1     -35.574  -3.122 -11.178  0.00  0.00    -0.345 N 
HETATM    3  O           1     -34.085  -1.514 -10.749  0.00  0.00    -0.271 OA
HETATM    4  H           1     -36.546  -3.384 -11.291  0.00  0.00     0.163 HD
ENDROOT
BRANCH   1   5
HETATM    5  C           1     -36.328  -0.788 -10.731  0.00  0.00     0.275 C 
BRANCH   5   6
HETATM    6  C           1     -36.079   0.356 -11.706  0.00  0.00     0.046 C 
BRANCH   6   7
HETATM    7  C           1     -36.070  -0.184 -13.130  0.00  0.00    -0.020 C 
HETATM    8  C           1     -37.481  -0.132 -13.703  0.00  0.00     0.009 C 
HETATM    9  C           1     -35.143   0.667 -13.989  0.00  0.00     0.009 C 
ENDBRANCH   6   7
ENDBRANCH   5   6
BRANCH   5  10
HETATM   10  N           1     -36.317  -0.258  -9.328  0.00  0.00    -0.066 N 
HETATM   11  H           1     -37.197  -0.542  -8.841  0.00  0.00     0.275 HD
HETATM   12  H           1     -36.252   0.785  -9.350  0.00  0.00     0.275 HD
HETATM   13  H           1     -35.495  -0.648  -8.815  0.00  0.00     0.275 HD
ENDBRANCH   5  10
ENDBRANCH   1   5
BRANCH   2  14
HETATM   14  C           1     -34.534  -4.120 -11.325  0.00  0.00     0.186 C 
BRANCH  14  15
HETATM   15  C           1     -34.411  -4.507 -12.779  0.00  0.00     0.196 C 
HETATM   16  O           1     -35.155  -5.390 -13.255  0.00  0.00    -0.646 OA
HETATM   17  O           1     -33.565  -3.943 -13.507  0.00  0.00    -0.646 OA
ENDBRANCH  14  15
BRANCH  14  18
HETATM   18  C           1     -34.889  -5.350 -10.501  0.00  0.00     0.046 C 
BRANCH  18  19
HETATM   19  C           1     -33.807  -6.408 -10.674  0.00  0.00     0.116 C 
BRANCH  19  20
HETATM   20  C           1     -34.303  -7.729 -10.138  0.00  0.00     0.172 C 
HETATM   21  O           1     -33.532  -8.711 -10.086  0.00  0.00    -0.648 OA
HETATM   22  O           1     -35.485  -7.840  -9.747  0.00  0.00    -0.648 OA
ENDBRANCH  19  20
ENDBRANCH  18  19
ENDBRANCH  14  18
ENDBRANCH   2  14
TORSDOF 9
ENDMDL
MODEL 8
REMARK VINA RESULT:      -6.0      2.074      3.241
REMARK  9 active torsions:
REMARK  status: ('A' for Active; 'I' for Inactive)
REMARK       I    between atoms: C_2  and  N_3 
REMARK    1  A    between atoms: C_2  and  C_18 
REMARK    2  A    between atoms: N_3  and  C_21 
REMARK    3  A    between atoms: C_6  and  C_7 
REMARK    4  A    between atoms: C_7  and  C_18 
REMARK    5  A    between atoms: C_8  and  C_14 
REMARK    6  A    between atoms: C_14  and  C_22 
REMARK    7  A    between atoms: C_17  and  C_21 
REMARK    8  A    between atoms: C_18  and  N_19 
REMARK    9  A    between atoms: C_21  and  C_22 
ROOT
HETATM    1  C           1     -21.311  -5.939  -6.415  0.00  0.00     0.249 C 
HETATM    2  N           1     -21.742  -4.826  -7.085  0.00  0.00    -0.345 N 
HETATM    3  O           1     -20.882  -6.885  -7.031  0.00  0.00    -0.271 OA
HETATM    4  H           1     -22.103  -4.032  -6.569  0.00  0.00     0.163 HD
ENDROOT
BRANCH   1   5
HETATM    5  C           1     -21.373  -5.984  -4.908  0.00  0.00     0.275 C 
BRANCH   5   6
HETATM    6  C           1     -20.536  -7.151  -4.399  0.00  0.00     0.046 C 
BRANCH   6   7
HETATM    7  C           1     -21.426  -8.114  -3.625  0.00  0.00    -0.020 C 
HETATM    8  C           1     -21.425  -9.473  -4.313  0.00  0.00     0.009 C 
HETATM    9  C           1     -20.895  -8.264  -2.205  0.00  0.00     0.009 C 
ENDBRANCH   6   7
ENDBRANCH   5   6
BRANCH   5  10
HETATM   10  N           1     -22.797  -6.162  -4.471  0.00  0.00    -0.066 N 
HETATM   11  H           1     -22.821  -6.673  -3.560  0.00  0.00     0.275 HD
HETATM   12  H           1     -23.316  -6.711  -5.193  0.00  0.00     0.275 HD
HETATM   13  H           1     -23.245  -5.225  -4.355  0.00  0.00     0.275 HD
ENDBRANCH   5  10
ENDBRANCH   1   5
BRANCH   2  14
HETATM   14  C           1     -21.684  -4.782  -8.533  0.00  0.00     0.186 C 
BRANCH  14  15
HETATM   15  C           1     -20.295  -4.382  -8.967  0.00  0.00     0.196 C 
HETATM   16  O           1     -19.845  -4.779 -10.063  0.00  0.00    -0.646 OA
HETATM   17  O           1     -19.595  -3.653  -8.231  0.00  0.00    -0.646 OA
ENDBRANCH  14  15
BRANCH  14  18
HETATM   18  C           1     -22.691  -3.764  -9.051  0.00  0.00     0.046 C 
BRANCH  18  19
HETATM   19  C           1     -23.408  -4.333 -10.269  0.00  0.00     0.116 C 
BRANCH  19  20
HETATM   20  C           1     -24.531  -3.409 -10.670  0.00  0.00     0.172 C 
HETATM   21  O           1     -25.437  -3.135  -9.854  0.00  0.00    -0.648 OA
HETATM   22  O           1     -24.555  -2.917 -11.819  0.00  0.00    -0.648 OA
ENDBRANCH  19  20
ENDBRANCH  18  19
ENDBRANCH  14  18
ENDBRANCH   2  14
TORSDOF 9
ENDMDL
MODEL 9
REMARK VINA RESULT:      -6.0      3.600      7.893
REMARK  9 active torsions:
REMARK  status: ('A' for Active; 'I' for Inactive)
REMARK       I    between atoms: C_2  and  N_3 
REMARK    1  A    between atoms: C_2  and  C_18 
REMARK    2  A    between atoms: N_3  and  C_21 
REMARK    3  A    between atoms: C_6  and  C_7 
REMARK    4  A    between atoms: C_7  and  C_18 
REMARK    5  A    between atoms: C_8  and  C_14 
REMARK    6  A    between atoms: C_14  and  C_22 
REMARK    7  A    between atoms: C_17  and  C_21 
REMARK    8  A    between atoms: C_18  and  N_19 
REMARK    9  A    between atoms: C_21  and  C_22 
ROOT
HETATM    1  C           1     -21.621  -5.079  -6.926  0.00  0.00     0.249 C 
HETATM    2  N           1     -22.060  -6.118  -6.152  0.00  0.00    -0.345 N 
HETATM    3  O           1     -20.625  -4.471  -6.613  0.00  0.00    -0.271 OA
HETATM    4  H           1     -22.895  -6.628  -6.413  0.00  0.00     0.163 HD
ENDROOT
BRANCH   1   5
HETATM    5  C           1     -22.382  -4.691  -8.170  0.00  0.00     0.275 C 
BRANCH   5   6
HETATM    6  C           1     -21.564  -3.690  -8.975  0.00  0.00     0.046 C 
BRANCH   6   7
HETATM    7  C           1     -21.364  -4.217 -10.389  0.00  0.00    -0.020 C 
HETATM    8  C           1     -21.582  -3.089 -11.390  0.00  0.00     0.009 C 
HETATM    9  C           1     -19.947  -4.757 -10.533  0.00  0.00     0.009 C 
ENDBRANCH   6   7
ENDBRANCH   5   6
BRANCH   5  10
HETATM   10  N           1     -23.691  -4.070  -7.782  0.00  0.00    -0.066 N 
HETATM   11  H           1     -23.928  -4.339  -6.800  0.00  0.00     0.275 HD
HETATM   12  H           1     -24.442  -4.408  -8.427  0.00  0.00     0.275 HD
HETATM   13  H           1     -23.616  -3.030  -7.849  0.00  0.00     0.275 HD
ENDBRANCH   5  10
ENDBRANCH   1   5
BRANCH   2  14
HETATM   14  C           1     -21.329  -6.492  -4.956  0.00  0.00     0.186 C 
BRANCH  14  15
HETATM   15  C           1     -20.643  -7.817  -5.180  0.00  0.00     0.196 C 
HETATM   16  O           1     -19.612  -8.104  -4.535  0.00  0.00    -0.646 OA
HETATM   17  O           1     -21.106  -8.629  -6.011  0.00  0.00    -0.646 OA
ENDBRANCH  14  15
BRANCH  14  18
HETATM   18  C           1     -22.296  -6.611  -3.786  0.00  0.00     0.046 C 
BRANCH  18  19
HETATM   19  C           1     -21.622  -6.108  -2.516  0.00  0.00     0.116 C 
BRANCH  19  20
HETATM   20  C           1     -21.834  -7.106  -1.404  0.00  0.00     0.172 C 
HETATM   21  O           1     -22.787  -6.960  -0.608  0.00  0.00    -0.648 OA
HETATM   22  O           1     -21.058  -8.076  -1.279  0.00  0.00    -0.648 OA
ENDBRANCH  19  20
ENDBRANCH  18  19
ENDBRANCH  14  18
ENDBRANCH   2  14
TORSDOF 9
ENDMDL
