MODEL 1
REMARK VINA RESULT:      -7.5      0.000      0.000
REMARK  10 active torsions:
REMARK  status: ('A' for Active; 'I' for Inactive)
REMARK       I    between atoms: N_3  and  C_24 
REMARK       I    between atoms: N_4  and  C_24 
REMARK    1  A    between atoms: N_4  and  C_18 
REMARK    2  A    between atoms: N_7  and  C_16 
REMARK       I    between atoms: N_7  and  C_9 
REMARK    3  A    between atoms: C_9  and  C_10 
REMARK    4  A    between atoms: C_10  and  C_11 
REMARK    5  A    between atoms: C_10  and  N_15 
REMARK    6  A    between atoms: C_11  and  C_12 
REMARK       I    between atoms: C_12  and  N_13 
REMARK    7  A    between atoms: C_16  and  C_22 
REMARK    8  A    between atoms: C_16  and  C_25 
REMARK    9  A    between atoms: C_17  and  C_18 
REMARK   10  A    between atoms: C_17  and  C_22 
ROOT
HETATM    1  C           1     -22.587  -3.769  -9.731  0.00  0.00     0.185 C 
ENDROOT
BRANCH   1   2
HETATM    2  N           1     -22.091  -4.855  -8.908  0.00  0.00    -0.345 N 
HETATM    3  C           1     -21.636  -4.601  -7.642  0.00  0.00     0.249 C 
HETATM    4  O           1     -21.648  -3.474  -7.210  0.00  0.00    -0.271 OA
HETATM    5  H           1     -22.080  -5.800  -9.270  0.00  0.00     0.163 HD
BRANCH   3   6
HETATM    6  C           1     -21.120  -5.731  -6.786  0.00  0.00     0.283 C 
BRANCH   6   7
HETATM    7  C           1     -20.866  -5.223  -5.372  0.00  0.00     0.145 C 
BRANCH   7   8
HETATM    8  C           1     -21.137  -6.330  -4.383  0.00  0.00     0.217 C 
HETATM    9  N           1     -21.874  -6.076  -3.257  0.00  0.00    -0.370 N 
HETATM   10  H           1     -22.055  -6.819  -2.593  0.00  0.00     0.159 HD
HETATM   11  H           1     -22.236  -5.147  -3.089  0.00  0.00     0.159 HD
HETATM   12  O           1     -20.703  -7.439  -4.584  0.00  0.00    -0.274 OA
ENDBRANCH   7   8
ENDBRANCH   6   7
BRANCH   6  13
HETATM   13  N           1     -19.838  -6.253  -7.366  0.00  0.00    -0.066 N 
HETATM   14  H           1     -19.143  -5.476  -7.432  0.00  0.00     0.275 HD
HETATM   15  H           1     -19.459  -7.008  -6.750  0.00  0.00     0.275 HD
HETATM   16  H           1     -20.020  -6.641  -8.319  0.00  0.00     0.275 HD
ENDBRANCH   6  13
ENDBRANCH   3   6
ENDBRANCH   1   2
BRANCH   1  17
HETATM   17  C           1     -22.023  -3.902 -11.139  0.00  0.00     0.038 C 
BRANCH  17  18
HETATM   18  C           1     -22.345  -2.646 -11.937  0.00  0.00     0.023 C 
BRANCH  18  19
HETATM   19  C           1     -23.191  -3.016 -13.149  0.00  0.00     0.138 C 
BRANCH  19  20
HETATM   20  N           1     -23.925  -1.831 -13.616  0.00  0.00    -0.227 N 
HETATM   21  C           1     -23.678  -1.342 -14.757  0.00  0.00     0.665 C 
HETATM   22  N           1     -22.798  -1.874 -15.497  0.00  0.00    -0.235 N 
HETATM   23  N           1     -24.327  -0.294 -15.170  0.00  0.00    -0.235 N 
HETATM   24  H           1     -22.273  -2.720 -15.163  0.00  0.00     0.174 HD
HETATM   25  H           1     -22.593  -1.468 -16.443  0.00  0.00     0.174 HD
HETATM   26  H           1     -24.122   0.109 -16.112  0.00  0.00     0.174 HD
HETATM   27  H           1     -25.052   0.144 -14.560  0.00  0.00     0.174 HD
HETATM   28  H           1     -24.654  -1.390 -13.004  0.00  0.00     0.177 HD
ENDBRANCH  19  20
ENDBRANCH  18  19
ENDBRANCH  17  18
ENDBRANCH   1  17
BRANCH   1  29
HETATM   29  C           1     -24.093  -3.826  -9.784  0.00  0.00     0.196 C 
HETATM   30  O           1     -24.769  -2.819  -9.478  0.00  0.00    -0.646 OA
HETATM   31  O           1     -24.667  -4.880 -10.134  0.00  0.00    -0.646 OA
ENDBRANCH   1  29
TORSDOF 10
ENDMDL
MODEL 2
REMARK VINA RESULT:      -7.4     12.199     13.394
REMARK  10 active torsions:
REMARK  status: ('A' for Active; 'I' for Inactive)
REMARK       I    between atoms: N_3  and  C_24 
REMARK       I    between atoms: N_4  and  C_24 
REMARK    1  A    between atoms: N_4  and  C_18 
REMARK    2  A    between atoms: N_7  and  C_16 
REMARK       I    between atoms: N_7  and  C_9 
REMARK    3  A    between atoms: C_9  and  C_10 
REMARK    4  A    between atoms: C_10  and  C_11 
REMARK    5  A    between atoms: C_10  and  N_15 
REMARK    6  A    between atoms: C_11  and  C_12 
REMARK       I    between atoms: C_12  and  N_13 
REMARK    7  A    between atoms: C_16  and  C_22 
REMARK    8  A    between atoms: C_16  and  C_25 
REMARK    9  A    between atoms: C_17  and  C_18 
REMARK   10  A    between atoms: C_17  and  C_22 
ROOT
HETATM    1  C           1     -35.186  -1.871 -11.497  0.00  0.00     0.185 C 
ENDROOT
BRANCH   1   2
HETATM    2  N           1     -35.442  -3.287 -11.667  0.00  0.00    -0.345 N 
HETATM    3  C           1     -34.573  -4.207 -11.144  0.00  0.00     0.249 C 
HETATM    4  O           1     -33.593  -3.839 -10.541  0.00  0.00    -0.271 OA
HETATM    5  H           1     -36.262  -3.597 -12.173  0.00  0.00     0.163 HD
BRANCH   3   6
HETATM    6  C           1     -34.839  -5.682 -11.320  0.00  0.00     0.283 C 
BRANCH   6   7
HETATM    7  C           1     -33.704  -6.482 -10.695  0.00  0.00     0.145 C 
BRANCH   7   8
HETATM    8  C           1     -34.233  -7.807 -10.204  0.00  0.00     0.217 C 
HETATM    9  N           1     -33.443  -8.925 -10.266  0.00  0.00    -0.370 N 
HETATM   10  H           1     -33.799  -9.814  -9.937  0.00  0.00     0.159 HD
HETATM   11  H           1     -32.506  -8.861 -10.640  0.00  0.00     0.159 HD
HETATM   12  O           1     -35.353  -7.883  -9.758  0.00  0.00    -0.274 OA
ENDBRANCH   7   8
ENDBRANCH   6   7
BRANCH   6  13
HETATM   13  N           1     -34.928  -6.002 -12.784  0.00  0.00    -0.066 N 
HETATM   14  H           1     -34.533  -6.954 -12.958  0.00  0.00     0.275 HD
HETATM   15  H           1     -35.929  -5.980 -13.084  0.00  0.00     0.275 HD
HETATM   16  H           1     -34.386  -5.294 -13.328  0.00  0.00     0.275 HD
ENDBRANCH   6  13
ENDBRANCH   3   6
ENDBRANCH   1   2
BRANCH   1  17
HETATM   17  C           1     -35.139  -1.197 -12.862  0.00  0.00     0.038 C 
BRANCH  17  18
HETATM   18  C           1     -34.921   0.300 -12.684  0.00  0.00     0.023 C 
BRANCH  18  19
HETATM   19  C           1     -34.817   0.965 -14.051  0.00  0.00     0.138 C 
BRANCH  19  20
HETATM   20  N           1     -35.124  -0.017 -15.100  0.00  0.00    -0.227 N 
HETATM   21  C           1     -35.998   0.245 -15.977  0.00  0.00     0.665 C 
HETATM   22  N           1     -36.607   1.355 -15.951  0.00  0.00    -0.235 N 
HETATM   23  N           1     -36.270  -0.624 -16.905  0.00  0.00    -0.235 N 
HETATM   24  H           1     -36.388   2.057 -15.202  0.00  0.00     0.174 HD
HETATM   25  H           1     -37.332   1.573 -16.678  0.00  0.00     0.174 HD
HETATM   26  H           1     -36.991  -0.406 -17.629  0.00  0.00     0.174 HD
HETATM   27  H           1     -35.767  -1.539 -16.926  0.00  0.00     0.174 HD
HETATM   28  H           1     -34.619  -0.937 -15.122  0.00  0.00     0.177 HD
ENDBRANCH  19  20
ENDBRANCH  18  19
ENDBRANCH  17  18
ENDBRANCH   1  17
BRANCH   1  29
HETATM   29  C           1     -36.287  -1.257 -10.669  0.00  0.00     0.196 C 
HETATM   30  O           1     -36.009  -0.638  -9.618  0.00  0.00    -0.646 OA
HETATM   31  O           1     -37.478  -1.365 -11.034  0.00  0.00    -0.646 OA
ENDBRANCH   1  29
TORSDOF 10
ENDMDL
MODEL 3
REMARK VINA RESULT:      -6.9     12.039     14.306
REMARK  10 active torsions:
REMARK  status: ('A' for Active; 'I' for Inactive)
REMARK       I    between atoms: N_3  and  C_24 
REMARK       I    between atoms: N_4  and  C_24 
REMARK    1  A    between atoms: N_4  and  C_18 
REMARK    2  A    between atoms: N_7  and  C_16 
REMARK       I    between atoms: N_7  and  C_9 
REMARK    3  A    between atoms: C_9  and  C_10 
REMARK    4  A    between atoms: C_10  and  C_11 
REMARK    5  A    between atoms: C_10  and  N_15 
REMARK    6  A    between atoms: C_11  and  C_12 
REMARK       I    between atoms: C_12  and  N_13 
REMARK    7  A    between atoms: C_16  and  C_22 
REMARK    8  A    between atoms: C_16  and  C_25 
REMARK    9  A    between atoms: C_17  and  C_18 
REMARK   10  A    between atoms: C_17  and  C_22 
ROOT
HETATM    1  C           1     -35.852  -0.864 -13.270  0.00  0.00     0.185 C 
ENDROOT
BRANCH   1   2
HETATM    2  N           1     -34.960  -1.403 -12.262  0.00  0.00    -0.345 N 
HETATM    3  C           1     -34.279  -2.566 -12.503  0.00  0.00     0.249 C 
HETATM    4  O           1     -34.421  -3.143 -13.554  0.00  0.00    -0.271 OA
HETATM    5  H           1     -34.841  -0.921 -11.381  0.00  0.00     0.163 HD
BRANCH   3   6
HETATM    6  C           1     -33.351  -3.128 -11.454  0.00  0.00     0.283 C 
BRANCH   6   7
HETATM    7  C           1     -32.885  -4.515 -11.877  0.00  0.00     0.145 C 
BRANCH   7   8
HETATM    8  C           1     -33.934  -5.533 -11.505  0.00  0.00     0.217 C 
HETATM    9  N           1     -34.866  -5.925 -12.429  0.00  0.00    -0.370 N 
HETATM   10  H           1     -35.570  -6.608 -12.178  0.00  0.00     0.159 HD
HETATM   11  H           1     -34.851  -5.533 -13.360  0.00  0.00     0.159 HD
HETATM   12  O           1     -33.952  -6.002 -10.392  0.00  0.00    -0.274 OA
ENDBRANCH   7   8
ENDBRANCH   6   7
BRANCH   6  13
HETATM   13  N           1     -34.076  -3.223 -10.144  0.00  0.00    -0.066 N 
HETATM   14  H           1     -33.382  -3.308  -9.367  0.00  0.00     0.275 HD
HETATM   15  H           1     -34.653  -2.363 -10.002  0.00  0.00     0.275 HD
HETATM   16  H           1     -34.698  -4.063 -10.151  0.00  0.00     0.275 HD
ENDBRANCH   6  13
ENDBRANCH   3   6
ENDBRANCH   1   2
BRANCH   1  17
HETATM   17  C           1     -37.048  -0.210 -12.591  0.00  0.00     0.038 C 
BRANCH  17  18
HETATM   18  C           1     -37.053  -0.570 -11.111  0.00  0.00     0.023 C 
BRANCH  18  19
HETATM   19  C           1     -36.852   0.692 -10.280  0.00  0.00     0.138 C 
BRANCH  19  20
HETATM   20  N           1     -36.552   0.322  -8.889  0.00  0.00    -0.227 N 
HETATM   21  C           1     -36.957   1.052  -7.939  0.00  0.00     0.665 C 
HETATM   22  N           1     -37.620   2.103  -8.185  0.00  0.00    -0.235 N 
HETATM   23  N           1     -36.692   0.725  -6.709  0.00  0.00    -0.235 N 
HETATM   24  H           1     -37.835   2.367  -9.178  0.00  0.00     0.174 HD
HETATM   25  H           1     -37.956   2.709  -7.396  0.00  0.00     0.174 HD
HETATM   26  H           1     -37.026   1.329  -5.924  0.00  0.00     0.174 HD
HETATM   27  H           1     -36.145  -0.141  -6.506  0.00  0.00     0.174 HD
HETATM   28  H           1     -36.002  -0.549  -8.685  0.00  0.00     0.177 HD
ENDBRANCH  19  20
ENDBRANCH  18  19
ENDBRANCH  17  18
ENDBRANCH   1  17
BRANCH   1  29
HETATM   29  C           1     -35.117   0.163 -14.094  0.00  0.00     0.196 C 
HETATM   30  O           1     -34.820  -0.084 -15.283  0.00  0.00    -0.646 OA
HETATM   31  O           1     -34.804   1.263 -13.588  0.00  0.00    -0.646 OA
ENDBRANCH   1  29
TORSDOF 10
ENDMDL
MODEL 4
REMARK VINA RESULT:      -6.5     11.820     13.780
REMARK  10 active torsions:
REMARK  status: ('A' for Active; 'I' for Inactive)
REMARK       I    between atoms: N_3  and  C_24 
REMARK       I    between atoms: N_4  and  C_24 
REMARK    1  A    between atoms: N_4  and  C_18 
REMARK    2  A    between atoms: N_7  and  C_16 
REMARK       I    between atoms: N_7  and  C_9 
REMARK    3  A    between atoms: C_9  and  C_10 
REMARK    4  A    between atoms: C_10  and  C_11 
REMARK    5  A    between atoms: C_10  and  N_15 
REMARK    6  A    between atoms: C_11  and  C_12 
REMARK       I    between atoms: C_12  and  N_13 
REMARK    7  A    between atoms: C_16  and  C_22 
REMARK    8  A    between atoms: C_16  and  C_25 
REMARK    9  A    between atoms: C_17  and  C_18 
REMARK   10  A    between atoms: C_17  and  C_22 
ROOT
HETATM    1  C           1     -35.600  -0.832 -11.807  0.00  0.00     0.185 C 
ENDROOT
BRANCH   1   2
HETATM    2  N           1     -35.279  -2.220 -12.073  0.00  0.00    -0.345 N 
HETATM    3  C           1     -34.131  -2.766 -11.564  0.00  0.00     0.249 C 
HETATM    4  O           1     -33.386  -2.091 -10.894  0.00  0.00    -0.271 OA
HETATM    5  H           1     -35.902  -2.785 -12.635  0.00  0.00     0.163 HD
BRANCH   3   6
HETATM    6  C           1     -33.796  -4.211 -11.840  0.00  0.00     0.283 C 
BRANCH   6   7
HETATM    7  C           1     -34.110  -5.050 -10.609  0.00  0.00     0.145 C 
BRANCH   7   8
HETATM    8  C           1     -34.469  -6.452 -11.033  0.00  0.00     0.217 C 
HETATM    9  N           1     -35.054  -6.670 -12.253  0.00  0.00    -0.370 N 
HETATM   10  H           1     -35.295  -7.611 -12.538  0.00  0.00     0.159 HD
HETATM   11  H           1     -35.243  -5.891 -12.869  0.00  0.00     0.159 HD
HETATM   12  O           1     -34.244  -7.383 -10.297  0.00  0.00    -0.274 OA
ENDBRANCH   7   8
ENDBRANCH   6   7
BRANCH   6  13
HETATM   13  N           1     -32.337  -4.332 -12.168  0.00  0.00    -0.066 N 
HETATM   14  H           1     -32.158  -5.253 -12.630  0.00  0.00     0.275 HD
HETATM   15  H           1     -32.060  -3.559 -12.815  0.00  0.00     0.275 HD
HETATM   16  H           1     -31.776  -4.268 -11.288  0.00  0.00     0.275 HD
ENDBRANCH   6  13
ENDBRANCH   3   6
ENDBRANCH   1   2
BRANCH   1  17
HETATM   17  C           1     -36.185  -0.198 -13.063  0.00  0.00     0.038 C 
BRANCH  17  18
HETATM   18  C           1     -35.389  -0.650 -14.280  0.00  0.00     0.023 C 
BRANCH  18  19
HETATM   19  C           1     -36.187  -0.360 -15.545  0.00  0.00     0.138 C 
BRANCH  19  20
HETATM   20  N           1     -35.920   1.015 -15.990  0.00  0.00    -0.227 N 
HETATM   21  C           1     -36.881   1.818 -16.177  0.00  0.00     0.665 C 
HETATM   22  N           1     -38.072   1.436 -15.980  0.00  0.00    -0.235 N 
HETATM   23  N           1     -36.644   3.034 -16.571  0.00  0.00    -0.235 N 
HETATM   24  H           1     -38.263   0.454 -15.662  0.00  0.00     0.174 HD
HETATM   25  H           1     -38.869   2.102 -16.135  0.00  0.00     0.174 HD
HETATM   26  H           1     -37.438   3.696 -16.724  0.00  0.00     0.174 HD
HETATM   27  H           1     -35.661   3.349 -16.733  0.00  0.00     0.174 HD
HETATM   28  H           1     -34.933   1.332 -16.154  0.00  0.00     0.177 HD
ENDBRANCH  19  20
ENDBRANCH  18  19
ENDBRANCH  17  18
ENDBRANCH   1  17
BRANCH   1  29
HETATM   29  C           1     -36.608  -0.754 -10.688  0.00  0.00     0.196 C 
HETATM   30  O           1     -37.784  -1.133 -10.878  0.00  0.00    -0.646 OA
HETATM   31  O           1     -36.267  -0.313  -9.569  0.00  0.00    -0.646 OA
ENDBRANCH   1  29
TORSDOF 10
ENDMDL
MODEL 5
REMARK VINA RESULT:      -6.5      2.166      2.962
REMARK  10 active torsions:
REMARK  status: ('A' for Active; 'I' for Inactive)
REMARK       I    between atoms: N_3  and  C_24 
REMARK       I    between atoms: N_4  and  C_24 
REMARK    1  A    between atoms: N_4  and  C_18 
REMARK    2  A    between atoms: N_7  and  C_16 
REMARK       I    between atoms: N_7  and  C_9 
REMARK    3  A    between atoms: C_9  and  C_10 
REMARK    4  A    between atoms: C_10  and  C_11 
REMARK    5  A    between atoms: C_10  and  N_15 
REMARK    6  A    between atoms: C_11  and  C_12 
REMARK       I    between atoms: C_12  and  N_13 
REMARK    7  A    between atoms: C_16  and  C_22 
REMARK    8  A    between atoms: C_16  and  C_25 
REMARK    9  A    between atoms: C_17  and  C_18 
REMARK   10  A    between atoms: C_17  and  C_22 
ROOT
HETATM    1  C           1     -21.750  -4.751  -8.426  0.00  0.00     0.185 C 
ENDROOT
BRANCH   1   2
HETATM    2  N           1     -21.387  -4.832  -7.025  0.00  0.00    -0.345 N 
HETATM    3  C           1     -21.157  -6.052  -6.447  0.00  0.00     0.249 C 
HETATM    4  O           1     -21.255  -7.060  -7.105  0.00  0.00    -0.271 OA
HETATM    5  H           1     -21.305  -3.988  -6.473  0.00  0.00     0.163 HD
BRANCH   3   6
HETATM    6  C           1     -20.779  -6.137  -4.989  0.00  0.00     0.283 C 
BRANCH   6   7
HETATM    7  C           1     -22.002  -6.525  -4.169  0.00  0.00     0.145 C 
BRANCH   7   8
HETATM    8  C           1     -21.640  -6.546  -2.704  0.00  0.00     0.217 C 
HETATM    9  N           1     -22.333  -5.767  -1.816  0.00  0.00    -0.370 N 
HETATM   10  H           1     -22.089  -5.781  -0.834  0.00  0.00     0.159 HD
HETATM   11  H           1     -23.087  -5.178  -2.142  0.00  0.00     0.159 HD
HETATM   12  O           1     -20.738  -7.249  -2.315  0.00  0.00    -0.274 OA
ENDBRANCH   7   8
ENDBRANCH   6   7
BRANCH   6  13
HETATM   13  N           1     -20.270  -4.803  -4.526  0.00  0.00    -0.066 N 
HETATM   14  H           1     -21.054  -4.113  -4.520  0.00  0.00     0.275 HD
HETATM   15  H           1     -19.881  -4.896  -3.560  0.00  0.00     0.275 HD
HETATM   16  H           1     -19.519  -4.473  -5.173  0.00  0.00     0.275 HD
ENDBRANCH   6  13
ENDBRANCH   3   6
ENDBRANCH   1   2
BRANCH   1  17
HETATM   17  C           1     -22.874  -3.737  -8.600  0.00  0.00     0.038 C 
BRANCH  17  18
HETATM   18  C           1     -23.955  -4.326  -9.496  0.00  0.00     0.023 C 
BRANCH  18  19
HETATM   19  C           1     -24.189  -3.402 -10.685  0.00  0.00     0.138 C 
BRANCH  19  20
HETATM   20  N           1     -23.144  -3.626 -11.694  0.00  0.00    -0.227 N 
HETATM   21  C           1     -23.220  -3.056 -12.822  0.00  0.00     0.665 C 
HETATM   22  N           1     -24.197  -2.292 -13.081  0.00  0.00    -0.235 N 
HETATM   23  N           1     -22.295  -3.254 -13.714  0.00  0.00    -0.235 N 
HETATM   24  H           1     -24.943  -2.132 -12.360  0.00  0.00     0.174 HD
HETATM   25  H           1     -24.260  -1.819 -14.016  0.00  0.00     0.174 HD
HETATM   26  H           1     -22.359  -2.783 -14.644  0.00  0.00     0.174 HD
HETATM   27  H           1     -21.490  -3.884 -13.500  0.00  0.00     0.174 HD
HETATM   28  H           1     -22.334  -4.259 -11.480  0.00  0.00     0.177 HD
ENDBRANCH  19  20
ENDBRANCH  18  19
ENDBRANCH  17  18
ENDBRANCH   1  17
BRANCH   1  29
HETATM   29  C           1     -20.551  -4.317  -9.231  0.00  0.00     0.196 C 
HETATM   30  O           1     -19.573  -3.784  -8.661  0.00  0.00    -0.646 OA
HETATM   31  O           1     -20.533  -4.489 -10.469  0.00  0.00    -0.646 OA
ENDBRANCH   1  29
TORSDOF 10
ENDMDL
MODEL 6
REMARK VINA RESULT:      -6.5      1.464      2.036
REMARK  10 active torsions:
REMARK  status: ('A' for Active; 'I' for Inactive)
REMARK       I    between atoms: N_3  and  C_24 
REMARK       I    between atoms: N_4  and  C_24 
REMARK    1  A    between atoms: N_4  and  C_18 
REMARK    2  A    between atoms: N_7  and  C_16 
REMARK       I    between atoms: N_7  and  C_9 
REMARK    3  A    between atoms: C_9  and  C_10 
REMARK    4  A    between atoms: C_10  and  C_11 
REMARK    5  A    between atoms: C_10  and  N_15 
REMARK    6  A    between atoms: C_11  and  C_12 
REMARK       I    between atoms: C_12  and  N_13 
REMARK    7  A    between atoms: C_16  and  C_22 
REMARK    8  A    between atoms: C_16  and  C_25 
REMARK    9  A    between atoms: C_17  and  C_18 
REMARK   10  A    between atoms: C_17  and  C_22 
ROOT
HETATM    1  C           1     -22.445  -3.940  -8.955  0.00  0.00     0.185 C 
ENDROOT
BRANCH   1   2
HETATM    2  N           1     -22.425  -4.750  -7.753  0.00  0.00    -0.345 N 
HETATM    3  C           1     -21.400  -4.617  -6.855  0.00  0.00     0.249 C 
HETATM    4  O           1     -20.513  -3.825  -7.063  0.00  0.00    -0.271 OA
HETATM    5  H           1     -23.168  -5.414  -7.578  0.00  0.00     0.163 HD
BRANCH   3   6
HETATM    6  C           1     -21.379  -5.461  -5.604  0.00  0.00     0.283 C 
BRANCH   6   7
HETATM    7  C           1     -20.395  -6.610  -5.782  0.00  0.00     0.145 C 
BRANCH   7   8
HETATM    8  C           1     -20.857  -7.797  -4.973  0.00  0.00     0.217 C 
HETATM    9  N           1     -21.020  -9.015  -5.578  0.00  0.00    -0.370 N 
HETATM   10  H           1     -21.330  -9.812  -5.036  0.00  0.00     0.159 HD
HETATM   11  H           1     -20.831  -9.119  -6.566  0.00  0.00     0.159 HD
HETATM   12  O           1     -21.083  -7.673  -3.793  0.00  0.00    -0.274 OA
ENDBRANCH   7   8
ENDBRANCH   6   7
BRANCH   6  13
HETATM   13  N           1     -22.751  -6.013  -5.351  0.00  0.00    -0.066 N 
HETATM   14  H           1     -22.677  -7.017  -5.070  0.00  0.00     0.275 HD
HETATM   15  H           1     -23.209  -5.470  -4.584  0.00  0.00     0.275 HD
HETATM   16  H           1     -23.324  -5.936  -6.221  0.00  0.00     0.275 HD
ENDBRANCH   6  13
ENDBRANCH   3   6
ENDBRANCH   1   2
BRANCH   1  17
HETATM   17  C           1     -21.455  -4.506  -9.965  0.00  0.00     0.038 C 
BRANCH  17  18
HETATM   18  C           1     -21.005  -3.401 -10.911  0.00  0.00     0.023 C 
BRANCH  18  19
HETATM   19  C           1     -21.499  -3.705 -12.320  0.00  0.00     0.138 C 
BRANCH  19  20
HETATM   20  N           1     -22.356  -2.606 -12.787  0.00  0.00    -0.227 N 
HETATM   21  C           1     -23.533  -2.847 -13.185  0.00  0.00     0.665 C 
HETATM   22  N           1     -23.973  -4.035 -13.180  0.00  0.00    -0.235 N 
HETATM   23  N           1     -24.291  -1.875 -13.598  0.00  0.00    -0.235 N 
HETATM   24  H           1     -23.361  -4.820 -12.846  0.00  0.00     0.174 HD
HETATM   25  H           1     -24.950  -4.234 -13.510  0.00  0.00     0.174 HD
HETATM   26  H           1     -25.263  -2.075 -13.926  0.00  0.00     0.174 HD
HETATM   27  H           1     -23.929  -0.896 -13.602  0.00  0.00     0.174 HD
HETATM   28  H           1     -21.992  -1.622 -12.791  0.00  0.00     0.177 HD
ENDBRANCH  19  20
ENDBRANCH  18  19
ENDBRANCH  17  18
ENDBRANCH   1  17
BRANCH   1  29
HETATM   29  C           1     -23.832  -3.952  -9.547  0.00  0.00     0.196 C 
HETATM   30  O           1     -24.241  -4.962 -10.160  0.00  0.00    -0.646 OA
HETATM   31  O           1     -24.574  -2.954  -9.424  0.00  0.00    -0.646 OA
ENDBRANCH   1  29
TORSDOF 10
ENDMDL
MODEL 7
REMARK VINA RESULT:      -6.4      2.378      8.545
REMARK  10 active torsions:
REMARK  status: ('A' for Active; 'I' for Inactive)
REMARK       I    between atoms: N_3  and  C_24 
REMARK       I    between atoms: N_4  and  C_24 
REMARK    1  A    between atoms: N_4  and  C_18 
REMARK    2  A    between atoms: N_7  and  C_16 
REMARK       I    between atoms: N_7  and  C_9 
REMARK    3  A    between atoms: C_9  and  C_10 
REMARK    4  A    between atoms: C_10  and  C_11 
REMARK    5  A    between atoms: C_10  and  N_15 
REMARK    6  A    between atoms: C_11  and  C_12 
REMARK       I    between atoms: C_12  and  N_13 
REMARK    7  A    between atoms: C_16  and  C_22 
REMARK    8  A    between atoms: C_16  and  C_25 
REMARK    9  A    between atoms: C_17  and  C_18 
REMARK   10  A    between atoms: C_17  and  C_22 
ROOT
HETATM    1  C           1     -21.184  -4.867  -7.222  0.00  0.00     0.185 C 
ENDROOT
BRANCH   1   2
HETATM    2  N           1     -21.907  -4.854  -8.479  0.00  0.00    -0.345 N 
HETATM    3  C           1     -23.216  -4.456  -8.511  0.00  0.00     0.249 C 
HETATM    4  O           1     -23.770  -4.116  -7.493  0.00  0.00    -0.271 OA
HETATM    5  H           1     -21.443  -5.139  -9.332  0.00  0.00     0.163 HD
BRANCH   3   6
HETATM    6  C           1     -23.968  -4.442  -9.819  0.00  0.00     0.283 C 
BRANCH   6   7
HETATM    7  C           1     -23.247  -3.539 -10.811  0.00  0.00     0.145 C 
BRANCH   7   8
HETATM    8  C           1     -23.976  -3.558 -12.132  0.00  0.00     0.217 C 
HETATM    9  N           1     -23.813  -4.616 -12.988  0.00  0.00    -0.370 N 
HETATM   10  H           1     -24.301  -4.629 -13.874  0.00  0.00     0.159 HD
HETATM   11  H           1     -23.205  -5.383 -12.734  0.00  0.00     0.159 HD
HETATM   12  O           1     -24.701  -2.642 -12.436  0.00  0.00    -0.274 OA
ENDBRANCH   7   8
ENDBRANCH   6   7
BRANCH   6  13
HETATM   13  N           1     -25.358  -3.925  -9.592  0.00  0.00    -0.066 N 
HETATM   14  H           1     -25.608  -3.251 -10.350  0.00  0.00     0.275 HD
HETATM   15  H           1     -26.032  -4.724  -9.600  0.00  0.00     0.275 HD
HETATM   16  H           1     -25.402  -3.442  -8.666  0.00  0.00     0.275 HD
ENDBRANCH   6  13
ENDBRANCH   3   6
ENDBRANCH   1   2
BRANCH   1  17
HETATM   17  C           1     -21.142  -6.288  -6.677  0.00  0.00     0.038 C 
BRANCH  17  18
HETATM   18  C           1     -21.997  -6.377  -5.420  0.00  0.00     0.023 C 
BRANCH  18  19
HETATM   19  C           1     -21.154  -6.011  -4.204  0.00  0.00     0.138 C 
BRANCH  19  20
HETATM   20  N           1     -21.996  -6.027  -2.999  0.00  0.00    -0.227 N 
HETATM   21  C           1     -21.737  -6.832  -2.057  0.00  0.00     0.665 C 
HETATM   22  N           1     -20.753  -7.623  -2.153  0.00  0.00    -0.235 N 
HETATM   23  N           1     -22.482  -6.847  -0.992  0.00  0.00    -0.235 N 
HETATM   24  H           1     -20.151  -7.611  -3.013  0.00  0.00     0.174 HD
HETATM   25  H           1     -20.538  -8.291  -1.371  0.00  0.00     0.174 HD
HETATM   26  H           1     -22.268  -7.512  -0.215  0.00  0.00     0.174 HD
HETATM   27  H           1     -23.294  -6.195  -0.914  0.00  0.00     0.174 HD
HETATM   28  H           1     -22.812  -5.372  -2.920  0.00  0.00     0.177 HD
ENDBRANCH  19  20
ENDBRANCH  18  19
ENDBRANCH  17  18
ENDBRANCH   1  17
BRANCH   1  29
HETATM   29  C           1     -19.777  -4.371  -7.446  0.00  0.00     0.196 C 
HETATM   30  O           1     -19.526  -3.618  -8.412  0.00  0.00    -0.646 OA
HETATM   31  O           1     -18.863  -4.711  -6.665  0.00  0.00    -0.646 OA
ENDBRANCH   1  29
TORSDOF 10
ENDMDL
MODEL 8
REMARK VINA RESULT:      -6.3      3.064      9.451
REMARK  10 active torsions:
REMARK  status: ('A' for Active; 'I' for Inactive)
REMARK       I    between atoms: N_3  and  C_24 
REMARK       I    between atoms: N_4  and  C_24 
REMARK    1  A    between atoms: N_4  and  C_18 
REMARK    2  A    between atoms: N_7  and  C_16 
REMARK       I    between atoms: N_7  and  C_9 
REMARK    3  A    between atoms: C_9  and  C_10 
REMARK    4  A    between atoms: C_10  and  C_11 
REMARK    5  A    between atoms: C_10  and  N_15 
REMARK    6  A    between atoms: C_11  and  C_12 
REMARK       I    between atoms: C_12  and  N_13 
REMARK    7  A    between atoms: C_16  and  C_22 
REMARK    8  A    between atoms: C_16  and  C_25 
REMARK    9  A    between atoms: C_17  and  C_18 
REMARK   10  A    between atoms: C_17  and  C_22 
ROOT
HETATM    1  C           1     -20.890  -6.769  -5.217  0.00  0.00     0.185 C 
ENDROOT
BRANCH   1   2
HETATM    2  N           1     -21.406  -6.361  -6.509  0.00  0.00    -0.345 N 
HETATM    3  C           1     -21.136  -5.107  -6.988  0.00  0.00     0.249 C 
HETATM    4  O           1     -20.469  -4.341  -6.335  0.00  0.00    -0.271 OA
HETATM    5  H           1     -21.965  -7.002  -7.056  0.00  0.00     0.163 HD
BRANCH   3   6
HETATM    6  C           1     -21.673  -4.682  -8.332  0.00  0.00     0.283 C 
BRANCH   6   7
HETATM    7  C           1     -20.514  -4.310  -9.248  0.00  0.00     0.145 C 
BRANCH   7   8
HETATM    8  C           1     -21.030  -4.082 -10.647  0.00  0.00     0.217 C 
HETATM    9  N           1     -20.335  -3.278 -11.511  0.00  0.00    -0.370 N 
HETATM   10  H           1     -20.682  -3.124 -12.449  0.00  0.00     0.159 HD
HETATM   11  H           1     -19.476  -2.837 -11.211  0.00  0.00     0.159 HD
HETATM   12  O           1     -22.058  -4.607 -11.005  0.00  0.00    -0.274 OA
ENDBRANCH   7   8
ENDBRANCH   6   7
BRANCH   6  13
HETATM   13  N           1     -22.573  -3.494  -8.159  0.00  0.00    -0.066 N 
HETATM   14  H           1     -23.097  -3.582  -7.259  0.00  0.00     0.275 HD
HETATM   15  H           1     -21.998  -2.622  -8.144  0.00  0.00     0.275 HD
HETATM   16  H           1     -23.250  -3.451  -8.954  0.00  0.00     0.275 HD
ENDBRANCH   6  13
ENDBRANCH   3   6
ENDBRANCH   1   2
BRANCH   1  17
HETATM   17  C           1     -21.995  -6.664  -4.174  0.00  0.00     0.038 C 
BRANCH  17  18
HETATM   18  C           1     -21.418  -6.116  -2.875  0.00  0.00     0.023 C 
BRANCH  18  19
HETATM   19  C           1     -21.258  -7.251  -1.871  0.00  0.00     0.138 C 
BRANCH  19  20
HETATM   20  N           1     -22.238  -7.090  -0.787  0.00  0.00    -0.227 N 
HETATM   21  C           1     -22.709  -8.109  -0.203  0.00  0.00     0.665 C 
HETATM   22  N           1     -22.337  -9.268  -0.553  0.00  0.00    -0.235 N 
HETATM   23  N           1     -23.576  -7.966   0.755  0.00  0.00    -0.235 N 
HETATM   24  H           1     -21.638  -9.383  -1.327  0.00  0.00     0.174 HD
HETATM   25  H           1     -22.729 -10.113  -0.068  0.00  0.00     0.174 HD
HETATM   26  H           1     -23.965  -8.807   1.237  0.00  0.00     0.174 HD
HETATM   27  H           1     -23.883  -7.010   1.043  0.00  0.00     0.174 HD
HETATM   28  H           1     -22.546  -6.129  -0.497  0.00  0.00     0.177 HD
ENDBRANCH  19  20
ENDBRANCH  18  19
ENDBRANCH  17  18
ENDBRANCH   1  17
BRANCH   1  29
HETATM   29  C           1     -20.407  -8.196  -5.297  0.00  0.00     0.196 C 
HETATM   30  O           1     -21.157  -9.132  -4.943  0.00  0.00    -0.646 OA
HETATM   31  O           1     -19.256  -8.444  -5.718  0.00  0.00    -0.646 OA
ENDBRANCH   1  29
TORSDOF 10
ENDMDL
MODEL 9
REMARK VINA RESULT:      -6.1      1.983      2.669
REMARK  10 active torsions:
REMARK  status: ('A' for Active; 'I' for Inactive)
REMARK       I    between atoms: N_3  and  C_24 
REMARK       I    between atoms: N_4  and  C_24 
REMARK    1  A    between atoms: N_4  and  C_18 
REMARK    2  A    between atoms: N_7  and  C_16 
REMARK       I    between atoms: N_7  and  C_9 
REMARK    3  A    between atoms: C_9  and  C_10 
REMARK    4  A    between atoms: C_10  and  C_11 
REMARK    5  A    between atoms: C_10  and  N_15 
REMARK    6  A    between atoms: C_11  and  C_12 
REMARK       I    between atoms: C_12  and  N_13 
REMARK    7  A    between atoms: C_16  and  C_22 
REMARK    8  A    between atoms: C_16  and  C_25 
REMARK    9  A    between atoms: C_17  and  C_18 
REMARK   10  A    between atoms: C_17  and  C_22 
ROOT
HETATM    1  C           1     -21.603  -4.775  -7.932  0.00  0.00     0.185 C 
ENDROOT
BRANCH   1   2
HETATM    2  N           1     -21.567  -5.999  -7.156  0.00  0.00    -0.345 N 
HETATM    3  C           1     -20.686  -6.124  -6.116  0.00  0.00     0.249 C 
HETATM    4  O           1     -19.938  -5.216  -5.845  0.00  0.00    -0.271 OA
HETATM    5  H           1     -22.194  -6.761  -7.383  0.00  0.00     0.163 HD
BRANCH   3   6
HETATM    6  C           1     -20.649  -7.398  -5.308  0.00  0.00     0.283 C 
BRANCH   6   7
HETATM    7  C           1     -20.693  -7.060  -3.823  0.00  0.00     0.145 C 
BRANCH   7   8
HETATM    8  C           1     -22.022  -6.428  -3.490  0.00  0.00     0.217 C 
HETATM    9  N           1     -22.237  -5.903  -2.243  0.00  0.00    -0.370 N 
HETATM   10  H           1     -23.129  -5.479  -2.019  0.00  0.00     0.159 HD
HETATM   11  H           1     -21.505  -5.938  -1.547  0.00  0.00     0.159 HD
HETATM   12  O           1     -22.897  -6.387  -4.321  0.00  0.00    -0.274 OA
ENDBRANCH   7   8
ENDBRANCH   6   7
BRANCH   6  13
HETATM   13  N           1     -19.385  -8.146  -5.611  0.00  0.00    -0.066 N 
HETATM   14  H           1     -19.067  -7.917  -6.580  0.00  0.00     0.275 HD
HETATM   15  H           1     -18.644  -7.870  -4.928  0.00  0.00     0.275 HD
HETATM   16  H           1     -19.562  -9.174  -5.536  0.00  0.00     0.275 HD
ENDBRANCH   6  13
ENDBRANCH   3   6
ENDBRANCH   1   2
BRANCH   1  17
HETATM   17  C           1     -21.206  -5.076  -9.371  0.00  0.00     0.038 C 
BRANCH  17  18
HETATM   18  C           1     -20.121  -4.104  -9.815  0.00  0.00     0.023 C 
BRANCH  18  19
HETATM   19  C           1     -20.484  -3.524 -11.177  0.00  0.00     0.138 C 
BRANCH  19  20
HETATM   20  N           1     -21.862  -3.014 -11.142  0.00  0.00    -0.227 N 
HETATM   21  C           1     -22.561  -3.007 -12.197  0.00  0.00     0.665 C 
HETATM   22  N           1     -22.073  -3.441 -13.283  0.00  0.00    -0.235 N 
HETATM   23  N           1     -23.780  -2.556 -12.167  0.00  0.00    -0.235 N 
HETATM   24  H           1     -21.088  -3.805 -13.307  0.00  0.00     0.174 HD
HETATM   25  H           1     -22.653  -3.435 -14.158  0.00  0.00     0.174 HD
HETATM   26  H           1     -24.356  -2.551 -13.038  0.00  0.00     0.174 HD
HETATM   27  H           1     -24.182  -2.199 -11.272  0.00  0.00     0.174 HD
HETATM   28  H           1     -22.266  -2.655 -10.243  0.00  0.00     0.177 HD
ENDBRANCH  19  20
ENDBRANCH  18  19
ENDBRANCH  17  18
ENDBRANCH   1  17
BRANCH   1  29
HETATM   29  C           1     -22.998  -4.202  -7.903  0.00  0.00     0.196 C 
HETATM   30  O           1     -23.711  -4.342  -6.886  0.00  0.00    -0.646 OA
HETATM   31  O           1     -23.442  -3.586  -8.896  0.00  0.00    -0.646 OA
ENDBRANCH   1  29
TORSDOF 10
ENDMDL
