MODEL 1
REMARK VINA RESULT:      -7.0      0.000      0.000
REMARK  4 active torsions:
REMARK  status: ('A' for Active; 'I' for Inactive)
REMARK    1  A    between atoms: C_1  and  C_2 
REMARK    2  A    between atoms: C_2  and  C_4 
REMARK    3  A    between atoms: C_2  and  N_16 
REMARK    4  A    between atoms: C_6  and  C_7 
REMARK       I    between atoms: C_7  and  N_16 
ROOT
HETATM    1  C           1     -34.821  -2.284 -11.467  0.00  0.00     0.274 C 
HETATM    2  H           1     -36.045  -3.982 -11.538  0.00  0.00     0.255 HD
HETATM    3  H           1     -35.216  -3.786 -10.060  0.00  0.00     0.275 HD
HETATM    4  H           1     -34.623  -4.268  -9.899  0.00  0.00     0.274 HD
HETATM    5  C           1     -33.610  -2.998 -12.053  0.00  0.00     0.062 C 
HETATM    6  C           1     -34.070  -4.009 -13.095  0.00  0.00     0.004 C 
HETATM    7  H           1     -33.157  -4.058 -10.750  0.00  0.00     0.254 HD
HETATM    8  C           1     -34.992  -5.029 -12.440  0.00  0.00     0.047 C 
HETATM    9  H           1     -33.277  -5.254  -9.538  0.00  0.00     0.274 HD
HETATM   10  C           1     -34.243  -5.752 -11.328  0.00  0.00     0.229 C 
HETATM   11  H           1     -36.561  -2.800 -10.422  0.00  0.00     0.275 HD
HETATM   12  N           1     -33.791  -4.757 -10.301  0.00  0.00    -0.080 N 
HETATM   13  N           1     -35.730  -3.289 -10.823  0.00  0.00    -0.067 N 
ENDROOT
BRANCH   1  14
HETATM   14  C           1     -35.565  -1.568 -12.568  0.00  0.00     0.249 C 
HETATM   15  N           1     -34.902  -1.175 -13.699  0.00  0.00    -0.344 N 
HETATM   16  H           1     -33.913  -1.366 -13.799  0.00  0.00     0.163 HD
HETATM   17  O           1     -36.746  -1.340 -12.450  0.00  0.00    -0.271 OA
BRANCH  15  18
HETATM   18  C           1     -35.617  -0.487 -14.757  0.00  0.00     0.189 C 
BRANCH  18  19
HETATM   19  C           1     -35.562  -1.312 -16.018  0.00  0.00     0.197 C 
HETATM   20  O           1     -34.861  -2.345 -16.061  0.00  0.00    -0.646 OA
HETATM   21  O           1     -36.220  -0.961 -17.023  0.00  0.00    -0.646 OA
ENDBRANCH  18  19
BRANCH  18  22
HETATM   22  C           1     -34.970   0.869 -15.007  0.00  0.00     0.010 C 
HETATM   23  C           1     -34.530   1.474 -13.680  0.00  0.00     0.012 C 
HETATM   24  C           1     -35.977   1.795 -15.677  0.00  0.00     0.012 C 
ENDBRANCH  18  22
ENDBRANCH  15  18
ENDBRANCH   1  14
TORSDOF 4
ENDMDL
MODEL 2
REMARK VINA RESULT:      -6.7      2.069      5.731
REMARK  4 active torsions:
REMARK  status: ('A' for Active; 'I' for Inactive)
REMARK    1  A    between atoms: C_1  and  C_2 
REMARK    2  A    between atoms: C_2  and  C_4 
REMARK    3  A    between atoms: C_2  and  N_16 
REMARK    4  A    between atoms: C_6  and  C_7 
REMARK       I    between atoms: C_7  and  N_16 
ROOT
HETATM    1  C           1     -34.965  -0.400 -14.393  0.00  0.00     0.274 C 
HETATM    2  H           1     -36.279  -1.025 -15.899  0.00  0.00     0.255 HD
HETATM    3  H           1     -35.379   0.368 -16.298  0.00  0.00     0.275 HD
HETATM    4  H           1     -35.747   1.057 -16.315  0.00  0.00     0.274 HD
HETATM    5  C           1     -36.002   0.469 -13.696  0.00  0.00     0.062 C 
HETATM    6  C           1     -37.369  -0.196 -13.790  0.00  0.00     0.004 C 
HETATM    7  H           1     -36.197   1.773 -14.832  0.00  0.00     0.254 HD
HETATM    8  C           1     -37.752  -0.366 -15.254  0.00  0.00     0.047 C 
HETATM    9  H           1     -36.495   2.591 -16.299  0.00  0.00     0.274 HD
HETATM   10  C           1     -37.804   0.999 -15.927  0.00  0.00     0.229 C 
HETATM   11  H           1     -34.630  -1.165 -16.313  0.00  0.00     0.275 HD
HETATM   12  N           1     -36.459   1.654 -15.836  0.00  0.00    -0.080 N 
HETATM   13  N           1     -35.342  -0.568 -15.835  0.00  0.00    -0.067 N 
ENDROOT
BRANCH   1  14
HETATM   14  C           1     -34.911  -1.753 -13.726  0.00  0.00     0.249 C 
HETATM   15  N           1     -35.028  -1.852 -12.367  0.00  0.00    -0.344 N 
HETATM   16  H           1     -35.152  -1.018 -11.807  0.00  0.00     0.163 HD
HETATM   17  O           1     -34.764  -2.750 -14.395  0.00  0.00    -0.271 OA
BRANCH  15  18
HETATM   18  C           1     -34.977  -3.152 -11.727  0.00  0.00     0.189 C 
BRANCH  18  19
HETATM   19  C           1     -36.146  -3.294 -10.783  0.00  0.00     0.197 C 
HETATM   20  O           1     -36.765  -2.279 -10.398  0.00  0.00    -0.646 OA
HETATM   21  O           1     -36.495  -4.427 -10.386  0.00  0.00    -0.646 OA
ENDBRANCH  18  19
BRANCH  18  22
HETATM   22  C           1     -33.675  -3.284 -10.948  0.00  0.00     0.010 C 
HETATM   23  C           1     -33.173  -1.899 -10.562  0.00  0.00     0.012 C 
HETATM   24  C           1     -32.634  -3.978 -11.815  0.00  0.00     0.012 C 
ENDBRANCH  18  22
ENDBRANCH  15  18
ENDBRANCH   1  14
TORSDOF 4
ENDMDL
MODEL 3
REMARK VINA RESULT:      -6.4     12.977     15.002
REMARK  4 active torsions:
REMARK  status: ('A' for Active; 'I' for Inactive)
REMARK    1  A    between atoms: C_1  and  C_2 
REMARK    2  A    between atoms: C_2  and  C_4 
REMARK    3  A    between atoms: C_2  and  N_16 
REMARK    4  A    between atoms: C_6  and  C_7 
REMARK       I    between atoms: C_7  and  N_16 
ROOT
HETATM    1  C           1     -23.307  -4.798 -10.304  0.00  0.00     0.274 C 
HETATM    2  H           1     -24.059  -2.918 -10.839  0.00  0.00     0.255 HD
HETATM    3  H           1     -24.773  -4.217 -11.683  0.00  0.00     0.275 HD
HETATM    4  H           1     -24.592  -4.317 -12.437  0.00  0.00     0.274 HD
HETATM    5  C           1     -22.176  -4.758 -11.322  0.00  0.00     0.062 C 
HETATM    6  C           1     -21.654  -3.333 -11.446  0.00  0.00     0.004 C 
HETATM    7  H           1     -23.041  -4.918 -12.823  0.00  0.00     0.254 HD
HETATM    8  C           1     -22.781  -2.417 -11.904  0.00  0.00     0.047 C 
HETATM    9  H           1     -24.171  -4.612 -14.064  0.00  0.00     0.274 HD
HETATM   10  C           1     -23.299  -2.887 -13.257  0.00  0.00     0.229 C 
HETATM   11  H           1     -25.194  -3.923 -10.056  0.00  0.00     0.275 HD
HETATM   12  N           1     -23.815  -4.290 -13.136  0.00  0.00    -0.080 N 
HETATM   13  N           1     -24.418  -3.896 -10.755  0.00  0.00    -0.067 N 
ENDROOT
BRANCH   1  14
HETATM   14  C           1     -22.795  -4.333  -8.962  0.00  0.00     0.249 C 
HETATM   15  N           1     -21.920  -5.112  -8.256  0.00  0.00    -0.344 N 
HETATM   16  H           1     -21.615  -6.001  -8.632  0.00  0.00     0.163 HD
HETATM   17  O           1     -23.159  -3.272  -8.513  0.00  0.00    -0.271 OA
BRANCH  15  18
HETATM   18  C           1     -21.428  -4.665  -6.967  0.00  0.00     0.189 C 
BRANCH  18  19
HETATM   19  C           1     -19.946  -4.400  -7.060  0.00  0.00     0.197 C 
HETATM   20  O           1     -19.433  -4.098  -8.158  0.00  0.00    -0.646 OA
HETATM   21  O           1     -19.231  -4.481  -6.037  0.00  0.00    -0.646 OA
ENDBRANCH  18  19
BRANCH  18  22
HETATM   22  C           1     -21.688  -5.742  -5.922  0.00  0.00     0.010 C 
HETATM   23  C           1     -21.117  -7.068  -6.409  0.00  0.00     0.012 C 
HETATM   24  C           1     -23.188  -5.885  -5.704  0.00  0.00     0.012 C 
ENDBRANCH  18  22
ENDBRANCH  15  18
ENDBRANCH   1  14
TORSDOF 4
ENDMDL
MODEL 4
REMARK VINA RESULT:      -6.3     13.220     14.737
REMARK  4 active torsions:
REMARK  status: ('A' for Active; 'I' for Inactive)
REMARK    1  A    between atoms: C_1  and  C_2 
REMARK    2  A    between atoms: C_2  and  C_4 
REMARK    3  A    between atoms: C_2  and  N_16 
REMARK    4  A    between atoms: C_6  and  C_7 
REMARK       I    between atoms: C_7  and  N_16 
ROOT
HETATM    1  C           1     -20.504  -5.921  -7.333  0.00  0.00     0.274 C 
HETATM    2  H           1     -20.194  -4.949  -5.504  0.00  0.00     0.255 HD
HETATM    3  H           1     -19.165  -6.285  -5.763  0.00  0.00     0.275 HD
HETATM    4  H           1     -19.290  -6.937  -5.351  0.00  0.00     0.274 HD
HETATM    5  C           1     -21.575  -6.851  -6.782  0.00  0.00     0.062 C 
HETATM    6  C           1     -22.411  -6.110  -5.747  0.00  0.00     0.004 C 
HETATM    7  H           1     -20.642  -7.900  -5.753  0.00  0.00     0.254 HD
HETATM    8  C           1     -21.513  -5.641  -4.610  0.00  0.00     0.047 C 
HETATM    9  H           1     -19.570  -8.403  -4.524  0.00  0.00     0.274 HD
HETATM   10  C           1     -20.850  -6.846  -3.956  0.00  0.00     0.229 C 
HETATM   11  H           1     -18.885  -4.819  -6.590  0.00  0.00     0.275 HD
HETATM   12  N           1     -20.026  -7.577  -4.974  0.00  0.00    -0.080 N 
HETATM   13  N           1     -19.620  -5.458  -6.212  0.00  0.00    -0.067 N 
ENDROOT
BRANCH   1  14
HETATM   14  C           1     -21.159  -4.725  -7.981  0.00  0.00     0.249 C 
HETATM   15  N           1     -21.909  -4.887  -9.114  0.00  0.00    -0.344 N 
HETATM   16  H           1     -22.025  -5.808  -9.518  0.00  0.00     0.163 HD
HETATM   17  O           1     -21.021  -3.626  -7.499  0.00  0.00    -0.271 OA
BRANCH  15  18
HETATM   18  C           1     -22.539  -3.739  -9.737  0.00  0.00     0.189 C 
BRANCH  18  19
HETATM   19  C           1     -24.038  -3.905  -9.696  0.00  0.00     0.197 C 
HETATM   20  O           1     -24.761  -2.967  -9.299  0.00  0.00    -0.646 OA
HETATM   21  O           1     -24.557  -4.983 -10.062  0.00  0.00    -0.646 OA
ENDBRANCH  18  19
BRANCH  18  22
HETATM   22  C           1     -22.078  -3.629 -11.184  0.00  0.00     0.010 C 
HETATM   23  C           1     -20.580  -3.355 -11.220  0.00  0.00     0.012 C 
HETATM   24  C           1     -22.820  -2.489 -11.868  0.00  0.00     0.012 C 
ENDBRANCH  18  22
ENDBRANCH  15  18
ENDBRANCH   1  14
TORSDOF 4
ENDMDL
MODEL 5
REMARK VINA RESULT:      -6.0     13.540     15.068
REMARK  4 active torsions:
REMARK  status: ('A' for Active; 'I' for Inactive)
REMARK    1  A    between atoms: C_1  and  C_2 
REMARK    2  A    between atoms: C_2  and  C_4 
REMARK    3  A    between atoms: C_2  and  N_16 
REMARK    4  A    between atoms: C_6  and  C_7 
REMARK       I    between atoms: C_7  and  N_16 
ROOT
HETATM    1  C           1     -21.633  -4.858  -6.222  0.00  0.00     0.274 C 
HETATM    2  H           1     -22.537  -6.683  -5.734  0.00  0.00     0.255 HD
HETATM    3  H           1     -22.712  -5.479  -4.537  0.00  0.00     0.275 HD
HETATM    4  H           1     -22.302  -5.549  -3.876  0.00  0.00     0.274 HD
HETATM    5  C           1     -20.282  -5.245  -5.637  0.00  0.00     0.062 C 
HETATM    6  C           1     -20.027  -6.727  -5.881  0.00  0.00     0.004 C 
HETATM    7  H           1     -20.621  -5.251  -3.930  0.00  0.00     0.254 HD
HETATM    8  C           1     -21.123  -7.547  -5.213  0.00  0.00     0.047 C 
HETATM    9  H           1     -21.374  -5.626  -2.445  0.00  0.00     0.274 HD
HETATM   10  C           1     -21.122  -7.272  -3.715  0.00  0.00     0.229 C 
HETATM   11  H           1     -23.639  -5.401  -5.968  0.00  0.00     0.275 HD
HETATM   12  N           1     -21.374  -5.814  -3.474  0.00  0.00    -0.080 N 
HETATM   13  N           1     -22.712  -5.667  -5.565  0.00  0.00    -0.067 N 
ENDROOT
BRANCH   1  14
HETATM   14  C           1     -21.635  -5.130  -7.707  0.00  0.00     0.249 C 
HETATM   15  N           1     -22.003  -4.145  -8.583  0.00  0.00    -0.344 N 
HETATM   16  H           1     -22.272  -3.233  -8.236  0.00  0.00     0.163 HD
HETATM   17  O           1     -21.312  -6.218  -8.122  0.00  0.00    -0.271 OA
BRANCH  15  18
HETATM   18  C           1     -22.004  -4.406 -10.010  0.00  0.00     0.189 C 
BRANCH  18  19
HETATM   19  C           1     -20.670  -4.015 -10.593  0.00  0.00     0.197 C 
HETATM   20  O           1     -20.502  -2.867 -11.058  0.00  0.00    -0.646 OA
HETATM   21  O           1     -19.730  -4.840 -10.611  0.00  0.00    -0.646 OA
ENDBRANCH  18  19
BRANCH  18  22
HETATM   22  C           1     -23.108  -3.592 -10.673  0.00  0.00     0.010 C 
HETATM   23  C           1     -24.264  -3.416  -9.697  0.00  0.00     0.012 C 
HETATM   24  C           1     -23.599  -4.323 -11.916  0.00  0.00     0.012 C 
ENDBRANCH  18  22
ENDBRANCH  15  18
ENDBRANCH   1  14
TORSDOF 4
ENDMDL
MODEL 6
REMARK VINA RESULT:      -5.9     16.765     19.011
REMARK  4 active torsions:
REMARK  status: ('A' for Active; 'I' for Inactive)
REMARK    1  A    between atoms: C_1  and  C_2 
REMARK    2  A    between atoms: C_2  and  C_4 
REMARK    3  A    between atoms: C_2  and  N_16 
REMARK    4  A    between atoms: C_6  and  C_7 
REMARK       I    between atoms: C_7  and  N_16 
ROOT
HETATM    1  C           1     -21.365 -10.699  -1.332  0.00  0.00     0.274 C 
HETATM    2  H           1     -20.199  -9.044  -0.795  0.00  0.00     0.255 HD
HETATM    3  H           1     -19.752 -10.492  -0.011  0.00  0.00     0.275 HD
HETATM    4  H           1     -19.919 -10.572   0.748  0.00  0.00     0.274 HD
HETATM    5  C           1     -22.417 -10.444  -0.262  0.00  0.00     0.062 C 
HETATM    6  C           1     -22.609  -8.943  -0.084  0.00  0.00     0.004 C 
HETATM    7  H           1     -21.547 -10.833   1.194  0.00  0.00     0.254 HD
HETATM    8  C           1     -21.291  -8.309   0.339  0.00  0.00     0.047 C 
HETATM    9  H           1     -20.327 -10.817   2.387  0.00  0.00     0.274 HD
HETATM   10  C           1     -20.833  -8.920   1.656  0.00  0.00     0.229 C 
HETATM   11  H           1     -19.345 -10.248  -1.650  0.00  0.00     0.275 HD
HETATM   12  N           1     -20.642 -10.398   1.483  0.00  0.00    -0.080 N 
HETATM   13  N           1     -20.066 -10.073  -0.915  0.00  0.00    -0.067 N 
ENDROOT
BRANCH   1  14
HETATM   14  C           1     -21.818 -10.093  -2.638  0.00  0.00     0.249 C 
HETATM   15  N           1     -21.188  -8.984  -3.133  0.00  0.00    -0.344 N 
HETATM   16  H           1     -20.418  -8.569  -2.624  0.00  0.00     0.163 HD
HETATM   17  O           1     -22.737 -10.589  -3.247  0.00  0.00    -0.271 OA
BRANCH  15  18
HETATM   18  C           1     -21.623  -8.402  -4.389  0.00  0.00     0.189 C 
BRANCH  18  19
HETATM   19  C           1     -20.735  -8.895  -5.504  0.00  0.00     0.197 C 
HETATM   20  O           1     -21.020  -9.949  -6.111  0.00  0.00    -0.646 OA
HETATM   21  O           1     -19.714  -8.247  -5.823  0.00  0.00    -0.646 OA
ENDBRANCH  18  19
BRANCH  18  22
HETATM   22  C           1     -21.536  -6.884  -4.302  0.00  0.00     0.010 C 
HETATM   23  C           1     -21.801  -6.443  -2.868  0.00  0.00     0.012 C 
HETATM   24  C           1     -22.576  -6.263  -5.225  0.00  0.00     0.012 C 
ENDBRANCH  18  22
ENDBRANCH  15  18
ENDBRANCH   1  14
TORSDOF 4
ENDMDL
MODEL 7
REMARK VINA RESULT:      -5.9      2.576      3.408
REMARK  4 active torsions:
REMARK  status: ('A' for Active; 'I' for Inactive)
REMARK    1  A    between atoms: C_1  and  C_2 
REMARK    2  A    between atoms: C_2  and  C_4 
REMARK    3  A    between atoms: C_2  and  N_16 
REMARK    4  A    between atoms: C_6  and  C_7 
REMARK       I    between atoms: C_7  and  N_16 
ROOT
HETATM    1  C           1     -34.223  -3.647 -10.485  0.00  0.00     0.274 C 
HETATM    2  H           1     -35.808  -4.092 -11.781  0.00  0.00     0.255 HD
HETATM    3  H           1     -35.519  -5.289 -10.600  0.00  0.00     0.275 HD
HETATM    4  H           1     -35.196  -5.964 -10.825  0.00  0.00     0.274 HD
HETATM    5  C           1     -33.167  -4.277 -11.383  0.00  0.00     0.062 C 
HETATM    6  C           1     -33.529  -4.032 -12.843  0.00  0.00     0.004 C 
HETATM    7  H           1     -33.539  -5.970 -11.237  0.00  0.00     0.254 HD
HETATM    8  C           1     -34.886  -4.655 -13.141  0.00  0.00     0.047 C 
HETATM    9  H           1     -34.430  -7.426 -11.261  0.00  0.00     0.274 HD
HETATM   10  C           1     -34.826  -6.154 -12.878  0.00  0.00     0.229 C 
HETATM   11  H           1     -36.284  -3.828 -10.164  0.00  0.00     0.275 HD
HETATM   12  N           1     -34.471  -6.397 -11.442  0.00  0.00    -0.080 N 
HETATM   13  N           1     -35.560  -4.261 -10.780  0.00  0.00    -0.067 N 
ENDROOT
BRANCH   1  14
HETATM   14  C           1     -34.284  -2.161 -10.745  0.00  0.00     0.249 C 
HETATM   15  N           1     -35.414  -1.606 -11.282  0.00  0.00    -0.344 N 
HETATM   16  H           1     -36.209  -2.191 -11.505  0.00  0.00     0.163 HD
HETATM   17  O           1     -33.335  -1.462 -10.478  0.00  0.00    -0.271 OA
BRANCH  15  18
HETATM   18  C           1     -35.472  -0.179 -11.531  0.00  0.00     0.189 C 
BRANCH  18  19
HETATM   19  C           1     -36.615   0.421 -10.749  0.00  0.00     0.197 C 
HETATM   20  O           1     -36.396   0.987  -9.657  0.00  0.00    -0.646 OA
HETATM   21  O           1     -37.781   0.351 -11.195  0.00  0.00    -0.646 OA
ENDBRANCH  18  19
BRANCH  18  22
HETATM   22  C           1     -35.689   0.069 -13.018  0.00  0.00     0.010 C 
HETATM   23  C           1     -35.554  -1.246 -13.776  0.00  0.00     0.012 C 
HETATM   24  C           1     -34.645   1.056 -13.525  0.00  0.00     0.012 C 
ENDBRANCH  18  22
ENDBRANCH  15  18
ENDBRANCH   1  14
TORSDOF 4
ENDMDL
MODEL 8
REMARK VINA RESULT:      -5.8     18.611     20.342
REMARK  4 active torsions:
REMARK  status: ('A' for Active; 'I' for Inactive)
REMARK    1  A    between atoms: C_1  and  C_2 
REMARK    2  A    between atoms: C_2  and  C_4 
REMARK    3  A    between atoms: C_2  and  N_16 
REMARK    4  A    between atoms: C_6  and  C_7 
REMARK       I    between atoms: C_7  and  N_16 
ROOT
HETATM    1  C           1     -18.922 -10.513  -2.203  0.00  0.00     0.274 C 
HETATM    2  H           1     -19.364 -11.551  -3.967  0.00  0.00     0.255 HD
HETATM    3  H           1     -18.066 -12.213  -3.080  0.00  0.00     0.275 HD
HETATM    4  H           1     -17.342 -12.125  -3.358  0.00  0.00     0.274 HD
HETATM    5  C           1     -17.965  -9.544  -2.882  0.00  0.00     0.062 C 
HETATM    6  C           1     -18.477  -9.219  -4.280  0.00  0.00     0.004 C 
HETATM    7  H           1     -16.620 -10.580  -3.263  0.00  0.00     0.254 HD
HETATM    8  C           1     -18.568 -10.500  -5.098  0.00  0.00     0.047 C 
HETATM    9  H           1     -15.737 -11.898  -3.894  0.00  0.00     0.274 HD
HETATM   10  C           1     -17.189 -11.138  -5.199  0.00  0.00     0.229 C 
HETATM   11  H           1     -19.670 -12.440  -2.543  0.00  0.00     0.275 HD
HETATM   12  N           1     -16.684 -11.459  -3.824  0.00  0.00    -0.080 N 
HETATM   13  N           1     -19.013 -11.775  -3.009  0.00  0.00    -0.067 N 
ENDROOT
BRANCH   1  14
HETATM   14  C           1     -20.290  -9.883  -2.102  0.00  0.00     0.249 C 
HETATM   15  N           1     -20.460  -8.726  -1.392  0.00  0.00    -0.344 N 
HETATM   16  H           1     -19.669  -8.291  -0.935  0.00  0.00     0.163 HD
HETATM   17  O           1     -21.236 -10.401  -2.648  0.00  0.00    -0.271 OA
BRANCH  15  18
HETATM   18  C           1     -21.774  -8.120  -1.295  0.00  0.00     0.189 C 
BRANCH  18  19
HETATM   19  C           1     -21.800  -6.846  -2.103  0.00  0.00     0.197 C 
HETATM   20  O           1     -22.512  -5.887  -1.736  0.00  0.00    -0.646 OA
HETATM   21  O           1     -21.109  -6.750  -3.141  0.00  0.00    -0.646 OA
ENDBRANCH  18  19
BRANCH  18  22
HETATM   22  C           1     -22.081  -7.804   0.162  0.00  0.00     0.010 C 
HETATM   23  C           1     -21.087  -8.530   1.059  0.00  0.00     0.012 C 
HETATM   24  C           1     -23.495  -8.264   0.494  0.00  0.00     0.012 C 
ENDBRANCH  18  22
ENDBRANCH  15  18
ENDBRANCH   1  14
TORSDOF 4
ENDMDL
MODEL 9
REMARK VINA RESULT:      -5.7     27.404     28.693
REMARK  4 active torsions:
REMARK  status: ('A' for Active; 'I' for Inactive)
REMARK    1  A    between atoms: C_1  and  C_2 
REMARK    2  A    between atoms: C_2  and  C_4 
REMARK    3  A    between atoms: C_2  and  N_16 
REMARK    4  A    between atoms: C_6  and  C_7 
REMARK       I    between atoms: C_7  and  N_16 
ROOT
HETATM    1  C           1     -18.695  10.096   4.244  0.00  0.00     0.274 C 
HETATM    2  H           1     -18.669   8.500   5.600  0.00  0.00     0.255 HD
HETATM    3  H           1     -20.064   8.555   4.620  0.00  0.00     0.275 HD
HETATM    4  H           1     -20.741   8.771   4.946  0.00  0.00     0.274 HD
HETATM    5  C           1     -19.345  11.062   5.224  0.00  0.00     0.062 C 
HETATM    6  C           1     -18.824  10.790   6.629  0.00  0.00     0.004 C 
HETATM    7  H           1     -20.956  10.417   5.345  0.00  0.00     0.254 HD
HETATM    8  C           1     -19.162   9.360   7.028  0.00  0.00     0.047 C 
HETATM    9  H           1     -22.224   9.303   5.600  0.00  0.00     0.274 HD
HETATM   10  C           1     -20.673   9.168   7.001  0.00  0.00     0.229 C 
HETATM   11  H           1     -18.581   8.023   3.964  0.00  0.00     0.275 HD
HETATM   12  N           1     -21.187   9.436   5.618  0.00  0.00    -0.080 N 
HETATM   13  N           1     -19.028   8.686   4.637  0.00  0.00    -0.067 N 
ENDROOT
BRANCH   1  14
HETATM   14  C           1     -17.197  10.284   4.269  0.00  0.00     0.249 C 
HETATM   15  N           1     -16.383   9.243   4.623  0.00  0.00    -0.344 N 
HETATM   16  H           1     -16.783   8.347   4.868  0.00  0.00     0.163 HD
HETATM   17  O           1     -16.719  11.354   3.976  0.00  0.00    -0.271 OA
BRANCH  15  18
HETATM   18  C           1     -14.944   9.423   4.647  0.00  0.00     0.189 C 
BRANCH  18  19
HETATM   19  C           1     -14.347   8.864   3.380  0.00  0.00     0.197 C 
HETATM   20  O           1     -14.445   7.644   3.128  0.00  0.00    -0.646 OA
HETATM   21  O           1     -13.754   9.621   2.581  0.00  0.00    -0.646 OA
ENDBRANCH  18  19
BRANCH  18  22
HETATM   22  C           1     -14.361   8.694   5.850  0.00  0.00     0.010 C 
HETATM   23  C           1     -15.150   9.064   7.099  0.00  0.00     0.012 C 
HETATM   24  C           1     -12.904   9.100   6.031  0.00  0.00     0.012 C 
ENDBRANCH  18  22
ENDBRANCH  15  18
ENDBRANCH   1  14
TORSDOF 4
ENDMDL
