MODEL 1
REMARK VINA RESULT:      -6.7      0.000      0.000
REMARK  10 active torsions:
REMARK  status: ('A' for Active; 'I' for Inactive)
REMARK    1  A    between atoms: N_2  and  C_9 
REMARK    2  A    between atoms: C_6  and  C_20 
REMARK    3  A    between atoms: C_9  and  C_10 
REMARK    4  A    between atoms: C_9  and  C_12 
REMARK       I    between atoms: C_10  and  N_13 
REMARK    5  A    between atoms: C_11  and  C_12 
REMARK    6  A    between atoms: N_13  and  C_20 
REMARK    7  A    between atoms: O_15  and  P_17 
REMARK    8  A    between atoms: P_17  and  O_18 
REMARK    9  A    between atoms: O_18  and  C_19 
REMARK   10  A    between atoms: C_19  and  C_20 
ROOT
HETATM    1  O           1     -21.643  -3.273  -7.747  0.00  0.00    -0.271 OA
HETATM    2  H           1     -21.814  -5.554  -9.894  0.00  0.00     0.163 HD
HETATM    3  C           1     -21.470  -4.364  -8.235  0.00  0.00     0.249 C 
HETATM    4  N           1     -21.958  -4.640  -9.485  0.00  0.00    -0.343 N 
ENDROOT
BRANCH   4   5
HETATM    5  C           1     -22.683  -3.622 -10.221  0.00  0.00     0.210 C 
BRANCH   5   6
HETATM    6  C           1     -24.166  -3.815 -10.016  0.00  0.00     0.198 C 
HETATM    7  O           1     -24.896  -2.832  -9.763  0.00  0.00    -0.646 OA
HETATM    8  O           1     -24.665  -4.958 -10.100  0.00  0.00    -0.646 OA
ENDBRANCH   5   6
BRANCH   5   9
HETATM    9  C           1     -22.356  -3.740 -11.704  0.00  0.00     0.217 C 
BRANCH   9  10
HETATM   10  O           1     -22.728  -2.558 -12.360  0.00  0.00    -0.287 OA
BRANCH  10  11
HETATM   11  P           1     -23.568  -2.742 -13.728  0.00  0.00     0.406 P 
HETATM   12  O           1     -22.632  -2.874 -14.867  0.00  0.00    -0.624 OA
HETATM   13  O           1     -24.404  -3.959 -13.634  0.00  0.00    -0.624 OA
BRANCH  11  14
HETATM   14  O           1     -24.516  -1.454 -13.954  0.00  0.00    -0.300 OA
HETATM   15  H           1     -25.036  -1.395 -13.170  0.00  0.00     0.223 HD
ENDBRANCH  11  14
ENDBRANCH  10  11
ENDBRANCH   9  10
ENDBRANCH   5   9
ENDBRANCH   4   5
BRANCH   3  16
HETATM   16  C           1     -20.717  -5.424  -7.470  0.00  0.00     0.284 C 
BRANCH  16  17
HETATM   17  N           1     -19.319  -4.949  -7.203  0.00  0.00    -0.066 N 
HETATM   18  H           1     -19.261  -3.921  -7.380  0.00  0.00     0.275 HD
HETATM   19  H           1     -19.071  -5.145  -6.207  0.00  0.00     0.275 HD
HETATM   20  H           1     -18.655  -5.450  -7.835  0.00  0.00     0.275 HD
ENDBRANCH  16  17
BRANCH  16  21
HETATM   21  C           1     -21.422  -5.693  -6.147  0.00  0.00     0.155 C 
BRANCH  21  22
HETATM   22  C           1     -21.075  -7.079  -5.663  0.00  0.00     0.175 C 
HETATM   23  O           1     -19.978  -7.592  -5.972  0.00  0.00    -0.648 OA
HETATM   24  O           1     -21.885  -7.715  -4.954  0.00  0.00    -0.648 OA
ENDBRANCH  21  22
ENDBRANCH  16  21
ENDBRANCH   3  16
TORSDOF 10
ENDMDL
MODEL 2
REMARK VINA RESULT:      -6.2     11.961     13.665
REMARK  10 active torsions:
REMARK  status: ('A' for Active; 'I' for Inactive)
REMARK    1  A    between atoms: N_2  and  C_9 
REMARK    2  A    between atoms: C_6  and  C_20 
REMARK    3  A    between atoms: C_9  and  C_10 
REMARK    4  A    between atoms: C_9  and  C_12 
REMARK       I    between atoms: C_10  and  N_13 
REMARK    5  A    between atoms: C_11  and  C_12 
REMARK    6  A    between atoms: N_13  and  C_20 
REMARK    7  A    between atoms: O_15  and  P_17 
REMARK    8  A    between atoms: P_17  and  O_18 
REMARK    9  A    between atoms: O_18  and  C_19 
REMARK   10  A    between atoms: C_19  and  C_20 
ROOT
HETATM    1  O           1     -33.835  -1.492 -11.191  0.00  0.00    -0.271 OA
HETATM    2  H           1     -36.485  -2.323 -12.649  0.00  0.00     0.163 HD
HETATM    3  C           1     -34.639  -2.222 -11.719  0.00  0.00     0.249 C 
HETATM    4  N           1     -35.812  -1.711 -12.206  0.00  0.00    -0.343 N 
ENDROOT
BRANCH   4   5
HETATM    5  C           1     -36.090  -0.293 -12.086  0.00  0.00     0.210 C 
BRANCH   5   6
HETATM    6  C           1     -36.967  -0.053 -10.881  0.00  0.00     0.198 C 
HETATM    7  O           1     -36.587   0.721  -9.976  0.00  0.00    -0.646 OA
HETATM    8  O           1     -38.072  -0.628 -10.789  0.00  0.00    -0.646 OA
ENDBRANCH   5   6
BRANCH   5   9
HETATM    9  C           1     -36.807   0.191 -13.340  0.00  0.00     0.217 C 
BRANCH   9  10
HETATM   10  O           1     -36.721  -0.791 -14.337  0.00  0.00    -0.287 OA
BRANCH  10  11
HETATM   11  P           1     -36.005  -0.342 -15.714  0.00  0.00     0.406 P 
HETATM   12  O           1     -36.060  -1.456 -16.686  0.00  0.00    -0.624 OA
HETATM   13  O           1     -36.706   0.835 -16.273  0.00  0.00    -0.624 OA
BRANCH  11  14
HETATM   14  O           1     -34.464   0.041 -15.418  0.00  0.00    -0.300 OA
HETATM   15  H           1     -34.124  -0.686 -14.923  0.00  0.00     0.223 HD
ENDBRANCH  11  14
ENDBRANCH  10  11
ENDBRANCH   9  10
ENDBRANCH   5   9
ENDBRANCH   4   5
BRANCH   3  16
HETATM   16  C           1     -34.351  -3.698 -11.844  0.00  0.00     0.284 C 
BRANCH  16  17
HETATM   17  N           1     -33.183  -3.904 -12.763  0.00  0.00    -0.066 N 
HETATM   18  H           1     -33.455  -3.638 -13.737  0.00  0.00     0.275 HD
HETATM   19  H           1     -32.385  -3.307 -12.449  0.00  0.00     0.275 HD
HETATM   20  H           1     -32.897  -4.909 -12.743  0.00  0.00     0.275 HD
ENDBRANCH  16  17
BRANCH  16  21
HETATM   21  C           1     -34.021  -4.269 -10.471  0.00  0.00     0.155 C 
BRANCH  21  22
HETATM   22  C           1     -33.994  -5.775 -10.544  0.00  0.00     0.175 C 
HETATM   23  O           1     -33.064  -6.355 -11.145  0.00  0.00    -0.648 OA
HETATM   24  O           1     -34.902  -6.443 -10.003  0.00  0.00    -0.648 OA
ENDBRANCH  21  22
ENDBRANCH  16  21
ENDBRANCH   3  16
TORSDOF 10
ENDMDL
MODEL 3
REMARK VINA RESULT:      -6.1      8.363     11.526
REMARK  10 active torsions:
REMARK  status: ('A' for Active; 'I' for Inactive)
REMARK    1  A    between atoms: N_2  and  C_9 
REMARK    2  A    between atoms: C_6  and  C_20 
REMARK    3  A    between atoms: C_9  and  C_10 
REMARK    4  A    between atoms: C_9  and  C_12 
REMARK       I    between atoms: C_10  and  N_13 
REMARK    5  A    between atoms: C_11  and  C_12 
REMARK    6  A    between atoms: N_13  and  C_20 
REMARK    7  A    between atoms: O_15  and  P_17 
REMARK    8  A    between atoms: P_17  and  O_18 
REMARK    9  A    between atoms: O_18  and  C_19 
REMARK   10  A    between atoms: C_19  and  C_20 
ROOT
HETATM    1  O           1     -27.445  -5.855 -19.652  0.00  0.00    -0.271 OA
HETATM    2  H           1     -25.052  -7.231 -18.161  0.00  0.00     0.163 HD
HETATM    3  C           1     -26.411  -6.465 -19.522  0.00  0.00     0.249 C 
HETATM    4  N           1     -25.918  -6.719 -18.270  0.00  0.00    -0.343 N 
ENDROOT
BRANCH   4   5
HETATM    5  C           1     -26.637  -6.252 -17.100  0.00  0.00     0.210 C 
BRANCH   5   6
HETATM    6  C           1     -25.775  -6.437 -15.875  0.00  0.00     0.198 C 
HETATM    7  O           1     -25.778  -7.529 -15.266  0.00  0.00    -0.646 OA
HETATM    8  O           1     -25.058  -5.497 -15.468  0.00  0.00    -0.646 OA
ENDBRANCH   5   6
BRANCH   5   9
HETATM    9  C           1     -27.922  -7.054 -16.942  0.00  0.00     0.217 C 
BRANCH   9  10
HETATM   10  O           1     -28.865  -6.293 -16.236  0.00  0.00    -0.287 OA
BRANCH  10  11
HETATM   11  P           1     -30.201  -5.889 -17.050  0.00  0.00     0.406 P 
HETATM   12  O           1     -31.015  -7.100 -17.295  0.00  0.00    -0.624 OA
HETATM   13  O           1     -30.986  -4.918 -16.258  0.00  0.00    -0.624 OA
BRANCH  11  14
HETATM   14  O           1     -29.787  -5.221 -18.462  0.00  0.00    -0.300 OA
HETATM   15  H           1     -30.123  -4.341 -18.422  0.00  0.00     0.223 HD
ENDBRANCH  11  14
ENDBRANCH  10  11
ENDBRANCH   9  10
ENDBRANCH   5   9
ENDBRANCH   4   5
BRANCH   3  16
HETATM   16  C           1     -25.662  -6.951 -20.739  0.00  0.00     0.284 C 
BRANCH  16  17
HETATM   17  N           1     -25.178  -5.772 -21.532  0.00  0.00    -0.066 N 
HETATM   18  H           1     -25.919  -5.035 -21.547  0.00  0.00     0.275 HD
HETATM   19  H           1     -24.314  -5.388 -21.089  0.00  0.00     0.275 HD
HETATM   20  H           1     -24.967  -6.074 -22.509  0.00  0.00     0.275 HD
ENDBRANCH  16  17
BRANCH  16  21
HETATM   21  C           1     -24.469  -7.790 -20.300  0.00  0.00     0.155 C 
BRANCH  21  22
HETATM   22  C           1     -23.687  -8.228 -21.513  0.00  0.00     0.175 C 
HETATM   23  O           1     -24.234  -8.248 -22.636  0.00  0.00    -0.648 OA
HETATM   24  O           1     -22.491  -8.572 -21.394  0.00  0.00    -0.648 OA
ENDBRANCH  21  22
ENDBRANCH  16  21
ENDBRANCH   3  16
TORSDOF 10
ENDMDL
MODEL 4
REMARK VINA RESULT:      -6.0      2.900      7.127
REMARK  10 active torsions:
REMARK  status: ('A' for Active; 'I' for Inactive)
REMARK    1  A    between atoms: N_2  and  C_9 
REMARK    2  A    between atoms: C_6  and  C_20 
REMARK    3  A    between atoms: C_9  and  C_10 
REMARK    4  A    between atoms: C_9  and  C_12 
REMARK       I    between atoms: C_10  and  N_13 
REMARK    5  A    between atoms: C_11  and  C_12 
REMARK    6  A    between atoms: N_13  and  C_20 
REMARK    7  A    between atoms: O_15  and  P_17 
REMARK    8  A    between atoms: P_17  and  O_18 
REMARK    9  A    between atoms: O_18  and  C_19 
REMARK   10  A    between atoms: C_19  and  C_20 
ROOT
HETATM    1  O           1     -23.757  -3.951  -7.733  0.00  0.00    -0.271 OA
HETATM    2  H           1     -21.819  -5.302  -9.796  0.00  0.00     0.163 HD
HETATM    3  C           1     -23.407  -4.460  -8.771  0.00  0.00     0.249 C 
HETATM    4  N           1     -22.112  -4.876  -8.927  0.00  0.00    -0.343 N 
ENDROOT
BRANCH   4   5
HETATM    5  C           1     -21.160  -4.703  -7.846  0.00  0.00     0.210 C 
BRANCH   5   6
HETATM    6  C           1     -19.839  -4.240  -8.410  0.00  0.00     0.198 C 
HETATM    7  O           1     -18.809  -4.277  -7.702  0.00  0.00    -0.646 OA
HETATM    8  O           1     -19.774  -3.819  -9.585  0.00  0.00    -0.646 OA
ENDBRANCH   5   6
BRANCH   5   9
HETATM    9  C           1     -20.966  -6.031  -7.125  0.00  0.00     0.217 C 
BRANCH   9  10
HETATM   10  O           1     -20.799  -5.797  -5.752  0.00  0.00    -0.287 OA
BRANCH  10  11
HETATM   11  P           1     -21.908  -6.458  -4.781  0.00  0.00     0.406 P 
HETATM   12  O           1     -21.702  -5.977  -3.397  0.00  0.00    -0.624 OA
HETATM   13  O           1     -23.260  -6.073  -5.242  0.00  0.00    -0.624 OA
BRANCH  11  14
HETATM   14  O           1     -21.766  -8.067  -4.821  0.00  0.00    -0.300 OA
HETATM   15  H           1     -21.021  -8.232  -5.375  0.00  0.00     0.223 HD
ENDBRANCH  11  14
ENDBRANCH  10  11
ENDBRANCH   9  10
ENDBRANCH   5   9
ENDBRANCH   4   5
BRANCH   3  16
HETATM   16  C           1     -24.397  -4.639  -9.895  0.00  0.00     0.284 C 
BRANCH  16  17
HETATM   17  N           1     -25.383  -3.508  -9.880  0.00  0.00    -0.066 N 
HETATM   18  H           1     -26.178  -3.731 -10.520  0.00  0.00     0.275 HD
HETATM   19  H           1     -25.744  -3.376  -8.908  0.00  0.00     0.275 HD
HETATM   20  H           1     -24.911  -2.632 -10.200  0.00  0.00     0.275 HD
ENDBRANCH  16  17
BRANCH  16  21
HETATM   21  C           1     -23.656  -4.647 -11.226  0.00  0.00     0.155 C 
BRANCH  21  22
HETATM   22  C           1     -23.950  -3.371 -11.975  0.00  0.00     0.175 C 
HETATM   23  O           1     -23.156  -2.408 -11.903  0.00  0.00    -0.648 OA
HETATM   24  O           1     -24.987  -3.276 -12.666  0.00  0.00    -0.648 OA
ENDBRANCH  21  22
ENDBRANCH  16  21
ENDBRANCH   3  16
TORSDOF 10
ENDMDL
MODEL 5
REMARK VINA RESULT:      -5.6      8.504     11.516
REMARK  10 active torsions:
REMARK  status: ('A' for Active; 'I' for Inactive)
REMARK    1  A    between atoms: N_2  and  C_9 
REMARK    2  A    between atoms: C_6  and  C_20 
REMARK    3  A    between atoms: C_9  and  C_10 
REMARK    4  A    between atoms: C_9  and  C_12 
REMARK       I    between atoms: C_10  and  N_13 
REMARK    5  A    between atoms: C_11  and  C_12 
REMARK    6  A    between atoms: N_13  and  C_20 
REMARK    7  A    between atoms: O_15  and  P_17 
REMARK    8  A    between atoms: P_17  and  O_18 
REMARK    9  A    between atoms: O_18  and  C_19 
REMARK   10  A    between atoms: C_19  and  C_20 
ROOT
HETATM    1  O           1     -25.270  -6.261 -20.582  0.00  0.00    -0.271 OA
HETATM    2  H           1     -24.078  -8.206 -18.429  0.00  0.00     0.163 HD
HETATM    3  C           1     -24.648  -7.200 -20.146  0.00  0.00     0.249 C 
HETATM    4  N           1     -24.599  -7.420 -18.795  0.00  0.00    -0.343 N 
ENDROOT
BRANCH   4   5
HETATM    5  C           1     -25.291  -6.524 -17.889  0.00  0.00     0.210 C 
BRANCH   5   6
HETATM    6  C           1     -24.914  -6.858 -16.466  0.00  0.00     0.198 C 
HETATM    7  O           1     -24.591  -8.027 -16.163  0.00  0.00    -0.646 OA
HETATM    8  O           1     -24.926  -5.966 -15.591  0.00  0.00    -0.646 OA
ENDBRANCH   5   6
BRANCH   5   9
HETATM    9  C           1     -26.795  -6.685 -18.067  0.00  0.00     0.217 C 
BRANCH   9  10
HETATM   10  O           1     -27.465  -5.997 -17.045  0.00  0.00    -0.287 OA
BRANCH  10  11
HETATM   11  P           1     -28.587  -6.838 -16.244  0.00  0.00     0.406 P 
HETATM   12  O           1     -27.981  -7.447 -15.039  0.00  0.00    -0.624 OA
HETATM   13  O           1     -29.686  -5.933 -15.839  0.00  0.00    -0.624 OA
BRANCH  11  14
HETATM   14  O           1     -29.173  -8.000 -17.200  0.00  0.00    -0.300 OA
HETATM   15  H           1     -28.956  -7.726 -18.076  0.00  0.00     0.223 HD
ENDBRANCH  11  14
ENDBRANCH  10  11
ENDBRANCH   9  10
ENDBRANCH   5   9
ENDBRANCH   4   5
BRANCH   3  16
HETATM   16  C           1     -23.927  -8.132 -21.088  0.00  0.00     0.284 C 
BRANCH  16  17
HETATM   17  N           1     -24.128  -7.670 -22.500  0.00  0.00    -0.066 N 
HETATM   18  H           1     -23.628  -6.763 -22.644  0.00  0.00     0.275 HD
HETATM   19  H           1     -23.745  -8.386 -23.158  0.00  0.00     0.275 HD
HETATM   20  H           1     -25.149  -7.538 -22.682  0.00  0.00     0.275 HD
ENDBRANCH  16  17
BRANCH  16  21
HETATM   21  C           1     -22.440  -8.133 -20.761  0.00  0.00     0.155 C 
BRANCH  21  22
HETATM   22  C           1     -21.716  -9.063 -21.704  0.00  0.00     0.175 C 
HETATM   23  O           1     -20.499  -9.294 -21.542  0.00  0.00    -0.648 OA
HETATM   24  O           1     -22.335  -9.602 -22.646  0.00  0.00    -0.648 OA
ENDBRANCH  21  22
ENDBRANCH  16  21
ENDBRANCH   3  16
TORSDOF 10
ENDMDL
MODEL 6
REMARK VINA RESULT:      -5.6     12.057     14.934
REMARK  10 active torsions:
REMARK  status: ('A' for Active; 'I' for Inactive)
REMARK    1  A    between atoms: N_2  and  C_9 
REMARK    2  A    between atoms: C_6  and  C_20 
REMARK    3  A    between atoms: C_9  and  C_10 
REMARK    4  A    between atoms: C_9  and  C_12 
REMARK       I    between atoms: C_10  and  N_13 
REMARK    5  A    between atoms: C_11  and  C_12 
REMARK    6  A    between atoms: N_13  and  C_20 
REMARK    7  A    between atoms: O_15  and  P_17 
REMARK    8  A    between atoms: P_17  and  O_18 
REMARK    9  A    between atoms: O_18  and  C_19 
REMARK   10  A    between atoms: C_19  and  C_20 
ROOT
HETATM    1  O           1     -34.810  -2.242 -13.539  0.00  0.00    -0.271 OA
HETATM    2  H           1     -36.047  -0.428 -11.299  0.00  0.00     0.163 HD
HETATM    3  C           1     -35.356  -1.280 -13.054  0.00  0.00     0.249 C 
HETATM    4  N           1     -35.590  -1.234 -11.706  0.00  0.00    -0.343 N 
ENDROOT
BRANCH   4   5
HETATM    5  C           1     -35.185  -2.341 -10.861  0.00  0.00     0.210 C 
BRANCH   5   6
HETATM    6  C           1     -33.737  -2.171 -10.470  0.00  0.00     0.198 C 
HETATM    7  O           1     -32.838  -2.700 -11.158  0.00  0.00    -0.646 OA
HETATM    8  O           1     -33.438  -1.501  -9.459  0.00  0.00    -0.646 OA
ENDBRANCH   5   6
BRANCH   5   9
HETATM    9  C           1     -35.355  -3.648 -11.624  0.00  0.00     0.217 C 
BRANCH   9  10
HETATM   10  O           1     -35.382  -4.719 -10.718  0.00  0.00    -0.287 OA
BRANCH  10  11
HETATM   11  P           1     -34.622  -6.064 -11.190  0.00  0.00     0.406 P 
HETATM   12  O           1     -33.163  -5.819 -11.229  0.00  0.00    -0.624 OA
HETATM   13  O           1     -34.914  -7.156 -10.235  0.00  0.00    -0.624 OA
BRANCH  11  14
HETATM   14  O           1     -35.138  -6.484 -12.661  0.00  0.00    -0.300 OA
HETATM   15  H           1     -35.779  -5.832 -12.890  0.00  0.00     0.223 HD
ENDBRANCH  11  14
ENDBRANCH  10  11
ENDBRANCH   9  10
ENDBRANCH   5   9
ENDBRANCH   4   5
BRANCH   3  16
HETATM   16  C           1     -35.778  -0.128 -13.932  0.00  0.00     0.284 C 
BRANCH  16  17
HETATM   17  N           1     -35.080  -0.226 -15.257  0.00  0.00    -0.066 N 
HETATM   18  H           1     -34.445  -1.057 -15.255  0.00  0.00     0.275 HD
HETATM   19  H           1     -35.789  -0.332 -16.016  0.00  0.00     0.275 HD
HETATM   20  H           1     -34.520   0.640 -15.419  0.00  0.00     0.275 HD
ENDBRANCH  16  17
BRANCH  16  21
HETATM   21  C           1     -37.285  -0.181 -14.149  0.00  0.00     0.155 C 
BRANCH  21  22
HETATM   22  C           1     -37.585  -0.103 -15.625  0.00  0.00     0.175 C 
HETATM   23  O           1     -37.652  -1.149 -16.306  0.00  0.00    -0.648 OA
HETATM   24  O           1     -37.767   1.009 -16.168  0.00  0.00    -0.648 OA
ENDBRANCH  21  22
ENDBRANCH  16  21
ENDBRANCH   3  16
TORSDOF 10
ENDMDL
MODEL 7
REMARK VINA RESULT:      -5.6      2.163      3.727
REMARK  10 active torsions:
REMARK  status: ('A' for Active; 'I' for Inactive)
REMARK    1  A    between atoms: N_2  and  C_9 
REMARK    2  A    between atoms: C_6  and  C_20 
REMARK    3  A    between atoms: C_9  and  C_10 
REMARK    4  A    between atoms: C_9  and  C_12 
REMARK       I    between atoms: C_10  and  N_13 
REMARK    5  A    between atoms: C_11  and  C_12 
REMARK    6  A    between atoms: N_13  and  C_20 
REMARK    7  A    between atoms: O_15  and  P_17 
REMARK    8  A    between atoms: P_17  and  O_18 
REMARK    9  A    between atoms: O_18  and  C_19 
REMARK   10  A    between atoms: C_19  and  C_20 
ROOT
HETATM    1  O           1     -21.346  -7.252  -6.764  0.00  0.00    -0.271 OA
HETATM    2  H           1     -21.297  -4.170  -6.178  0.00  0.00     0.163 HD
HETATM    3  C           1     -21.248  -6.239  -6.113  0.00  0.00     0.249 C 
HETATM    4  N           1     -21.379  -5.020  -6.723  0.00  0.00    -0.343 N 
ENDROOT
BRANCH   4   5
HETATM    5  C           1     -21.632  -4.945  -8.149  0.00  0.00     0.210 C 
BRANCH   5   6
HETATM    6  C           1     -20.411  -4.400  -8.848  0.00  0.00     0.198 C 
HETATM    7  O           1     -20.135  -4.776 -10.008  0.00  0.00    -0.646 OA
HETATM    8  O           1     -19.676  -3.572  -8.268  0.00  0.00    -0.646 OA
ENDBRANCH   5   6
BRANCH   5   9
HETATM    9  C           1     -22.818  -4.023  -8.405  0.00  0.00     0.217 C 
BRANCH   9  10
HETATM   10  O           1     -22.646  -3.370  -9.634  0.00  0.00    -0.287 OA
BRANCH  10  11
HETATM   11  P           1     -23.801  -3.621 -10.736  0.00  0.00     0.406 P 
HETATM   12  O           1     -25.122  -3.316 -10.145  0.00  0.00    -0.624 OA
HETATM   13  O           1     -23.567  -2.743 -11.903  0.00  0.00    -0.624 OA
BRANCH  11  14
HETATM   14  O           1     -23.764  -5.165 -11.209  0.00  0.00    -0.300 OA
HETATM   15  H           1     -23.609  -5.658 -10.420  0.00  0.00     0.223 HD
ENDBRANCH  11  14
ENDBRANCH  10  11
ENDBRANCH   9  10
ENDBRANCH   5   9
ENDBRANCH   4   5
BRANCH   3  16
HETATM   16  C           1     -20.984  -6.315  -4.630  0.00  0.00     0.284 C 
BRANCH  16  17
HETATM   17  N           1     -22.284  -6.245  -3.886  0.00  0.00    -0.066 N 
HETATM   18  H           1     -22.182  -5.605  -3.066  0.00  0.00     0.275 HD
HETATM   19  H           1     -23.028  -5.880  -4.522  0.00  0.00     0.275 HD
HETATM   20  H           1     -22.547  -7.200  -3.553  0.00  0.00     0.275 HD
ENDBRANCH  16  17
BRANCH  16  21
HETATM   21  C           1     -20.286  -7.630  -4.306  0.00  0.00     0.155 C 
BRANCH  21  22
HETATM   22  C           1     -21.136  -8.432  -3.352  0.00  0.00     0.175 C 
HETATM   23  O           1     -21.945  -9.276  -3.795  0.00  0.00    -0.648 OA
HETATM   24  O           1     -21.033  -8.251  -2.120  0.00  0.00    -0.648 OA
ENDBRANCH  21  22
ENDBRANCH  16  21
ENDBRANCH   3  16
TORSDOF 10
ENDMDL
MODEL 8
REMARK VINA RESULT:      -5.5      2.725      7.306
REMARK  10 active torsions:
REMARK  status: ('A' for Active; 'I' for Inactive)
REMARK    1  A    between atoms: N_2  and  C_9 
REMARK    2  A    between atoms: C_6  and  C_20 
REMARK    3  A    between atoms: C_9  and  C_10 
REMARK    4  A    between atoms: C_9  and  C_12 
REMARK       I    between atoms: C_10  and  N_13 
REMARK    5  A    between atoms: C_11  and  C_12 
REMARK    6  A    between atoms: N_13  and  C_20 
REMARK    7  A    between atoms: O_15  and  P_17 
REMARK    8  A    between atoms: P_17  and  O_18 
REMARK    9  A    between atoms: O_18  and  C_19 
REMARK   10  A    between atoms: C_19  and  C_20 
ROOT
HETATM    1  O           1     -23.346  -3.362  -9.259  0.00  0.00    -0.271 OA
HETATM    2  H           1     -20.739  -5.090  -9.494  0.00  0.00     0.163 HD
HETATM    3  C           1     -22.465  -3.988  -9.797  0.00  0.00     0.249 C 
HETATM    4  N           1     -21.478  -4.566  -9.044  0.00  0.00    -0.343 N 
ENDROOT
BRANCH   4   5
HETATM    5  C           1     -21.490  -4.424  -7.601  0.00  0.00     0.210 C 
BRANCH   5   6
HETATM    6  C           1     -20.076  -4.268  -7.099  0.00  0.00     0.198 C 
HETATM    7  O           1     -19.139  -4.104  -7.910  0.00  0.00    -0.646 OA
HETATM    8  O           1     -19.841  -4.303  -5.872  0.00  0.00    -0.646 OA
ENDBRANCH   5   6
BRANCH   5   9
HETATM    9  C           1     -22.117  -5.664  -6.975  0.00  0.00     0.217 C 
BRANCH   9  10
HETATM   10  O           1     -21.246  -6.753  -7.122  0.00  0.00    -0.287 OA
BRANCH  10  11
HETATM   11  P           1     -20.875  -7.550  -5.767  0.00  0.00     0.406 P 
HETATM   12  O           1     -21.560  -8.862  -5.762  0.00  0.00    -0.624 OA
HETATM   13  O           1     -19.412  -7.757  -5.701  0.00  0.00    -0.624 OA
BRANCH  11  14
HETATM   14  O           1     -21.354  -6.686  -4.488  0.00  0.00    -0.300 OA
HETATM   15  H           1     -20.558  -6.450  -4.042  0.00  0.00     0.223 HD
ENDBRANCH  11  14
ENDBRANCH  10  11
ENDBRANCH   9  10
ENDBRANCH   5   9
ENDBRANCH   4   5
BRANCH   3  16
HETATM   16  C           1     -22.451  -4.135 -11.298  0.00  0.00     0.284 C 
BRANCH  16  17
HETATM   17  N           1     -23.436  -5.191 -11.707  0.00  0.00    -0.066 N 
HETATM   18  H           1     -22.946  -6.110 -11.790  0.00  0.00     0.275 HD
HETATM   19  H           1     -24.188  -5.261 -10.985  0.00  0.00     0.275 HD
HETATM   20  H           1     -23.858  -4.935 -12.628  0.00  0.00     0.275 HD
ENDBRANCH  16  17
BRANCH  16  21
HETATM   21  C           1     -22.834  -2.809 -11.942  0.00  0.00     0.155 C 
BRANCH  21  22
HETATM   22  C           1     -24.007  -3.018 -12.868  0.00  0.00     0.175 C 
HETATM   23  O           1     -25.174  -2.929 -12.430  0.00  0.00    -0.648 OA
HETATM   24  O           1     -23.811  -3.280 -14.074  0.00  0.00    -0.648 OA
ENDBRANCH  21  22
ENDBRANCH  16  21
ENDBRANCH   3  16
TORSDOF 10
ENDMDL
MODEL 9
REMARK VINA RESULT:      -5.4     11.783     14.158
REMARK  10 active torsions:
REMARK  status: ('A' for Active; 'I' for Inactive)
REMARK    1  A    between atoms: N_2  and  C_9 
REMARK    2  A    between atoms: C_6  and  C_20 
REMARK    3  A    between atoms: C_9  and  C_10 
REMARK    4  A    between atoms: C_9  and  C_12 
REMARK       I    between atoms: C_10  and  N_13 
REMARK    5  A    between atoms: C_11  and  C_12 
REMARK    6  A    between atoms: N_13  and  C_20 
REMARK    7  A    between atoms: O_15  and  P_17 
REMARK    8  A    between atoms: P_17  and  O_18 
REMARK    9  A    between atoms: O_18  and  C_19 
REMARK   10  A    between atoms: C_19  and  C_20 
ROOT
HETATM    1  O           1     -34.688  -4.043 -15.562  0.00  0.00    -0.271 OA
HETATM    2  H           1     -34.287  -1.369 -17.151  0.00  0.00     0.163 HD
HETATM    3  C           1     -34.224  -3.290 -16.384  0.00  0.00     0.249 C 
HETATM    4  N           1     -34.676  -2.000 -16.463  0.00  0.00    -0.343 N 
ENDROOT
BRANCH   4   5
HETATM    5  C           1     -35.714  -1.539 -15.561  0.00  0.00     0.210 C 
BRANCH   5   6
HETATM    6  C           1     -36.532  -0.469 -16.242  0.00  0.00     0.198 C 
HETATM    7  O           1     -36.194   0.731 -16.148  0.00  0.00    -0.646 OA
HETATM    8  O           1     -37.547  -0.783 -16.899  0.00  0.00    -0.646 OA
ENDBRANCH   5   6
BRANCH   5   9
HETATM    9  C           1     -35.075  -0.966 -14.303  0.00  0.00     0.217 C 
BRANCH   9  10
HETATM   10  O           1     -35.770  -1.423 -13.174  0.00  0.00    -0.287 OA
BRANCH  10  11
HETATM   11  P           1     -34.911  -2.287 -12.114  0.00  0.00     0.406 P 
HETATM   12  O           1     -34.096  -1.376 -11.280  0.00  0.00    -0.624 OA
HETATM   13  O           1     -35.828  -3.061 -11.250  0.00  0.00    -0.624 OA
BRANCH  11  14
HETATM   14  O           1     -33.940  -3.302 -12.912  0.00  0.00    -0.300 OA
HETATM   15  H           1     -34.384  -4.133 -12.887  0.00  0.00     0.223 HD
ENDBRANCH  11  14
ENDBRANCH  10  11
ENDBRANCH   9  10
ENDBRANCH   5   9
ENDBRANCH   4   5
BRANCH   3  16
HETATM   16  C           1     -33.144  -3.769 -17.322  0.00  0.00     0.284 C 
BRANCH  16  17
HETATM   17  N           1     -31.983  -2.819 -17.276  0.00  0.00    -0.066 N 
HETATM   18  H           1     -31.120  -3.307 -17.607  0.00  0.00     0.275 HD
HETATM   19  H           1     -32.180  -2.001 -17.895  0.00  0.00     0.275 HD
HETATM   20  H           1     -31.843  -2.490 -16.294  0.00  0.00     0.275 HD
ENDBRANCH  16  17
BRANCH  16  21
HETATM   21  C           1     -32.681  -5.156 -16.897  0.00  0.00     0.155 C 
BRANCH  21  22
HETATM   22  C           1     -31.173  -5.192 -16.851  0.00  0.00     0.175 C 
HETATM   23  O           1     -30.575  -4.981 -15.774  0.00  0.00    -0.648 OA
HETATM   24  O           1     -30.522  -5.434 -17.890  0.00  0.00    -0.648 OA
ENDBRANCH  21  22
ENDBRANCH  16  21
ENDBRANCH   3  16
TORSDOF 10
ENDMDL
