MODEL 1
REMARK VINA RESULT:      -6.7      0.000      0.000
REMARK  5 active torsions:
REMARK  status: ('A' for Active; 'I' for Inactive)
REMARK    1  A    between atoms: C_4  and  C_13 
REMARK    2  A    between atoms: C_4  and  C_18 
REMARK       I    between atoms: C_7  and  N_15 
REMARK    3  A    between atoms: C_7  and  C_16 
REMARK    4  A    between atoms: C_8  and  C_18 
REMARK    5  A    between atoms: N_15  and  C_18 
ROOT
HETATM    1  H           1     -34.702  -0.858 -11.466  0.00  0.00     0.163 HD
HETATM    2  C           1     -34.217  -2.560 -12.540  0.00  0.00     0.251 C 
HETATM    3  O           1     -34.392  -3.162 -13.572  0.00  0.00    -0.271 OA
HETATM    4  N           1     -34.848  -1.363 -12.330  0.00  0.00    -0.344 N 
ENDROOT
BRANCH   4   5
HETATM    5  C           1     -35.727  -0.819 -13.348  0.00  0.00     0.195 C 
BRANCH   5   6
HETATM    6  C           1     -36.954  -0.208 -12.687  0.00  0.00     0.149 C 
BRANCH   6   7
HETATM    7  C           1     -36.856  -0.374 -11.190  0.00  0.00     0.175 C 
HETATM    8  O           1     -36.354   0.534 -10.493  0.00  0.00    -0.648 OA
HETATM    9  O           1     -37.276  -1.420 -10.648  0.00  0.00    -0.648 OA
ENDBRANCH   6   7
ENDBRANCH   5   6
BRANCH   5  10
HETATM   10  C           1     -34.994   0.244 -14.128  0.00  0.00     0.197 C 
HETATM   11  O           1     -34.684   1.322 -13.575  0.00  0.00    -0.646 OA
HETATM   12  O           1     -34.696   0.047 -15.326  0.00  0.00    -0.646 OA
ENDBRANCH   5  10
ENDBRANCH   4   5
BRANCH   2  13
HETATM   13  C           1     -33.303  -3.126 -11.481  0.00  0.00     0.311 C 
HETATM   14  N           1     -34.056  -3.477 -10.280  0.00  0.00     0.097 N 
HETATM   15  C           1     -34.695  -4.752 -10.594  0.00  0.00     0.271 C 
HETATM   16  H           1     -33.430  -3.598  -9.484  0.00  0.00     0.317 HD
HETATM   17  C           1     -33.624  -5.517 -11.353  0.00  0.00     0.033 C 
HETATM   18  C           1     -32.707  -4.448 -11.933  0.00  0.00     0.047 C 
ENDBRANCH   2  13
TORSDOF 5
ENDMDL
MODEL 2
REMARK VINA RESULT:      -6.2     12.035     13.617
REMARK  5 active torsions:
REMARK  status: ('A' for Active; 'I' for Inactive)
REMARK    1  A    between atoms: C_4  and  C_13 
REMARK    2  A    between atoms: C_4  and  C_18 
REMARK       I    between atoms: C_7  and  N_15 
REMARK    3  A    between atoms: C_7  and  C_16 
REMARK    4  A    between atoms: C_8  and  C_18 
REMARK    5  A    between atoms: N_15  and  C_18 
ROOT
HETATM    1  H           1     -22.318  -3.070  -9.366  0.00  0.00     0.163 HD
HETATM    2  C           1     -20.629  -4.266  -9.346  0.00  0.00     0.251 C 
HETATM    3  O           1     -20.008  -5.112  -9.944  0.00  0.00    -0.271 OA
HETATM    4  N           1     -21.798  -3.779  -9.867  0.00  0.00    -0.344 N 
ENDROOT
BRANCH   4   5
HETATM    5  C           1     -22.290  -4.280 -11.136  0.00  0.00     0.195 C 
BRANCH   5   6
HETATM    6  C           1     -23.683  -4.863 -10.947  0.00  0.00     0.149 C 
BRANCH   6   7
HETATM    7  C           1     -24.438  -4.046  -9.928  0.00  0.00     0.175 C 
HETATM    8  O           1     -24.160  -4.149  -8.714  0.00  0.00    -0.648 OA
HETATM    9  O           1     -25.343  -3.266 -10.298  0.00  0.00    -0.648 OA
ENDBRANCH   6   7
ENDBRANCH   5   6
BRANCH   5  10
HETATM   10  C           1     -22.349  -3.148 -12.132  0.00  0.00     0.197 C 
HETATM   11  O           1     -21.732  -2.084 -11.906  0.00  0.00    -0.646 OA
HETATM   12  O           1     -23.014  -3.274 -13.183  0.00  0.00    -0.646 OA
ENDBRANCH   5  10
ENDBRANCH   4   5
BRANCH   2  13
HETATM   13  C           1     -20.117  -3.745  -8.025  0.00  0.00     0.311 C 
HETATM   14  N           1     -21.206  -3.622  -7.059  0.00  0.00     0.097 N 
HETATM   15  C           1     -21.441  -4.981  -6.580  0.00  0.00     0.271 C 
HETATM   16  H           1     -20.929  -3.029  -6.277  0.00  0.00     0.317 HD
HETATM   17  C           1     -20.045  -5.561  -6.433  0.00  0.00     0.033 C 
HETATM   18  C           1     -19.174  -4.745  -7.380  0.00  0.00     0.047 C 
ENDBRANCH   2  13
TORSDOF 5
ENDMDL
MODEL 3
REMARK VINA RESULT:      -6.1      1.747      2.337
REMARK  5 active torsions:
REMARK  status: ('A' for Active; 'I' for Inactive)
REMARK    1  A    between atoms: C_4  and  C_13 
REMARK    2  A    between atoms: C_4  and  C_18 
REMARK       I    between atoms: C_7  and  N_15 
REMARK    3  A    between atoms: C_7  and  C_16 
REMARK    4  A    between atoms: C_8  and  C_18 
REMARK    5  A    between atoms: N_15  and  C_18 
ROOT
HETATM    1  H           1     -34.587  -0.803 -10.821  0.00  0.00     0.163 HD
HETATM    2  C           1     -35.372  -2.711 -10.653  0.00  0.00     0.251 C 
HETATM    3  O           1     -36.377  -3.377 -10.721  0.00  0.00    -0.271 OA
HETATM    4  N           1     -35.429  -1.361 -10.878  0.00  0.00    -0.344 N 
ENDROOT
BRANCH   4   5
HETATM    5  C           1     -36.696  -0.733 -11.199  0.00  0.00     0.195 C 
BRANCH   5   6
HETATM    6  C           1     -36.895   0.490 -10.315  0.00  0.00     0.149 C 
BRANCH   6   7
HETATM    7  C           1     -36.796   0.086  -8.865  0.00  0.00     0.175 C 
HETATM    8  O           1     -37.779  -0.429  -8.291  0.00  0.00    -0.648 OA
HETATM    9  O           1     -35.729   0.265  -8.238  0.00  0.00    -0.648 OA
ENDBRANCH   6   7
ENDBRANCH   5   6
BRANCH   5  10
HETATM   10  C           1     -36.694  -0.312 -12.648  0.00  0.00     0.197 C 
HETATM   11  O           1     -35.797   0.447 -13.076  0.00  0.00    -0.646 OA
HETATM   12  O           1     -37.588  -0.721 -13.419  0.00  0.00    -0.646 OA
ENDBRANCH   5  10
ENDBRANCH   4   5
BRANCH   2  13
HETATM   13  C           1     -34.054  -3.365 -10.318  0.00  0.00     0.311 C 
HETATM   14  N           1     -34.158  -4.818 -10.410  0.00  0.00     0.097 N 
HETATM   15  C           1     -34.089  -5.113 -11.838  0.00  0.00     0.271 C 
HETATM   16  H           1     -33.376  -5.267  -9.932  0.00  0.00     0.317 HD
HETATM   17  C           1     -33.025  -4.159 -12.354  0.00  0.00     0.033 C 
HETATM   18  C           1     -32.999  -3.012 -11.352  0.00  0.00     0.047 C 
ENDBRANCH   2  13
TORSDOF 5
ENDMDL
MODEL 4
REMARK VINA RESULT:      -5.9     12.336     14.178
REMARK  5 active torsions:
REMARK  status: ('A' for Active; 'I' for Inactive)
REMARK    1  A    between atoms: C_4  and  C_13 
REMARK    2  A    between atoms: C_4  and  C_18 
REMARK       I    between atoms: C_7  and  N_15 
REMARK    3  A    between atoms: C_7  and  C_16 
REMARK    4  A    between atoms: C_8  and  C_18 
REMARK    5  A    between atoms: N_15  and  C_18 
ROOT
HETATM    1  H           1     -22.471  -5.709  -9.683  0.00  0.00     0.163 HD
HETATM    2  C           1     -22.008  -4.510  -8.060  0.00  0.00     0.251 C 
HETATM    3  O           1     -22.005  -3.381  -7.633  0.00  0.00    -0.271 OA
HETATM    4  N           1     -22.469  -4.762  -9.325  0.00  0.00    -0.344 N 
ENDROOT
BRANCH   4   5
HETATM    5  C           1     -22.953  -3.673 -10.150  0.00  0.00     0.195 C 
BRANCH   5   6
HETATM    6  C           1     -22.216  -3.677 -11.482  0.00  0.00     0.149 C 
BRANCH   6   7
HETATM    7  C           1     -20.731  -3.571 -11.237  0.00  0.00     0.175 C 
HETATM    8  O           1     -20.171  -2.454 -11.268  0.00  0.00    -0.648 OA
HETATM    9  O           1     -20.061  -4.600 -11.003  0.00  0.00    -0.648 OA
ENDBRANCH   6   7
ENDBRANCH   5   6
BRANCH   5  10
HETATM   10  C           1     -24.432  -3.847 -10.393  0.00  0.00     0.197 C 
HETATM   11  O           1     -25.018  -3.118 -11.222  0.00  0.00    -0.646 OA
HETATM   12  O           1     -25.071  -4.719  -9.765  0.00  0.00    -0.646 OA
ENDBRANCH   5  10
ENDBRANCH   4   5
BRANCH   2  13
HETATM   13  C           1     -21.503  -5.644  -7.202  0.00  0.00     0.311 C 
HETATM   14  N           1     -20.174  -6.070  -7.633  0.00  0.00     0.097 N 
HETATM   15  C           1     -19.260  -5.073  -7.082  0.00  0.00     0.271 C 
HETATM   16  H           1     -19.947  -6.988  -7.251  0.00  0.00     0.317 HD
HETATM   17  C           1     -19.814  -4.804  -5.693  0.00  0.00     0.033 C 
HETATM   18  C           1     -21.287  -5.183  -5.771  0.00  0.00     0.047 C 
ENDBRANCH   2  13
TORSDOF 5
ENDMDL
MODEL 5
REMARK VINA RESULT:      -5.7     11.837     13.661
REMARK  5 active torsions:
REMARK  status: ('A' for Active; 'I' for Inactive)
REMARK    1  A    between atoms: C_4  and  C_13 
REMARK    2  A    between atoms: C_4  and  C_18 
REMARK       I    between atoms: C_7  and  N_15 
REMARK    3  A    between atoms: C_7  and  C_16 
REMARK    4  A    between atoms: C_8  and  C_18 
REMARK    5  A    between atoms: N_15  and  C_18 
ROOT
HETATM    1  H           1     -22.683  -5.651  -8.843  0.00  0.00     0.163 HD
HETATM    2  C           1     -20.895  -4.609  -8.846  0.00  0.00     0.251 C 
HETATM    3  O           1     -20.310  -3.647  -9.282  0.00  0.00    -0.271 OA
HETATM    4  N           1     -22.194  -4.845  -9.209  0.00  0.00    -0.344 N 
ENDROOT
BRANCH   4   5
HETATM    5  C           1     -22.868  -3.938 -10.118  0.00  0.00     0.195 C 
BRANCH   5   6
HETATM    6  C           1     -22.699  -4.432 -11.548  0.00  0.00     0.149 C 
BRANCH   6   7
HETATM    7  C           1     -23.324  -3.443 -12.500  0.00  0.00     0.175 C 
HETATM    8  O           1     -22.951  -2.251 -12.496  0.00  0.00    -0.648 OA
HETATM    9  O           1     -24.215  -3.817 -13.293  0.00  0.00    -0.648 OA
ENDBRANCH   6   7
ENDBRANCH   5   6
BRANCH   5  10
HETATM   10  C           1     -24.336  -3.882  -9.775  0.00  0.00     0.197 C 
HETATM   11  O           1     -24.872  -2.786  -9.502  0.00  0.00    -0.646 OA
HETATM   12  O           1     -25.016  -4.931  -9.762  0.00  0.00    -0.646 OA
ENDBRANCH   5  10
ENDBRANCH   4   5
BRANCH   2  13
HETATM   13  C           1     -20.193  -5.553  -7.900  0.00  0.00     0.311 C 
HETATM   14  N           1     -19.418  -4.814  -6.908  0.00  0.00     0.097 N 
HETATM   15  C           1     -20.398  -4.354  -5.928  0.00  0.00     0.271 C 
HETATM   16  H           1     -18.741  -5.424  -6.451  0.00  0.00     0.317 HD
HETATM   17  C           1     -21.337  -5.538  -5.772  0.00  0.00     0.033 C 
HETATM   18  C           1     -21.199  -6.329  -7.067  0.00  0.00     0.047 C 
ENDBRANCH   2  13
TORSDOF 5
ENDMDL
MODEL 6
REMARK VINA RESULT:      -5.6     12.507     14.409
REMARK  5 active torsions:
REMARK  status: ('A' for Active; 'I' for Inactive)
REMARK    1  A    between atoms: C_4  and  C_13 
REMARK    2  A    between atoms: C_4  and  C_18 
REMARK       I    between atoms: C_7  and  N_15 
REMARK    3  A    between atoms: C_7  and  C_16 
REMARK    4  A    between atoms: C_8  and  C_18 
REMARK    5  A    between atoms: N_15  and  C_18 
ROOT
HETATM    1  H           1     -21.891  -5.311  -9.178  0.00  0.00     0.163 HD
HETATM    2  C           1     -21.346  -3.883 -10.574  0.00  0.00     0.251 C 
HETATM    3  O           1     -20.684  -2.892 -10.770  0.00  0.00    -0.271 OA
HETATM    4  N           1     -21.336  -4.480  -9.342  0.00  0.00    -0.344 N 
ENDROOT
BRANCH   4   5
HETATM    5  C           1     -20.531  -3.923  -8.273  0.00  0.00     0.195 C 
BRANCH   5   6
HETATM    6  C           1     -21.437  -3.466  -7.139  0.00  0.00     0.149 C 
BRANCH   6   7
HETATM    7  C           1     -22.625  -4.391  -7.039  0.00  0.00     0.175 C 
HETATM    8  O           1     -23.579  -4.272  -7.837  0.00  0.00    -0.648 OA
HETATM    9  O           1     -22.655  -5.277  -6.157  0.00  0.00    -0.648 OA
ENDBRANCH   6   7
ENDBRANCH   5   6
BRANCH   5  10
HETATM   10  C           1     -19.577  -4.975  -7.762  0.00  0.00     0.197 C 
HETATM   11  O           1     -19.896  -6.183  -7.812  0.00  0.00    -0.646 OA
HETATM   12  O           1     -18.470  -4.639  -7.291  0.00  0.00    -0.646 OA
ENDBRANCH   5  10
ENDBRANCH   4   5
BRANCH   2  13
HETATM   13  C           1     -22.185  -4.463 -11.687  0.00  0.00     0.311 C 
HETATM   14  N           1     -23.527  -4.785 -11.211  0.00  0.00     0.097 N 
HETATM   15  C           1     -24.231  -3.507 -11.171  0.00  0.00     0.271 C 
HETATM   16  H           1     -23.999  -5.413 -11.861  0.00  0.00     0.317 HD
HETATM   17  C           1     -23.769  -2.799 -12.434  0.00  0.00     0.033 C 
HETATM   18  C           1     -22.426  -3.431 -12.775  0.00  0.00     0.047 C 
ENDBRANCH   2  13
TORSDOF 5
ENDMDL
MODEL 7
REMARK VINA RESULT:      -5.3     12.381     14.314
REMARK  5 active torsions:
REMARK  status: ('A' for Active; 'I' for Inactive)
REMARK    1  A    between atoms: C_4  and  C_13 
REMARK    2  A    between atoms: C_4  and  C_18 
REMARK       I    between atoms: C_7  and  N_15 
REMARK    3  A    between atoms: C_7  and  C_16 
REMARK    4  A    between atoms: C_8  and  C_18 
REMARK    5  A    between atoms: N_15  and  C_18 
ROOT
HETATM    1  H           1     -21.736  -5.538  -9.758  0.00  0.00     0.163 HD
HETATM    2  C           1     -23.347  -4.451  -9.044  0.00  0.00     0.251 C 
HETATM    3  O           1     -23.762  -3.783  -8.127  0.00  0.00    -0.271 OA
HETATM    4  N           1     -22.084  -4.979  -8.990  0.00  0.00    -0.344 N 
ENDROOT
BRANCH   4   5
HETATM    5  C           1     -21.246  -4.736  -7.831  0.00  0.00     0.195 C 
BRANCH   5   6
HETATM    6  C           1     -21.109  -6.019  -7.025  0.00  0.00     0.149 C 
BRANCH   6   7
HETATM    7  C           1     -21.602  -5.786  -5.619  0.00  0.00     0.175 C 
HETATM    8  O           1     -20.805  -5.420  -4.729  0.00  0.00    -0.648 OA
HETATM    9  O           1     -22.809  -5.961  -5.343  0.00  0.00    -0.648 OA
ENDBRANCH   6   7
ENDBRANCH   5   6
BRANCH   5  10
HETATM   10  C           1     -19.882  -4.278  -8.286  0.00  0.00     0.197 C 
HETATM   11  O           1     -19.739  -3.775  -9.422  0.00  0.00    -0.646 OA
HETATM   12  O           1     -18.896  -4.402  -7.529  0.00  0.00    -0.646 OA
ENDBRANCH   5  10
ENDBRANCH   4   5
BRANCH   2  13
HETATM   13  C           1     -24.219  -4.704 -10.249  0.00  0.00     0.311 C 
HETATM   14  N           1     -24.785  -3.455 -10.752  0.00  0.00     0.097 N 
HETATM   15  C           1     -23.704  -2.826 -11.505  0.00  0.00     0.271 C 
HETATM   16  H           1     -25.571  -3.640 -11.375  0.00  0.00     0.317 HD
HETATM   17  C           1     -23.051  -3.985 -12.238  0.00  0.00     0.033 C 
HETATM   18  C           1     -23.393  -5.220 -11.414  0.00  0.00     0.047 C 
ENDBRANCH   2  13
TORSDOF 5
ENDMDL
MODEL 8
REMARK VINA RESULT:      -5.2     15.063     17.194
REMARK  5 active torsions:
REMARK  status: ('A' for Active; 'I' for Inactive)
REMARK    1  A    between atoms: C_4  and  C_13 
REMARK    2  A    between atoms: C_4  and  C_18 
REMARK       I    between atoms: C_7  and  N_15 
REMARK    3  A    between atoms: C_7  and  C_16 
REMARK    4  A    between atoms: C_8  and  C_18 
REMARK    5  A    between atoms: N_15  and  C_18 
ROOT
HETATM    1  H           1     -19.871  -6.361  -4.502  0.00  0.00     0.163 HD
HETATM    2  C           1     -21.382  -5.439  -5.574  0.00  0.00     0.251 C 
HETATM    3  O           1     -22.566  -5.435  -5.813  0.00  0.00    -0.271 OA
HETATM    4  N           1     -20.863  -6.358  -4.701  0.00  0.00    -0.344 N 
ENDROOT
BRANCH   4   5
HETATM    5  C           1     -21.735  -7.326  -4.065  0.00  0.00     0.195 C 
BRANCH   5   6
HETATM    6  C           1     -21.177  -8.727  -4.271  0.00  0.00     0.149 C 
BRANCH   6   7
HETATM    7  C           1     -19.733  -8.636  -4.700  0.00  0.00     0.175 C 
HETATM    8  O           1     -18.822  -8.739  -3.850  0.00  0.00    -0.648 OA
HETATM    9  O           1     -19.448  -8.458  -5.904  0.00  0.00    -0.648 OA
ENDBRANCH   6   7
ENDBRANCH   5   6
BRANCH   5  10
HETATM   10  C           1     -21.818  -7.030  -2.587  0.00  0.00     0.197 C 
HETATM   11  O           1     -22.335  -5.962  -2.193  0.00  0.00    -0.646 OA
HETATM   12  O           1     -21.371  -7.852  -1.759  0.00  0.00    -0.646 OA
ENDBRANCH   5  10
ENDBRANCH   4   5
BRANCH   2  13
HETATM   13  C           1     -20.475  -4.432  -6.238  0.00  0.00     0.311 C 
HETATM   14  N           1     -19.467  -5.102  -7.056  0.00  0.00     0.097 N 
HETATM   15  C           1     -20.164  -5.476  -8.283  0.00  0.00     0.271 C 
HETATM   16  H           1     -18.703  -4.465  -7.280  0.00  0.00     0.317 HD
HETATM   17  C           1     -21.045  -4.274  -8.580  0.00  0.00     0.033 C 
HETATM   18  C           1     -21.246  -3.586  -7.235  0.00  0.00     0.047 C 
ENDBRANCH   2  13
TORSDOF 5
ENDMDL
MODEL 9
REMARK VINA RESULT:      -4.9     16.188     18.151
REMARK  5 active torsions:
REMARK  status: ('A' for Active; 'I' for Inactive)
REMARK    1  A    between atoms: C_4  and  C_13 
REMARK    2  A    between atoms: C_4  and  C_18 
REMARK       I    between atoms: C_7  and  N_15 
REMARK    3  A    between atoms: C_7  and  C_16 
REMARK    4  A    between atoms: C_8  and  C_18 
REMARK    5  A    between atoms: N_15  and  C_18 
ROOT
HETATM    1  H           1     -19.905  -8.081  -2.474  0.00  0.00     0.163 HD
HETATM    2  C           1     -21.427  -9.459  -2.215  0.00  0.00     0.251 C 
HETATM    3  O           1     -22.257 -10.135  -2.776  0.00  0.00    -0.271 OA
HETATM    4  N           1     -20.600  -8.647  -2.944  0.00  0.00    -0.344 N 
ENDROOT
BRANCH   4   5
HETATM    5  C           1     -20.720  -8.599  -4.388  0.00  0.00     0.195 C 
BRANCH   5   6
HETATM    6  C           1     -20.660  -7.152  -4.855  0.00  0.00     0.149 C 
BRANCH   6   7
HETATM    7  C           1     -21.859  -6.402  -4.329  0.00  0.00     0.175 C 
HETATM    8  O           1     -22.862  -6.239  -5.056  0.00  0.00    -0.648 OA
HETATM    9  O           1     -21.848  -5.943  -3.166  0.00  0.00    -0.648 OA
ENDBRANCH   6   7
ENDBRANCH   5   6
BRANCH   5  10
HETATM   10  C           1     -19.586  -9.376  -5.011  0.00  0.00     0.197 C 
HETATM   11  O           1     -19.816 -10.165  -5.954  0.00  0.00    -0.646 OA
HETATM   12  O           1     -18.420  -9.233  -4.585  0.00  0.00    -0.646 OA
ENDBRANCH   5  10
ENDBRANCH   4   5
BRANCH   2  13
HETATM   13  C           1     -21.303  -9.509  -0.712  0.00  0.00     0.311 C 
HETATM   14  N           1     -21.072  -8.174  -0.166  0.00  0.00     0.097 N 
HETATM   15  C           1     -22.384  -7.533  -0.166  0.00  0.00     0.271 C 
HETATM   16  H           1     -20.722  -8.231   0.790  0.00  0.00     0.317 HD
HETATM   17  C           1     -23.328  -8.638   0.279  0.00  0.00     0.033 C 
HETATM   18  C           1     -22.614  -9.937  -0.076  0.00  0.00     0.047 C 
ENDBRANCH   2  13
TORSDOF 5
ENDMDL
