MODEL 1
REMARK VINA RESULT:      -7.5      0.000      0.000
REMARK  7 active torsions:
REMARK  status: ('A' for Active; 'I' for Inactive)
REMARK    1  A    between atoms: C_2  and  C_13 
REMARK    2  A    between atoms: C_2  and  C_22 
REMARK    3  A    between atoms: C_4  and  C_22 
REMARK    4  A    between atoms: C_7  and  C_11 
REMARK    5  A    between atoms: C_7  and  N_18 
REMARK    6  A    between atoms: N_9  and  C_22 
REMARK       I    between atoms: N_9  and  C_11 
REMARK    7  A    between atoms: O_10  and  C_16 
ROOT
HETATM    1  C           1     -35.759  -1.129 -12.012  0.00  0.00     0.189 C 
ENDROOT
BRANCH   1   2
HETATM    2  C           1     -34.377  -1.416 -11.440  0.00  0.00     0.074 C 
BRANCH   2   3
HETATM    3  C           1     -34.188  -2.896 -11.305  0.00  0.00    -0.056 A 
HETATM    4  C           1     -32.971  -3.477 -11.658  0.00  0.00     0.010 A 
HETATM    5  C           1     -32.795  -4.855 -11.533  0.00  0.00     0.037 A 
HETATM    6  C           1     -33.837  -5.651 -11.057  0.00  0.00     0.065 A 
HETATM    7  C           1     -35.055  -5.069 -10.706  0.00  0.00     0.037 A 
HETATM    8  C           1     -35.231  -3.691 -10.830  0.00  0.00     0.010 A 
BRANCH   6   9
HETATM    9  O           1     -33.665  -6.990 -10.936  0.00  0.00    -0.361 OA
HETATM   10  H           1     -34.124  -7.280 -10.130  0.00  0.00     0.217 HD
ENDBRANCH   6   9
ENDBRANCH   2   3
ENDBRANCH   1   2
BRANCH   1  11
HETATM   11  C           1     -36.706  -0.779 -10.891  0.00  0.00     0.197 C 
HETATM   12  O           1     -36.265  -0.280  -9.833  0.00  0.00    -0.646 OA
HETATM   13  O           1     -37.932  -0.988 -11.020  0.00  0.00    -0.646 OA
ENDBRANCH   1  11
BRANCH   1  14
HETATM   14  N           1     -35.676  -0.018 -12.940  0.00  0.00    -0.345 N 
HETATM   15  C           1     -35.463  -0.252 -14.272  0.00  0.00     0.243 C 
HETATM   16  O           1     -35.344  -1.386 -14.673  0.00  0.00    -0.272 OA
HETATM   17  H           1     -35.775   0.931 -12.603  0.00  0.00     0.163 HD
BRANCH  15  18
HETATM   18  C           1     -35.376   0.903 -15.237  0.00  0.00     0.332 C 
BRANCH  18  19
HETATM   19  N           1     -36.739   1.197 -15.791  0.00  0.00    -0.071 N 
HETATM   20  H           1     -37.391   1.427 -15.008  0.00  0.00     0.274 HD
HETATM   21  H           1     -36.680   2.010 -16.445  0.00  0.00     0.274 HD
HETATM   22  H           1     -37.093   0.360 -16.306  0.00  0.00     0.274 HD
ENDBRANCH  18  19
ENDBRANCH  15  18
ENDBRANCH   1  14
TORSDOF 7
ENDMDL
MODEL 2
REMARK VINA RESULT:      -6.7     11.474     13.038
REMARK  7 active torsions:
REMARK  status: ('A' for Active; 'I' for Inactive)
REMARK    1  A    between atoms: C_2  and  C_13 
REMARK    2  A    between atoms: C_2  and  C_22 
REMARK    3  A    between atoms: C_4  and  C_22 
REMARK    4  A    between atoms: C_7  and  C_11 
REMARK    5  A    between atoms: C_7  and  N_18 
REMARK    6  A    between atoms: N_9  and  C_22 
REMARK       I    between atoms: N_9  and  C_11 
REMARK    7  A    between atoms: O_10  and  C_16 
ROOT
HETATM    1  C           1     -22.926  -3.067 -12.269  0.00  0.00     0.189 C 
ENDROOT
BRANCH   1   2
HETATM    2  C           1     -21.987  -2.393 -11.277  0.00  0.00     0.074 C 
BRANCH   2   3
HETATM    3  C           1     -21.451  -3.414 -10.322  0.00  0.00    -0.056 A 
HETATM    4  C           1     -21.992  -3.521  -9.041  0.00  0.00     0.010 A 
HETATM    5  C           1     -21.493  -4.472  -8.151  0.00  0.00     0.037 A 
HETATM    6  C           1     -20.453  -5.315  -8.541  0.00  0.00     0.065 A 
HETATM    7  C           1     -19.911  -5.207  -9.822  0.00  0.00     0.037 A 
HETATM    8  C           1     -20.410  -4.256 -10.712  0.00  0.00     0.010 A 
BRANCH   6   9
HETATM    9  O           1     -19.968  -6.238  -7.676  0.00  0.00    -0.361 OA
HETATM   10  H           1     -19.207  -6.672  -8.095  0.00  0.00     0.217 HD
ENDBRANCH   6   9
ENDBRANCH   2   3
ENDBRANCH   1   2
BRANCH   1  11
HETATM   11  C           1     -23.942  -3.893 -11.519  0.00  0.00     0.197 C 
HETATM   12  O           1     -23.835  -5.138 -11.487  0.00  0.00    -0.646 OA
HETATM   13  O           1     -24.892  -3.332 -10.932  0.00  0.00    -0.646 OA
ENDBRANCH   1  11
BRANCH   1  14
HETATM   14  N           1     -23.608  -2.054 -13.051  0.00  0.00    -0.345 N 
HETATM   15  C           1     -23.459  -2.025 -14.412  0.00  0.00     0.243 C 
HETATM   16  O           1     -22.759  -2.843 -14.960  0.00  0.00    -0.272 OA
HETATM   17  H           1     -24.195  -1.369 -12.592  0.00  0.00     0.163 HD
BRANCH  15  18
HETATM   18  C           1     -24.168  -0.972 -15.227  0.00  0.00     0.332 C 
BRANCH  18  19
HETATM   19  N           1     -23.172  -0.236 -16.072  0.00  0.00    -0.071 N 
HETATM   20  H           1     -22.223  -0.316 -15.642  0.00  0.00     0.274 HD
HETATM   21  H           1     -23.156  -0.651 -17.031  0.00  0.00     0.274 HD
HETATM   22  H           1     -23.443   0.771 -16.133  0.00  0.00     0.274 HD
ENDBRANCH  18  19
ENDBRANCH  15  18
ENDBRANCH   1  14
TORSDOF 7
ENDMDL
MODEL 3
REMARK VINA RESULT:      -6.7      2.558      5.735
REMARK  7 active torsions:
REMARK  status: ('A' for Active; 'I' for Inactive)
REMARK    1  A    between atoms: C_2  and  C_13 
REMARK    2  A    between atoms: C_2  and  C_22 
REMARK    3  A    between atoms: C_4  and  C_22 
REMARK    4  A    between atoms: C_7  and  C_11 
REMARK    5  A    between atoms: C_7  and  N_18 
REMARK    6  A    between atoms: N_9  and  C_22 
REMARK       I    between atoms: N_9  and  C_11 
REMARK    7  A    between atoms: O_10  and  C_16 
ROOT
HETATM    1  C           1     -35.587  -1.806 -11.309  0.00  0.00     0.189 C 
ENDROOT
BRANCH   1   2
HETATM    2  C           1     -34.495  -1.116 -12.116  0.00  0.00     0.074 C 
BRANCH   2   3
HETATM    3  C           1     -35.118  -0.309 -13.213  0.00  0.00    -0.056 A 
HETATM    4  C           1     -36.363  -0.673 -13.725  0.00  0.00     0.010 A 
HETATM    5  C           1     -36.943   0.077 -14.747  0.00  0.00     0.037 A 
HETATM    6  C           1     -36.278   1.192 -15.257  0.00  0.00     0.065 A 
HETATM    7  C           1     -35.032   1.556 -14.746  0.00  0.00     0.037 A 
HETATM    8  C           1     -34.452   0.805 -13.724  0.00  0.00     0.010 A 
BRANCH   6   9
HETATM    9  O           1     -36.842   1.921 -16.251  0.00  0.00    -0.361 OA
HETATM   10  H           1     -36.694   2.861 -16.055  0.00  0.00     0.217 HD
ENDBRANCH   6   9
ENDBRANCH   2   3
ENDBRANCH   1   2
BRANCH   1  11
HETATM   11  C           1     -35.117  -3.179 -10.897  0.00  0.00     0.197 C 
HETATM   12  O           1     -33.938  -3.349 -10.515  0.00  0.00    -0.646 OA
HETATM   13  O           1     -35.905  -4.149 -10.939  0.00  0.00    -0.646 OA
ENDBRANCH   1  11
BRANCH   1  14
HETATM   14  N           1     -35.882  -1.021 -10.126  0.00  0.00    -0.345 N 
HETATM   15  C           1     -37.153  -0.560  -9.910  0.00  0.00     0.243 C 
HETATM   16  O           1     -38.027  -0.807 -10.707  0.00  0.00    -0.272 OA
HETATM   17  H           1     -35.149  -0.815  -9.460  0.00  0.00     0.163 HD
BRANCH  15  18
HETATM   18  C           1     -37.461   0.257  -8.680  0.00  0.00     0.332 C 
BRANCH  18  19
HETATM   19  N           1     -36.390   1.288  -8.482  0.00  0.00    -0.071 N 
HETATM   20  H           1     -36.795   2.124  -8.005  0.00  0.00     0.274 HD
HETATM   21  H           1     -35.625   0.887  -7.893  0.00  0.00     0.274 HD
HETATM   22  H           1     -36.003   1.571  -9.410  0.00  0.00     0.274 HD
ENDBRANCH  18  19
ENDBRANCH  15  18
ENDBRANCH   1  14
TORSDOF 7
ENDMDL
MODEL 4
REMARK VINA RESULT:      -6.5     11.449     13.165
REMARK  7 active torsions:
REMARK  status: ('A' for Active; 'I' for Inactive)
REMARK    1  A    between atoms: C_2  and  C_13 
REMARK    2  A    between atoms: C_2  and  C_22 
REMARK    3  A    between atoms: C_4  and  C_22 
REMARK    4  A    between atoms: C_7  and  C_11 
REMARK    5  A    between atoms: C_7  and  N_18 
REMARK    6  A    between atoms: N_9  and  C_22 
REMARK       I    between atoms: N_9  and  C_11 
REMARK    7  A    between atoms: O_10  and  C_16 
ROOT
HETATM    1  C           1     -23.184  -3.741 -10.308  0.00  0.00     0.189 C 
ENDROOT
BRANCH   1   2
HETATM    2  C           1     -22.451  -3.087  -9.144  0.00  0.00     0.074 C 
BRANCH   2   3
HETATM    3  C           1     -21.788  -4.142  -8.314  0.00  0.00    -0.056 A 
HETATM    4  C           1     -22.402  -4.599  -7.149  0.00  0.00     0.010 A 
HETATM    5  C           1     -21.784  -5.581  -6.375  0.00  0.00     0.037 A 
HETATM    6  C           1     -20.552  -6.106  -6.767  0.00  0.00     0.065 A 
HETATM    7  C           1     -19.938  -5.647  -7.932  0.00  0.00     0.037 A 
HETATM    8  C           1     -20.556  -4.665  -8.706  0.00  0.00     0.010 A 
BRANCH   6   9
HETATM    9  O           1     -19.952  -7.060  -6.015  0.00  0.00    -0.361 OA
HETATM   10  H           1     -20.236  -6.939  -5.093  0.00  0.00     0.217 HD
ENDBRANCH   6   9
ENDBRANCH   2   3
ENDBRANCH   1   2
BRANCH   1  11
HETATM   11  C           1     -24.625  -3.976  -9.929  0.00  0.00     0.197 C 
HETATM   12  O           1     -25.412  -3.009  -9.832  0.00  0.00    -0.646 OA
HETATM   13  O           1     -25.033  -5.137  -9.711  0.00  0.00    -0.646 OA
ENDBRANCH   1  11
BRANCH   1  14
HETATM   14  N           1     -23.125  -2.870 -11.466  0.00  0.00    -0.345 N 
HETATM   15  C           1     -23.461  -3.352 -12.703  0.00  0.00     0.243 C 
HETATM   16  O           1     -23.806  -4.502 -12.829  0.00  0.00    -0.272 OA
HETATM   17  H           1     -22.835  -1.906 -11.360  0.00  0.00     0.163 HD
BRANCH  15  18
HETATM   18  C           1     -23.400  -2.446 -13.908  0.00  0.00     0.332 C 
BRANCH  18  19
HETATM   19  N           1     -22.418  -2.997 -14.900  0.00  0.00    -0.071 N 
HETATM   20  H           1     -22.641  -3.999 -15.091  0.00  0.00     0.274 HD
HETATM   21  H           1     -22.479  -2.450 -15.789  0.00  0.00     0.274 HD
HETATM   22  H           1     -21.451  -2.924 -14.511  0.00  0.00     0.274 HD
ENDBRANCH  18  19
ENDBRANCH  15  18
ENDBRANCH   1  14
TORSDOF 7
ENDMDL
MODEL 5
REMARK VINA RESULT:      -6.4     13.064     15.727
REMARK  7 active torsions:
REMARK  status: ('A' for Active; 'I' for Inactive)
REMARK    1  A    between atoms: C_2  and  C_13 
REMARK    2  A    between atoms: C_2  and  C_22 
REMARK    3  A    between atoms: C_4  and  C_22 
REMARK    4  A    between atoms: C_7  and  C_11 
REMARK    5  A    between atoms: C_7  and  N_18 
REMARK    6  A    between atoms: N_9  and  C_22 
REMARK       I    between atoms: N_9  and  C_11 
REMARK    7  A    between atoms: O_10  and  C_16 
ROOT
HETATM    1  C           1     -21.199  -5.284  -6.731  0.00  0.00     0.189 C 
ENDROOT
BRANCH   1   2
HETATM    2  C           1     -21.581  -3.935  -7.328  0.00  0.00     0.074 C 
BRANCH   2   3
HETATM    3  C           1     -22.123  -4.136  -8.709  0.00  0.00    -0.056 A 
HETATM    4  C           1     -23.491  -4.325  -8.900  0.00  0.00     0.010 A 
HETATM    5  C           1     -23.997  -4.512 -10.186  0.00  0.00     0.037 A 
HETATM    6  C           1     -23.134  -4.510 -11.282  0.00  0.00     0.065 A 
HETATM    7  C           1     -21.764  -4.322 -11.091  0.00  0.00     0.037 A 
HETATM    8  C           1     -21.259  -4.135  -9.805  0.00  0.00     0.010 A 
BRANCH   6   9
HETATM    9  O           1     -23.625  -4.692 -12.532  0.00  0.00    -0.361 OA
HETATM   10  H           1     -24.590  -4.776 -12.466  0.00  0.00     0.217 HD
ENDBRANCH   6   9
ENDBRANCH   2   3
ENDBRANCH   1   2
BRANCH   1  11
HETATM   11  C           1     -19.764  -5.599  -7.073  0.00  0.00     0.197 C 
HETATM   12  O           1     -18.944  -4.671  -7.244  0.00  0.00    -0.646 OA
HETATM   13  O           1     -19.395  -6.788  -7.186  0.00  0.00    -0.646 OA
ENDBRANCH   1  11
BRANCH   1  14
HETATM   14  N           1     -21.352  -5.233  -5.289  0.00  0.00    -0.345 N 
HETATM   15  C           1     -21.753  -6.349  -4.604  0.00  0.00     0.243 C 
HETATM   16  O           1     -21.979  -7.375  -5.202  0.00  0.00    -0.272 OA
HETATM   17  H           1     -21.163  -4.374  -4.790  0.00  0.00     0.163 HD
BRANCH  15  18
HETATM   18  C           1     -21.913  -6.298  -3.105  0.00  0.00     0.332 C 
BRANCH  18  19
HETATM   19  N           1     -21.165  -7.439  -2.482  0.00  0.00    -0.071 N 
HETATM   20  H           1     -20.344  -7.685  -3.078  0.00  0.00     0.274 HD
HETATM   21  H           1     -20.834  -7.158  -1.531  0.00  0.00     0.274 HD
HETATM   22  H           1     -21.797  -8.266  -2.401  0.00  0.00     0.274 HD
ENDBRANCH  18  19
ENDBRANCH  15  18
ENDBRANCH   1  14
TORSDOF 7
ENDMDL
MODEL 6
REMARK VINA RESULT:      -6.1     13.964     16.396
REMARK  7 active torsions:
REMARK  status: ('A' for Active; 'I' for Inactive)
REMARK    1  A    between atoms: C_2  and  C_13 
REMARK    2  A    between atoms: C_2  and  C_22 
REMARK    3  A    between atoms: C_4  and  C_22 
REMARK    4  A    between atoms: C_7  and  C_11 
REMARK    5  A    between atoms: C_7  and  N_18 
REMARK    6  A    between atoms: N_9  and  C_22 
REMARK       I    between atoms: N_9  and  C_11 
REMARK    7  A    between atoms: O_10  and  C_16 
ROOT
HETATM    1  C           1     -21.092  -5.855  -5.612  0.00  0.00     0.189 C 
ENDROOT
BRANCH   1   2
HETATM    2  C           1     -20.294  -4.705  -6.211  0.00  0.00     0.074 C 
BRANCH   2   3
HETATM    3  C           1     -20.844  -4.364  -7.561  0.00  0.00    -0.056 A 
HETATM    4  C           1     -22.191  -4.030  -7.701  0.00  0.00     0.010 A 
HETATM    5  C           1     -22.704  -3.714  -8.959  0.00  0.00     0.037 A 
HETATM    6  C           1     -21.870  -3.732 -10.077  0.00  0.00     0.065 A 
HETATM    7  C           1     -20.523  -4.067  -9.937  0.00  0.00     0.037 A 
HETATM    8  C           1     -20.010  -4.383  -8.679  0.00  0.00     0.010 A 
BRANCH   6   9
HETATM    9  O           1     -22.368  -3.424 -11.299  0.00  0.00    -0.361 OA
HETATM   10  H           1     -21.620  -3.254 -11.894  0.00  0.00     0.217 HD
ENDBRANCH   6   9
ENDBRANCH   2   3
ENDBRANCH   1   2
BRANCH   1  11
HETATM   11  C           1     -20.553  -7.166  -6.129  0.00  0.00     0.197 C 
HETATM   12  O           1     -19.405  -7.219  -6.622  0.00  0.00    -0.646 OA
HETATM   13  O           1     -21.254  -8.199  -6.065  0.00  0.00    -0.646 OA
ENDBRANCH   1  11
BRANCH   1  14
HETATM   14  N           1     -20.976  -5.822  -4.166  0.00  0.00    -0.345 N 
HETATM   15  C           1     -22.062  -6.116  -3.385  0.00  0.00     0.243 C 
HETATM   16  O           1     -23.116  -6.403  -3.901  0.00  0.00    -0.272 OA
HETATM   17  H           1     -20.093  -5.580  -3.735  0.00  0.00     0.163 HD
BRANCH  15  18
HETATM   18  C           1     -21.942  -6.081  -1.882  0.00  0.00     0.332 C 
BRANCH  18  19
HETATM   19  N           1     -21.990  -7.479  -1.342  0.00  0.00    -0.071 N 
HETATM   20  H           1     -22.980  -7.740  -1.138  0.00  0.00     0.274 HD
HETATM   21  H           1     -21.594  -8.139  -2.050  0.00  0.00     0.274 HD
HETATM   22  H           1     -21.427  -7.533  -0.464  0.00  0.00     0.274 HD
ENDBRANCH  18  19
ENDBRANCH  15  18
ENDBRANCH   1  14
TORSDOF 7
ENDMDL
MODEL 7
REMARK VINA RESULT:      -5.9     15.376     17.125
REMARK  7 active torsions:
REMARK  status: ('A' for Active; 'I' for Inactive)
REMARK    1  A    between atoms: C_2  and  C_13 
REMARK    2  A    between atoms: C_2  and  C_22 
REMARK    3  A    between atoms: C_4  and  C_22 
REMARK    4  A    between atoms: C_7  and  C_11 
REMARK    5  A    between atoms: C_7  and  N_18 
REMARK    6  A    between atoms: N_9  and  C_22 
REMARK       I    between atoms: N_9  and  C_11 
REMARK    7  A    between atoms: O_10  and  C_16 
ROOT
HETATM    1  C           1     -21.430  -7.255  -4.079  0.00  0.00     0.189 C 
ENDROOT
BRANCH   1   2
HETATM    2  C           1     -22.406  -6.454  -4.932  0.00  0.00     0.074 C 
BRANCH   2   3
HETATM    3  C           1     -21.644  -5.624  -5.918  0.00  0.00    -0.056 A 
HETATM    4  C           1     -22.328  -4.889  -6.886  0.00  0.00     0.010 A 
HETATM    5  C           1     -21.618  -4.117  -7.805  0.00  0.00     0.037 A 
HETATM    6  C           1     -20.225  -4.079  -7.756  0.00  0.00     0.065 A 
HETATM    7  C           1     -19.541  -4.816  -6.789  0.00  0.00     0.037 A 
HETATM    8  C           1     -20.250  -5.588  -5.869  0.00  0.00     0.010 A 
BRANCH   6   9
HETATM    9  O           1     -19.535  -3.329  -8.650  0.00  0.00    -0.361 OA
HETATM   10  H           1     -20.067  -3.263  -9.460  0.00  0.00     0.217 HD
ENDBRANCH   6   9
ENDBRANCH   2   3
ENDBRANCH   1   2
BRANCH   1  11
HETATM   11  C           1     -21.594  -6.871  -2.630  0.00  0.00     0.197 C 
HETATM   12  O           1     -20.935  -7.462  -1.747  0.00  0.00    -0.646 OA
HETATM   13  O           1     -22.391  -5.961  -2.311  0.00  0.00    -0.646 OA
ENDBRANCH   1  11
BRANCH   1  14
HETATM   14  N           1     -21.702  -8.671  -4.237  0.00  0.00    -0.345 N 
HETATM   15  C           1     -20.865  -9.448  -4.993  0.00  0.00     0.243 C 
HETATM   16  O           1     -19.902  -8.953  -5.528  0.00  0.00    -0.272 OA
HETATM   17  H           1     -22.510  -9.085  -3.790  0.00  0.00     0.163 HD
BRANCH  15  18
HETATM   18  C           1     -21.147 -10.921  -5.158  0.00  0.00     0.332 C 
BRANCH  18  19
HETATM   19  N           1     -20.925 -11.317  -6.588  0.00  0.00    -0.071 N 
HETATM   20  H           1     -21.374 -12.243  -6.767  0.00  0.00     0.274 HD
HETATM   21  H           1     -21.347 -10.597  -7.217  0.00  0.00     0.274 HD
HETATM   22  H           1     -19.899 -11.385  -6.775  0.00  0.00     0.274 HD
ENDBRANCH  18  19
ENDBRANCH  15  18
ENDBRANCH   1  14
TORSDOF 7
ENDMDL
MODEL 8
REMARK VINA RESULT:      -5.8     16.175     17.731
REMARK  7 active torsions:
REMARK  status: ('A' for Active; 'I' for Inactive)
REMARK    1  A    between atoms: C_2  and  C_13 
REMARK    2  A    between atoms: C_2  and  C_22 
REMARK    3  A    between atoms: C_4  and  C_22 
REMARK    4  A    between atoms: C_7  and  C_11 
REMARK    5  A    between atoms: C_7  and  N_18 
REMARK    6  A    between atoms: N_9  and  C_22 
REMARK       I    between atoms: N_9  and  C_11 
REMARK    7  A    between atoms: O_10  and  C_16 
ROOT
HETATM    1  C           1     -20.053  -7.717  -4.948  0.00  0.00     0.189 C 
ENDROOT
BRANCH   1   2
HETATM    2  C           1     -21.447  -8.221  -4.599  0.00  0.00     0.074 C 
BRANCH   2   3
HETATM    3  C           1     -21.675  -8.082  -3.125  0.00  0.00    -0.056 A 
HETATM    4  C           1     -21.661  -9.211  -2.308  0.00  0.00     0.010 A 
HETATM    5  C           1     -21.874  -9.082  -0.936  0.00  0.00     0.037 A 
HETATM    6  C           1     -22.101  -7.822  -0.381  0.00  0.00     0.065 A 
HETATM    7  C           1     -22.115  -6.692  -1.199  0.00  0.00     0.037 A 
HETATM    8  C           1     -21.903  -6.822  -2.571  0.00  0.00     0.010 A 
BRANCH   6   9
HETATM    9  O           1     -22.308  -7.697   0.952  0.00  0.00    -0.361 OA
HETATM   10  H           1     -22.720  -8.517   1.271  0.00  0.00     0.217 HD
ENDBRANCH   6   9
ENDBRANCH   2   3
ENDBRANCH   1   2
BRANCH   1  11
HETATM   11  C           1     -19.090  -8.877  -4.978  0.00  0.00     0.197 C 
HETATM   12  O           1     -18.389  -9.133  -3.975  0.00  0.00    -0.646 OA
HETATM   13  O           1     -18.991  -9.582  -6.006  0.00  0.00    -0.646 OA
ENDBRANCH   1  11
BRANCH   1  14
HETATM   14  N           1     -20.084  -7.081  -6.252  0.00  0.00    -0.345 N 
HETATM   15  C           1     -20.202  -5.720  -6.346  0.00  0.00     0.243 C 
HETATM   16  O           1     -20.281  -5.050  -5.344  0.00  0.00    -0.272 OA
HETATM   17  H           1     -20.018  -7.642  -7.091  0.00  0.00     0.163 HD
BRANCH  15  18
HETATM   18  C           1     -20.233  -5.057  -7.701  0.00  0.00     0.332 C 
BRANCH  18  19
HETATM   19  N           1     -20.980  -3.760  -7.608  0.00  0.00    -0.071 N 
HETATM   20  H           1     -21.995  -3.929  -7.787  0.00  0.00     0.274 HD
HETATM   21  H           1     -20.858  -3.356  -6.652  0.00  0.00     0.274 HD
HETATM   22  H           1     -20.607  -3.092  -8.319  0.00  0.00     0.274 HD
ENDBRANCH  18  19
ENDBRANCH  15  18
ENDBRANCH   1  14
TORSDOF 7
ENDMDL
MODEL 9
REMARK VINA RESULT:      -5.6     17.402     18.697
REMARK  7 active torsions:
REMARK  status: ('A' for Active; 'I' for Inactive)
REMARK    1  A    between atoms: C_2  and  C_13 
REMARK    2  A    between atoms: C_2  and  C_22 
REMARK    3  A    between atoms: C_4  and  C_22 
REMARK    4  A    between atoms: C_7  and  C_11 
REMARK    5  A    between atoms: C_7  and  N_18 
REMARK    6  A    between atoms: N_9  and  C_22 
REMARK       I    between atoms: N_9  and  C_11 
REMARK    7  A    between atoms: O_10  and  C_16 
ROOT
HETATM    1  C           1     -21.606  -8.156  -1.827  0.00  0.00     0.189 C 
ENDROOT
BRANCH   1   2
HETATM    2  C           1     -21.126  -8.646  -0.467  0.00  0.00     0.074 C 
BRANCH   2   3
HETATM    3  C           1     -21.787  -9.950  -0.143  0.00  0.00    -0.056 A 
HETATM    4  C           1     -23.145 -10.126  -0.405  0.00  0.00     0.010 A 
HETATM    5  C           1     -23.761 -11.340  -0.102  0.00  0.00     0.037 A 
HETATM    6  C           1     -23.019 -12.378   0.461  0.00  0.00     0.065 A 
HETATM    7  C           1     -21.660 -12.201   0.724  0.00  0.00     0.037 A 
HETATM    8  C           1     -21.044 -10.987   0.422  0.00  0.00     0.010 A 
BRANCH   6   9
HETATM    9  O           1     -23.617 -13.558   0.755  0.00  0.00    -0.361 OA
HETATM   10  H           1     -22.997 -14.086   1.284  0.00  0.00     0.217 HD
ENDBRANCH   6   9
ENDBRANCH   2   3
ENDBRANCH   1   2
BRANCH   1  11
HETATM   11  C           1     -22.158  -6.758  -1.694  0.00  0.00     0.197 C 
HETATM   12  O           1     -22.152  -5.987  -2.678  0.00  0.00    -0.646 OA
HETATM   13  O           1     -22.620  -6.371  -0.599  0.00  0.00    -0.646 OA
ENDBRANCH   1  11
BRANCH   1  14
HETATM   14  N           1     -20.493  -8.149  -2.758  0.00  0.00    -0.345 N 
HETATM   15  C           1     -20.592  -8.821  -3.947  0.00  0.00     0.243 C 
HETATM   16  O           1     -21.606  -9.418  -4.221  0.00  0.00    -0.272 OA
HETATM   17  H           1     -19.644  -7.649  -2.528  0.00  0.00     0.163 HD
BRANCH  15  18
HETATM   18  C           1     -19.435  -8.814  -4.915  0.00  0.00     0.332 C 
BRANCH  18  19
HETATM   19  N           1     -19.694  -7.810  -5.999  0.00  0.00    -0.071 N 
HETATM   20  H           1     -19.850  -6.870  -5.573  0.00  0.00     0.274 HD
HETATM   21  H           1     -18.869  -7.770  -6.640  0.00  0.00     0.274 HD
HETATM   22  H           1     -20.542  -8.093  -6.540  0.00  0.00     0.274 HD
ENDBRANCH  18  19
ENDBRANCH  15  18
ENDBRANCH   1  14
TORSDOF 7
ENDMDL
