MODEL 1
REMARK VINA RESULT:      -9.8      0.000      0.000
REMARK  11 active torsions:
REMARK  status: ('A' for Active; 'I' for Inactive)
REMARK    1  A    between atoms: N_2  and  C_26 
REMARK       I    between atoms: N_2  and  C_3 
REMARK    2  A    between atoms: C_3  and  C_4 
REMARK    3  A    between atoms: C_4  and  C_5 
REMARK    4  A    between atoms: C_4  and  N_17 
REMARK    5  A    between atoms: C_5  and  C_6 
REMARK    6  A    between atoms: C_9  and  O_10 
REMARK    7  A    between atoms: O_10  and  P_11 
REMARK    8  A    between atoms: P_11  and  O_12 
REMARK    9  A    between atoms: C_24  and  C_26 
REMARK   10  A    between atoms: C_26  and  C_27 
REMARK   11  A    between atoms: C_27  and  C_28 
ROOT
HETATM    1  N           1     -20.759  -7.451  -6.152  0.00  0.00    -0.344 N 
HETATM    2  C           1     -20.146  -6.354  -6.694  0.00  0.00     0.249 C 
HETATM    3  O           1     -19.162  -6.490  -7.382  0.00  0.00    -0.271 OA
HETATM    4  H           1     -21.493  -7.926  -6.664  0.00  0.00     0.163 HD
ENDROOT
BRANCH   2   5
HETATM    5  C           1     -20.701  -4.974  -6.435  0.00  0.00     0.278 C 
BRANCH   5   6
HETATM    6  C           1     -20.231  -4.024  -7.528  0.00  0.00     0.081 C 
BRANCH   6   7
HETATM    7  C           1     -21.101  -4.184  -8.737  0.00  0.00    -0.056 A 
HETATM    8  C           1     -22.489  -4.151  -8.605  0.00  0.00     0.010 A 
HETATM    9  C           1     -23.300  -4.300  -9.731  0.00  0.00     0.038 A 
HETATM   10  C           1     -22.722  -4.483 -10.987  0.00  0.00     0.081 A 
HETATM   11  C           1     -21.334  -4.517 -11.118  0.00  0.00     0.038 A 
HETATM   12  C           1     -20.523  -4.367  -9.992  0.00  0.00     0.010 A 
BRANCH  10  13
HETATM   13  O           1     -23.509  -4.629 -12.081  0.00  0.00    -0.247 OA
BRANCH  13  14
HETATM   14  P           1     -23.912  -3.302 -12.908  0.00  0.00     0.411 P 
HETATM   15  O           1     -25.304  -2.921 -12.580  0.00  0.00    -0.624 OA
HETATM   16  O           1     -22.997  -2.197 -12.542  0.00  0.00    -0.624 OA
BRANCH  14  17
HETATM   17  O           1     -23.793  -3.597 -14.491  0.00  0.00    -0.300 OA
HETATM   18  H           1     -24.619  -3.982 -14.730  0.00  0.00     0.223 HD
ENDBRANCH  14  17
ENDBRANCH  13  14
ENDBRANCH  10  13
ENDBRANCH   6   7
ENDBRANCH   5   6
BRANCH   5  19
HETATM   19  N           1     -20.213  -4.483  -5.104  0.00  0.00    -0.066 N 
HETATM   20  H           1     -19.169  -4.521  -5.080  0.00  0.00     0.275 HD
HETATM   21  H           1     -20.528  -3.497  -4.960  0.00  0.00     0.275 HD
HETATM   22  H           1     -20.602  -5.088  -4.345  0.00  0.00     0.275 HD
ENDBRANCH   5  19
ENDBRANCH   2   5
BRANCH   1  23
HETATM   23  C           1     -20.359  -7.933  -4.845  0.00  0.00     0.190 C 
BRANCH  23  24
HETATM   24  C           1     -19.271  -8.967  -5.002  0.00  0.00     0.197 C 
HETATM   25  O           1     -18.380  -9.073  -4.133  0.00  0.00    -0.646 OA
HETATM   26  O           1     -19.261  -9.718  -6.001  0.00  0.00    -0.646 OA
ENDBRANCH  23  24
BRANCH  23  27
HETATM   27  C           1     -21.558  -8.558  -4.145  0.00  0.00     0.077 C 
BRANCH  27  28
HETATM   28  C           1     -21.753  -7.911  -2.811  0.00  0.00    -0.028 A 
HETATM   29  C           1     -22.189  -6.623  -2.589  0.00  0.00     0.096 A 
HETATM   30  N           1     -22.230  -6.423  -1.235  0.00  0.00    -0.365 N 
HETATM   31  H           1     -22.526  -5.529  -0.770  0.00  0.00     0.165 HD
HETATM   32  C           1     -21.829  -7.561  -0.572  0.00  0.00     0.042 A 
HETATM   33  C           1     -21.714  -7.816   0.800  0.00  0.00     0.030 A 
HETATM   34  C           1     -21.522  -8.514  -1.543  0.00  0.00    -0.002 A 
HETATM   35  C           1     -21.273  -9.085   1.186  0.00  0.00     0.002 A 
HETATM   36  C           1     -20.960 -10.056   0.238  0.00  0.00     0.001 A 
HETATM   37  C           1     -21.080  -9.785  -1.130  0.00  0.00     0.014 A 
ENDBRANCH  27  28
ENDBRANCH  23  27
ENDBRANCH   1  23
TORSDOF 11
ENDMDL
MODEL 2
REMARK VINA RESULT:      -9.2      1.042      2.008
REMARK  11 active torsions:
REMARK  status: ('A' for Active; 'I' for Inactive)
REMARK    1  A    between atoms: N_2  and  C_26 
REMARK       I    between atoms: N_2  and  C_3 
REMARK    2  A    between atoms: C_3  and  C_4 
REMARK    3  A    between atoms: C_4  and  C_5 
REMARK    4  A    between atoms: C_4  and  N_17 
REMARK    5  A    between atoms: C_5  and  C_6 
REMARK    6  A    between atoms: C_9  and  O_10 
REMARK    7  A    between atoms: O_10  and  P_11 
REMARK    8  A    between atoms: P_11  and  O_12 
REMARK    9  A    between atoms: C_24  and  C_26 
REMARK   10  A    between atoms: C_26  and  C_27 
REMARK   11  A    between atoms: C_27  and  C_28 
ROOT
HETATM    1  N           1     -21.022  -7.620  -6.148  0.00  0.00    -0.344 N 
HETATM    2  C           1     -20.365  -6.501  -6.586  0.00  0.00     0.249 C 
HETATM    3  O           1     -19.369  -6.612  -7.260  0.00  0.00    -0.271 OA
HETATM    4  H           1     -21.757  -8.029  -6.712  0.00  0.00     0.163 HD
ENDROOT
BRANCH   2   5
HETATM    5  C           1     -20.886  -5.131  -6.227  0.00  0.00     0.278 C 
BRANCH   5   6
HETATM    6  C           1     -20.432  -4.125  -7.276  0.00  0.00     0.081 C 
BRANCH   6   7
HETATM    7  C           1     -21.300  -4.244  -8.491  0.00  0.00    -0.056 A 
HETATM    8  C           1     -20.720  -4.397  -9.750  0.00  0.00     0.010 A 
HETATM    9  C           1     -21.529  -4.508 -10.881  0.00  0.00     0.038 A 
HETATM   10  C           1     -22.917  -4.465 -10.753  0.00  0.00     0.081 A 
HETATM   11  C           1     -23.497  -4.310  -9.494  0.00  0.00     0.038 A 
HETATM   12  C           1     -22.688  -4.200  -8.363  0.00  0.00     0.010 A 
BRANCH  10  13
HETATM   13  O           1     -23.703  -4.571 -11.852  0.00  0.00    -0.247 OA
BRANCH  13  14
HETATM   14  P           1     -23.997  -3.233 -12.706  0.00  0.00     0.411 P 
HETATM   15  O           1     -23.682  -3.479 -14.131  0.00  0.00    -0.624 OA
HETATM   16  O           1     -25.425  -2.868 -12.572  0.00  0.00    -0.624 OA
BRANCH  14  17
HETATM   17  O           1     -23.078  -2.026 -12.152  0.00  0.00    -0.300 OA
HETATM   18  H           1     -23.624  -1.568 -11.536  0.00  0.00     0.223 HD
ENDBRANCH  14  17
ENDBRANCH  13  14
ENDBRANCH  10  13
ENDBRANCH   6   7
ENDBRANCH   5   6
BRANCH   5  19
HETATM   19  N           1     -20.349  -4.729  -4.885  0.00  0.00    -0.066 N 
HETATM   20  H           1     -20.085  -5.584  -4.346  0.00  0.00     0.275 HD
HETATM   21  H           1     -19.506  -4.125  -5.015  0.00  0.00     0.275 HD
HETATM   22  H           1     -21.081  -4.199  -4.361  0.00  0.00     0.275 HD
ENDBRANCH   5  19
ENDBRANCH   2   5
BRANCH   1  23
HETATM   23  C           1     -20.667  -8.217  -4.875  0.00  0.00     0.190 C 
BRANCH  23  24
HETATM   24  C           1     -19.411  -9.038  -5.038  0.00  0.00     0.197 C 
HETATM   25  O           1     -19.316  -9.854  -5.979  0.00  0.00    -0.646 OA
HETATM   26  O           1     -18.467  -8.901  -4.231  0.00  0.00    -0.646 OA
ENDBRANCH  23  24
BRANCH  23  27
HETATM   27  C           1     -21.803  -9.115  -4.402  0.00  0.00     0.077 C 
BRANCH  27  28
HETATM   28  C           1     -21.489  -9.641  -3.037  0.00  0.00    -0.028 A 
HETATM   29  C           1     -20.975 -10.884  -2.745  0.00  0.00     0.096 A 
HETATM   30  N           1     -20.835 -10.971  -1.385  0.00  0.00    -0.365 N 
HETATM   31  H           1     -20.464 -11.809  -0.872  0.00  0.00     0.165 HD
HETATM   32  C           1     -21.250  -9.802  -0.789  0.00  0.00     0.042 A 
HETATM   33  C           1     -21.288  -9.440   0.564  0.00  0.00     0.030 A 
HETATM   34  C           1     -21.668  -8.946  -1.809  0.00  0.00    -0.002 A 
HETATM   35  C           1     -21.767  -8.165   0.878  0.00  0.00     0.002 A 
HETATM   36  C           1     -22.190  -7.290  -0.120  0.00  0.00     0.001 A 
HETATM   37  C           1     -22.146  -7.667  -1.467  0.00  0.00     0.014 A 
ENDBRANCH  27  28
ENDBRANCH  23  27
ENDBRANCH   1  23
TORSDOF 11
ENDMDL
MODEL 3
REMARK VINA RESULT:      -9.0      2.529      4.194
REMARK  11 active torsions:
REMARK  status: ('A' for Active; 'I' for Inactive)
REMARK    1  A    between atoms: N_2  and  C_26 
REMARK       I    between atoms: N_2  and  C_3 
REMARK    2  A    between atoms: C_3  and  C_4 
REMARK    3  A    between atoms: C_4  and  C_5 
REMARK    4  A    between atoms: C_4  and  N_17 
REMARK    5  A    between atoms: C_5  and  C_6 
REMARK    6  A    between atoms: C_9  and  O_10 
REMARK    7  A    between atoms: O_10  and  P_11 
REMARK    8  A    between atoms: P_11  and  O_12 
REMARK    9  A    between atoms: C_24  and  C_26 
REMARK   10  A    between atoms: C_26  and  C_27 
REMARK   11  A    between atoms: C_27  and  C_28 
ROOT
HETATM    1  N           1     -21.303  -6.398  -3.096  0.00  0.00    -0.344 N 
HETATM    2  C           1     -21.624  -6.274  -4.421  0.00  0.00     0.249 C 
HETATM    3  O           1     -22.776  -6.122  -4.751  0.00  0.00    -0.271 OA
HETATM    4  H           1     -21.087  -5.575  -2.548  0.00  0.00     0.163 HD
ENDROOT
BRANCH   2   5
HETATM    5  C           1     -20.538  -6.323  -5.468  0.00  0.00     0.278 C 
BRANCH   5   6
HETATM    6  C           1     -20.110  -4.906  -5.824  0.00  0.00     0.081 C 
BRANCH   6   7
HETATM    7  C           1     -20.679  -4.532  -7.158  0.00  0.00    -0.056 A 
HETATM    8  C           1     -19.943  -4.766  -8.320  0.00  0.00     0.010 A 
HETATM    9  C           1     -20.473  -4.418  -9.562  0.00  0.00     0.038 A 
HETATM   10  C           1     -21.739  -3.837  -9.643  0.00  0.00     0.081 A 
HETATM   11  C           1     -22.474  -3.603  -8.481  0.00  0.00     0.038 A 
HETATM   12  C           1     -21.944  -3.951  -7.238  0.00  0.00     0.010 A 
BRANCH  10  13
HETATM   13  O           1     -22.253  -3.498 -10.850  0.00  0.00    -0.247 OA
BRANCH  13  14
HETATM   14  P           1     -23.673  -4.138 -11.276  0.00  0.00     0.411 P 
HETATM   15  O           1     -23.882  -5.406 -10.542  0.00  0.00    -0.624 OA
HETATM   16  O           1     -24.760  -3.190 -10.945  0.00  0.00    -0.624 OA
BRANCH  14  17
HETATM   17  O           1     -23.678  -4.429 -12.865  0.00  0.00    -0.300 OA
HETATM   18  H           1     -24.511  -4.835 -13.035  0.00  0.00     0.223 HD
ENDBRANCH  14  17
ENDBRANCH  13  14
ENDBRANCH  10  13
ENDBRANCH   6   7
ENDBRANCH   5   6
BRANCH   5  19
HETATM   19  N           1     -21.062  -7.009  -6.696  0.00  0.00    -0.066 N 
HETATM   20  H           1     -20.359  -7.706  -7.032  0.00  0.00     0.275 HD
HETATM   21  H           1     -21.955  -7.500  -6.466  0.00  0.00     0.275 HD
HETATM   22  H           1     -21.236  -6.301  -7.444  0.00  0.00     0.275 HD
ENDBRANCH   5  19
ENDBRANCH   2   5
BRANCH   1  23
HETATM   23  C           1     -21.272  -7.709  -2.478  0.00  0.00     0.190 C 
BRANCH  23  24
HETATM   24  C           1     -22.004  -7.661  -1.159  0.00  0.00     0.197 C 
HETATM   25  O           1     -22.757  -6.699  -0.898  0.00  0.00    -0.646 OA
HETATM   26  O           1     -21.857  -8.583  -0.329  0.00  0.00    -0.646 OA
ENDBRANCH  23  24
BRANCH  23  27
HETATM   27  C           1     -19.826  -8.124  -2.242  0.00  0.00     0.077 C 
BRANCH  27  28
HETATM   28  C           1     -19.423  -9.139  -3.265  0.00  0.00    -0.028 A 
HETATM   29  C           1     -20.257  -9.747  -4.177  0.00  0.00     0.096 A 
HETATM   30  N           1     -19.500 -10.607  -4.928  0.00  0.00    -0.365 N 
HETATM   31  H           1     -19.870 -11.210  -5.704  0.00  0.00     0.165 HD
HETATM   32  C           1     -18.186 -10.567  -4.518  0.00  0.00     0.042 A 
HETATM   33  C           1     -17.069 -11.267  -4.991  0.00  0.00     0.030 A 
HETATM   34  C           1     -18.111  -9.649  -3.470  0.00  0.00    -0.002 A 
HETATM   35  C           1     -15.841 -11.018  -4.371  0.00  0.00     0.002 A 
HETATM   36  C           1     -15.737 -10.106  -3.323  0.00  0.00     0.001 A 
HETATM   37  C           1     -16.864  -9.414  -2.863  0.00  0.00     0.014 A 
ENDBRANCH  27  28
ENDBRANCH  23  27
ENDBRANCH   1  23
TORSDOF 11
ENDMDL
MODEL 4
REMARK VINA RESULT:      -8.9      2.249      2.839
REMARK  11 active torsions:
REMARK  status: ('A' for Active; 'I' for Inactive)
REMARK    1  A    between atoms: N_2  and  C_26 
REMARK       I    between atoms: N_2  and  C_3 
REMARK    2  A    between atoms: C_3  and  C_4 
REMARK    3  A    between atoms: C_4  and  C_5 
REMARK    4  A    between atoms: C_4  and  N_17 
REMARK    5  A    between atoms: C_5  and  C_6 
REMARK    6  A    between atoms: C_9  and  O_10 
REMARK    7  A    between atoms: O_10  and  P_11 
REMARK    8  A    between atoms: P_11  and  O_12 
REMARK    9  A    between atoms: C_24  and  C_26 
REMARK   10  A    between atoms: C_26  and  C_27 
REMARK   11  A    between atoms: C_27  and  C_28 
ROOT
HETATM    1  N           1     -20.532  -7.000  -5.087  0.00  0.00    -0.344 N 
HETATM    2  C           1     -20.829  -5.711  -5.440  0.00  0.00     0.249 C 
HETATM    3  O           1     -20.283  -4.790  -4.879  0.00  0.00    -0.271 OA
HETATM    4  H           1     -19.781  -7.492  -5.554  0.00  0.00     0.163 HD
ENDROOT
BRANCH   2   5
HETATM    5  C           1     -21.836  -5.439  -6.531  0.00  0.00     0.278 C 
BRANCH   5   6
HETATM    6  C           1     -21.465  -4.152  -7.255  0.00  0.00     0.081 C 
BRANCH   6   7
HETATM    7  C           1     -21.977  -4.206  -8.662  0.00  0.00    -0.056 A 
HETATM    8  C           1     -23.347  -4.120  -8.909  0.00  0.00     0.010 A 
HETATM    9  C           1     -23.824  -4.170 -10.219  0.00  0.00     0.038 A 
HETATM   10  C           1     -22.930  -4.306 -11.281  0.00  0.00     0.081 A 
HETATM   11  C           1     -21.560  -4.392 -11.034  0.00  0.00     0.038 A 
HETATM   12  C           1     -21.084  -4.342  -9.724  0.00  0.00     0.010 A 
BRANCH  10  13
HETATM   13  O           1     -23.393  -4.355 -12.554  0.00  0.00    -0.247 OA
BRANCH  13  14
HETATM   14  P           1     -23.958  -2.991 -13.209  0.00  0.00     0.411 P 
HETATM   15  O           1     -23.821  -3.059 -14.681  0.00  0.00    -0.624 OA
HETATM   16  O           1     -25.385  -2.827 -12.852  0.00  0.00    -0.624 OA
BRANCH  14  17
HETATM   17  O           1     -23.114  -1.734 -12.647  0.00  0.00    -0.300 OA
HETATM   18  H           1     -23.400  -1.628 -11.756  0.00  0.00     0.223 HD
ENDBRANCH  14  17
ENDBRANCH  13  14
ENDBRANCH  10  13
ENDBRANCH   6   7
ENDBRANCH   5   6
BRANCH   5  19
HETATM   19  N           1     -23.201  -5.295  -5.925  0.00  0.00    -0.066 N 
HETATM   20  H           1     -23.537  -6.230  -5.600  0.00  0.00     0.275 HD
HETATM   21  H           1     -23.153  -4.641  -5.111  0.00  0.00     0.275 HD
HETATM   22  H           1     -23.862  -4.916  -6.640  0.00  0.00     0.275 HD
ENDBRANCH   5  19
ENDBRANCH   2   5
BRANCH   1  23
HETATM   23  C           1     -21.295  -7.659  -4.045  0.00  0.00     0.190 C 
BRANCH  23  24
HETATM   24  C           1     -21.546  -6.690  -2.916  0.00  0.00     0.197 C 
HETATM   25  O           1     -20.705  -6.568  -2.000  0.00  0.00    -0.646 OA
HETATM   26  O           1     -22.595  -6.011  -2.896  0.00  0.00    -0.646 OA
ENDBRANCH  23  24
BRANCH  23  27
HETATM   27  C           1     -20.511  -8.856  -3.523  0.00  0.00     0.077 C 
BRANCH  27  28
HETATM   28  C           1     -21.448  -9.994  -3.266  0.00  0.00    -0.028 A 
HETATM   29  C           1     -21.694 -11.051  -4.113  0.00  0.00     0.096 A 
HETATM   30  N           1     -22.610 -11.869  -3.507  0.00  0.00    -0.365 N 
HETATM   31  H           1     -22.988 -12.757  -3.921  0.00  0.00     0.165 HD
HETATM   32  C           1     -22.963 -11.360  -2.277  0.00  0.00     0.042 A 
HETATM   33  C           1     -23.856 -11.852  -1.317  0.00  0.00     0.030 A 
HETATM   34  C           1     -22.244 -10.178  -2.101  0.00  0.00    -0.002 A 
HETATM   35  C           1     -24.015 -11.110  -0.143  0.00  0.00     0.002 A 
HETATM   36  C           1     -23.310  -9.926   0.060  0.00  0.00     0.001 A 
HETATM   37  C           1     -22.421  -9.448  -0.911  0.00  0.00     0.014 A 
ENDBRANCH  27  28
ENDBRANCH  23  27
ENDBRANCH   1  23
TORSDOF 11
ENDMDL
MODEL 5
REMARK VINA RESULT:      -8.3      2.198      3.700
REMARK  11 active torsions:
REMARK  status: ('A' for Active; 'I' for Inactive)
REMARK    1  A    between atoms: N_2  and  C_26 
REMARK       I    between atoms: N_2  and  C_3 
REMARK    2  A    between atoms: C_3  and  C_4 
REMARK    3  A    between atoms: C_4  and  C_5 
REMARK    4  A    between atoms: C_4  and  N_17 
REMARK    5  A    between atoms: C_5  and  C_6 
REMARK    6  A    between atoms: C_9  and  O_10 
REMARK    7  A    between atoms: O_10  and  P_11 
REMARK    8  A    between atoms: P_11  and  O_12 
REMARK    9  A    between atoms: C_24  and  C_26 
REMARK   10  A    between atoms: C_26  and  C_27 
REMARK   11  A    between atoms: C_27  and  C_28 
ROOT
HETATM    1  N           1     -20.888  -7.216  -4.786  0.00  0.00    -0.344 N 
HETATM    2  C           1     -21.055  -5.930  -5.226  0.00  0.00     0.249 C 
HETATM    3  O           1     -20.436  -5.030  -4.708  0.00  0.00    -0.271 OA
HETATM    4  H           1     -20.178  -7.805  -5.202  0.00  0.00     0.163 HD
ENDROOT
BRANCH   2   5
HETATM    5  C           1     -22.009  -5.636  -6.358  0.00  0.00     0.278 C 
BRANCH   5   6
HETATM    6  C           1     -21.591  -4.348  -7.054  0.00  0.00     0.081 C 
BRANCH   6   7
HETATM    7  C           1     -22.061  -4.373  -8.475  0.00  0.00    -0.056 A 
HETATM    8  C           1     -23.426  -4.327  -8.758  0.00  0.00     0.010 A 
HETATM    9  C           1     -23.865  -4.351 -10.082  0.00  0.00     0.038 A 
HETATM   10  C           1     -22.938  -4.420 -11.123  0.00  0.00     0.081 A 
HETATM   11  C           1     -21.573  -4.466 -10.839  0.00  0.00     0.038 A 
HETATM   12  C           1     -21.135  -4.442  -9.515  0.00  0.00     0.010 A 
BRANCH  10  13
HETATM   13  O           1     -23.364  -4.443 -12.409  0.00  0.00    -0.247 OA
BRANCH  13  14
HETATM   14  P           1     -23.899  -3.064 -13.056  0.00  0.00     0.411 P 
HETATM   15  O           1     -23.738  -3.115 -14.527  0.00  0.00    -0.624 OA
HETATM   16  O           1     -25.329  -2.885 -12.721  0.00  0.00    -0.624 OA
BRANCH  14  17
HETATM   17  O           1     -23.048  -1.825 -12.464  0.00  0.00    -0.300 OA
HETATM   18  H           1     -23.526  -1.056 -12.723  0.00  0.00     0.223 HD
ENDBRANCH  14  17
ENDBRANCH  13  14
ENDBRANCH  10  13
ENDBRANCH   6   7
ENDBRANCH   5   6
BRANCH   5  19
HETATM   19  N           1     -23.398  -5.480  -5.811  0.00  0.00    -0.066 N 
HETATM   20  H           1     -23.509  -6.085  -4.966  0.00  0.00     0.275 HD
HETATM   21  H           1     -23.557  -4.481  -5.547  0.00  0.00     0.275 HD
HETATM   22  H           1     -24.093  -5.764  -6.538  0.00  0.00     0.275 HD
ENDBRANCH   5  19
ENDBRANCH   2   5
BRANCH   1  23
HETATM   23  C           1     -21.731  -7.733  -3.726  0.00  0.00     0.190 C 
BRANCH  23  24
HETATM   24  C           1     -21.547  -6.897  -2.483  0.00  0.00     0.197 C 
HETATM   25  O           1     -20.588  -7.123  -1.715  0.00  0.00    -0.646 OA
HETATM   26  O           1     -22.354  -5.980  -2.222  0.00  0.00    -0.646 OA
ENDBRANCH  23  24
BRANCH  23  27
HETATM   27  C           1     -21.344  -9.177  -3.430  0.00  0.00     0.077 C 
BRANCH  27  28
HETATM   28  C           1     -20.229  -9.592  -4.338  0.00  0.00    -0.028 A 
HETATM   29  C           1     -20.361 -10.035  -5.635  0.00  0.00     0.096 A 
HETATM   30  N           1     -19.107 -10.311  -6.112  0.00  0.00    -0.365 N 
HETATM   31  H           1     -18.897 -10.668  -7.077  0.00  0.00     0.165 HD
HETATM   32  C           1     -18.162 -10.054  -5.144  0.00  0.00     0.042 A 
HETATM   33  C           1     -16.768 -10.188  -5.182  0.00  0.00     0.030 A 
HETATM   34  C           1     -18.844  -9.599  -4.016  0.00  0.00    -0.002 A 
HETATM   35  C           1     -16.055  -9.846  -4.030  0.00  0.00     0.002 A 
HETATM   36  C           1     -16.710  -9.389  -2.888  0.00  0.00     0.001 A 
HETATM   37  C           1     -18.103  -9.260  -2.867  0.00  0.00     0.014 A 
ENDBRANCH  27  28
ENDBRANCH  23  27
ENDBRANCH   1  23
TORSDOF 11
ENDMDL
MODEL 6
REMARK VINA RESULT:      -8.2      1.723      2.163
REMARK  11 active torsions:
REMARK  status: ('A' for Active; 'I' for Inactive)
REMARK    1  A    between atoms: N_2  and  C_26 
REMARK       I    between atoms: N_2  and  C_3 
REMARK    2  A    between atoms: C_3  and  C_4 
REMARK    3  A    between atoms: C_4  and  C_5 
REMARK    4  A    between atoms: C_4  and  N_17 
REMARK    5  A    between atoms: C_5  and  C_6 
REMARK    6  A    between atoms: C_9  and  O_10 
REMARK    7  A    between atoms: O_10  and  P_11 
REMARK    8  A    between atoms: P_11  and  O_12 
REMARK    9  A    between atoms: C_24  and  C_26 
REMARK   10  A    between atoms: C_26  and  C_27 
REMARK   11  A    between atoms: C_27  and  C_28 
ROOT
HETATM    1  N           1     -21.121  -6.785  -3.902  0.00  0.00    -0.344 N 
HETATM    2  C           1     -21.760  -6.178  -4.950  0.00  0.00     0.249 C 
HETATM    3  O           1     -22.895  -6.487  -5.225  0.00  0.00    -0.271 OA
HETATM    4  H           1     -21.186  -6.389  -2.972  0.00  0.00     0.163 HD
ENDROOT
BRANCH   2   5
HETATM    5  C           1     -21.047  -5.123  -5.759  0.00  0.00     0.278 C 
BRANCH   5   6
HETATM    6  C           1     -20.533  -5.737  -7.055  0.00  0.00     0.081 C 
BRANCH   6   7
HETATM    7  C           1     -21.065  -4.962  -8.220  0.00  0.00    -0.056 A 
HETATM    8  C           1     -20.280  -4.793  -9.361  0.00  0.00     0.010 A 
HETATM    9  C           1     -20.776  -4.071 -10.447  0.00  0.00     0.038 A 
HETATM   10  C           1     -22.055  -3.517 -10.391  0.00  0.00     0.081 A 
HETATM   11  C           1     -22.839  -3.686  -9.250  0.00  0.00     0.038 A 
HETATM   12  C           1     -22.343  -4.409  -8.164  0.00  0.00     0.010 A 
BRANCH  10  13
HETATM   13  O           1     -22.536  -2.815 -11.445  0.00  0.00    -0.247 OA
BRANCH  13  14
HETATM   14  P           1     -23.797  -3.424 -12.251  0.00  0.00     0.411 P 
HETATM   15  O           1     -25.043  -3.134 -11.508  0.00  0.00    -0.624 OA
HETATM   16  O           1     -23.867  -2.807 -13.595  0.00  0.00    -0.624 OA
BRANCH  14  17
HETATM   17  O           1     -23.619  -5.022 -12.401  0.00  0.00    -0.300 OA
HETATM   18  H           1     -22.948  -5.132 -13.052  0.00  0.00     0.223 HD
ENDBRANCH  14  17
ENDBRANCH  13  14
ENDBRANCH  10  13
ENDBRANCH   6   7
ENDBRANCH   5   6
BRANCH   5  19
HETATM   19  N           1     -19.890  -4.586  -4.969  0.00  0.00    -0.066 N 
HETATM   20  H           1     -20.248  -4.100  -4.115  0.00  0.00     0.275 HD
HETATM   21  H           1     -19.267  -5.375  -4.684  0.00  0.00     0.275 HD
HETATM   22  H           1     -19.352  -3.909  -5.555  0.00  0.00     0.275 HD
ENDBRANCH   5  19
ENDBRANCH   2   5
BRANCH   1  23
HETATM   23  C           1     -20.352  -7.994  -4.123  0.00  0.00     0.190 C 
BRANCH  23  24
HETATM   24  C           1     -21.200  -9.000  -4.863  0.00  0.00     0.197 C 
HETATM   25  O           1     -22.262  -9.417  -4.353  0.00  0.00    -0.646 OA
HETATM   26  O           1     -20.839  -9.418  -5.983  0.00  0.00    -0.646 OA
ENDBRANCH  23  24
BRANCH  23  27
HETATM   27  C           1     -19.924  -8.576  -2.783  0.00  0.00     0.077 C 
BRANCH  27  28
HETATM   28  C           1     -21.057  -8.476  -1.810  0.00  0.00    -0.028 A 
HETATM   29  C           1     -21.523  -7.321  -1.223  0.00  0.00     0.096 A 
HETATM   30  N           1     -22.564  -7.661  -0.400  0.00  0.00    -0.365 N 
HETATM   31  H           1     -23.117  -6.981   0.180  0.00  0.00     0.165 HD
HETATM   32  C           1     -22.782  -9.019  -0.444  0.00  0.00     0.042 A 
HETATM   33  C           1     -23.729  -9.806   0.224  0.00  0.00     0.030 A 
HETATM   34  C           1     -21.845  -9.557  -1.326  0.00  0.00    -0.002 A 
HETATM   35  C           1     -23.714 -11.182  -0.020  0.00  0.00     0.002 A 
HETATM   36  C           1     -22.789 -11.746  -0.896  0.00  0.00     0.001 A 
HETATM   37  C           1     -21.849 -10.946  -1.556  0.00  0.00     0.014 A 
ENDBRANCH  27  28
ENDBRANCH  23  27
ENDBRANCH   1  23
TORSDOF 11
ENDMDL
MODEL 7
REMARK VINA RESULT:      -7.9      5.871      9.411
REMARK  11 active torsions:
REMARK  status: ('A' for Active; 'I' for Inactive)
REMARK    1  A    between atoms: N_2  and  C_26 
REMARK       I    between atoms: N_2  and  C_3 
REMARK    2  A    between atoms: C_3  and  C_4 
REMARK    3  A    between atoms: C_4  and  C_5 
REMARK    4  A    between atoms: C_4  and  N_17 
REMARK    5  A    between atoms: C_5  and  C_6 
REMARK    6  A    between atoms: C_9  and  O_10 
REMARK    7  A    between atoms: O_10  and  P_11 
REMARK    8  A    between atoms: P_11  and  O_12 
REMARK    9  A    between atoms: C_24  and  C_26 
REMARK   10  A    between atoms: C_26  and  C_27 
REMARK   11  A    between atoms: C_27  and  C_28 
ROOT
HETATM    1  N           1     -20.299  -7.835  -3.946  0.00  0.00    -0.344 N 
HETATM    2  C           1     -20.407  -8.663  -5.031  0.00  0.00     0.249 C 
HETATM    3  O           1     -21.121  -8.356  -5.957  0.00  0.00    -0.271 OA
HETATM    4  H           1     -19.588  -7.115  -3.927  0.00  0.00     0.163 HD
ENDROOT
BRANCH   2   5
HETATM    5  C           1     -19.632  -9.957  -5.073  0.00  0.00     0.278 C 
BRANCH   5   6
HETATM    6  C           1     -18.146  -9.655  -5.209  0.00  0.00     0.081 C 
BRANCH   6   7
HETATM    7  C           1     -17.385 -10.409  -4.163  0.00  0.00    -0.056 A 
HETATM    8  C           1     -16.673  -9.715  -3.184  0.00  0.00     0.010 A 
HETATM    9  C           1     -15.964 -10.418  -2.209  0.00  0.00     0.038 A 
HETATM   10  C           1     -15.968 -11.813  -2.213  0.00  0.00     0.081 A 
HETATM   11  C           1     -16.679 -12.505  -3.192  0.00  0.00     0.038 A 
HETATM   12  C           1     -17.388 -11.803  -4.167  0.00  0.00     0.010 A 
BRANCH  10  13
HETATM   13  O           1     -15.279 -12.495  -1.266  0.00  0.00    -0.247 OA
BRANCH  13  14
HETATM   14  P           1     -16.037 -12.853   0.114  0.00  0.00     0.411 P 
HETATM   15  O           1     -17.469 -13.108  -0.163  0.00  0.00    -0.624 OA
HETATM   16  O           1     -15.426 -14.061   0.712  0.00  0.00    -0.624 OA
BRANCH  14  17
HETATM   17  O           1     -15.900 -11.615   1.142  0.00  0.00    -0.300 OA
HETATM   18  H           1     -16.205 -11.949   1.968  0.00  0.00     0.223 HD
ENDBRANCH  14  17
ENDBRANCH  13  14
ENDBRANCH  10  13
ENDBRANCH   6   7
ENDBRANCH   5   6
BRANCH   5  19
HETATM   19  N           1     -20.086 -10.772  -6.248  0.00  0.00    -0.066 N 
HETATM   20  H           1     -20.856 -11.413  -5.950  0.00  0.00     0.275 HD
HETATM   21  H           1     -20.435 -10.135  -6.999  0.00  0.00     0.275 HD
HETATM   22  H           1     -19.285 -11.336  -6.612  0.00  0.00     0.275 HD
ENDBRANCH   5  19
ENDBRANCH   2   5
BRANCH   1  23
HETATM   23  C           1     -21.205  -7.989  -2.825  0.00  0.00     0.190 C 
BRANCH  23  24
HETATM   24  C           1     -21.976  -6.707  -2.620  0.00  0.00     0.197 C 
HETATM   25  O           1     -22.254  -5.983  -3.600  0.00  0.00    -0.646 OA
HETATM   26  O           1     -22.334  -6.370  -1.472  0.00  0.00    -0.646 OA
ENDBRANCH  23  24
BRANCH  23  27
HETATM   27  C           1     -20.405  -8.308  -1.568  0.00  0.00     0.077 C 
BRANCH  27  28
HETATM   28  C           1     -20.578  -9.752  -1.218  0.00  0.00    -0.028 A 
HETATM   29  C           1     -19.615 -10.731  -1.312  0.00  0.00     0.096 A 
HETATM   30  N           1     -20.175 -11.910  -0.898  0.00  0.00    -0.365 N 
HETATM   31  H           1     -19.673 -12.832  -0.862  0.00  0.00     0.165 HD
HETATM   32  C           1     -21.488 -11.713  -0.535  0.00  0.00     0.042 A 
HETATM   33  C           1     -22.441 -12.621  -0.057  0.00  0.00     0.030 A 
HETATM   34  C           1     -21.768 -10.360  -0.728  0.00  0.00    -0.002 A 
HETATM   35  C           1     -23.716 -12.126   0.233  0.00  0.00     0.002 A 
HETATM   36  C           1     -24.023 -10.780   0.050  0.00  0.00     0.001 A 
HETATM   37  C           1     -23.059  -9.885  -0.429  0.00  0.00     0.014 A 
ENDBRANCH  27  28
ENDBRANCH  23  27
ENDBRANCH   1  23
TORSDOF 11
ENDMDL
MODEL 8
REMARK VINA RESULT:      -7.9      4.794     10.312
REMARK  11 active torsions:
REMARK  status: ('A' for Active; 'I' for Inactive)
REMARK    1  A    between atoms: N_2  and  C_26 
REMARK       I    between atoms: N_2  and  C_3 
REMARK    2  A    between atoms: C_3  and  C_4 
REMARK    3  A    between atoms: C_4  and  C_5 
REMARK    4  A    between atoms: C_4  and  N_17 
REMARK    5  A    between atoms: C_5  and  C_6 
REMARK    6  A    between atoms: C_9  and  O_10 
REMARK    7  A    between atoms: O_10  and  P_11 
REMARK    8  A    between atoms: P_11  and  O_12 
REMARK    9  A    between atoms: C_24  and  C_26 
REMARK   10  A    between atoms: C_26  and  C_27 
REMARK   11  A    between atoms: C_27  and  C_28 
ROOT
HETATM    1  N           1     -22.442  -6.561  -4.221  0.00  0.00    -0.344 N 
HETATM    2  C           1     -21.572  -6.672  -3.170  0.00  0.00     0.249 C 
HETATM    3  O           1     -21.016  -5.689  -2.740  0.00  0.00    -0.271 OA
HETATM    4  H           1     -23.425  -6.391  -4.049  0.00  0.00     0.163 HD
ENDROOT
BRANCH   2   5
HETATM    5  C           1     -21.309  -8.021  -2.547  0.00  0.00     0.278 C 
BRANCH   5   6
HETATM    6  C           1     -21.539  -7.939  -1.043  0.00  0.00     0.081 C 
BRANCH   6   7
HETATM    7  C           1     -21.883  -9.298  -0.516  0.00  0.00    -0.056 A 
HETATM    8  C           1     -23.150  -9.834  -0.745  0.00  0.00     0.010 A 
HETATM    9  C           1     -23.471 -11.099  -0.254  0.00  0.00     0.038 A 
HETATM   10  C           1     -22.524 -11.829   0.466  0.00  0.00     0.081 A 
HETATM   11  C           1     -21.257 -11.292   0.695  0.00  0.00     0.038 A 
HETATM   12  C           1     -20.937 -10.027   0.203  0.00  0.00     0.010 A 
BRANCH  10  13
HETATM   13  O           1     -22.836 -13.058   0.943  0.00  0.00    -0.247 OA
BRANCH  13  14
HETATM   14  P           1     -22.896 -14.286  -0.104  0.00  0.00     0.411 P 
HETATM   15  O           1     -21.937 -14.042  -1.205  0.00  0.00    -0.624 OA
HETATM   16  O           1     -22.542 -15.544   0.591  0.00  0.00    -0.624 OA
BRANCH  14  17
HETATM   17  O           1     -24.389 -14.407  -0.708  0.00  0.00    -0.300 OA
HETATM   18  H           1     -24.643 -13.523  -0.909  0.00  0.00     0.223 HD
ENDBRANCH  14  17
ENDBRANCH  13  14
ENDBRANCH  10  13
ENDBRANCH   6   7
ENDBRANCH   5   6
BRANCH   5  19
HETATM   19  N           1     -19.889  -8.425  -2.813  0.00  0.00    -0.066 N 
HETATM   20  H           1     -19.709  -8.403  -3.842  0.00  0.00     0.275 HD
HETATM   21  H           1     -19.242  -7.760  -2.332  0.00  0.00     0.275 HD
HETATM   22  H           1     -19.728  -9.392  -2.452  0.00  0.00     0.275 HD
ENDBRANCH   5  19
ENDBRANCH   2   5
BRANCH   1  23
HETATM   23  C           1     -21.955  -6.688  -5.581  0.00  0.00     0.190 C 
BRANCH  23  24
HETATM   24  C           1     -20.943  -7.806  -5.650  0.00  0.00     0.197 C 
HETATM   25  O           1     -19.724  -7.541  -5.720  0.00  0.00    -0.646 OA
HETATM   26  O           1     -21.325  -8.996  -5.638  0.00  0.00    -0.646 OA
ENDBRANCH  23  24
BRANCH  23  27
HETATM   27  C           1     -21.299  -5.382  -6.009  0.00  0.00     0.077 C 
BRANCH  27  28
HETATM   28  C           1     -22.048  -4.802  -7.168  0.00  0.00    -0.028 A 
HETATM   29  C           1     -23.364  -4.397  -7.163  0.00  0.00     0.096 A 
HETATM   30  N           1     -23.663  -3.929  -8.415  0.00  0.00    -0.365 N 
HETATM   31  H           1     -24.599  -3.552  -8.707  0.00  0.00     0.165 HD
HETATM   32  C           1     -22.560  -4.024  -9.234  0.00  0.00     0.042 A 
HETATM   33  C           1     -22.400  -3.669 -10.579  0.00  0.00     0.030 A 
HETATM   34  C           1     -21.529  -4.572  -8.472  0.00  0.00    -0.002 A 
HETATM   35  C           1     -21.146  -3.883 -11.158  0.00  0.00     0.002 A 
HETATM   36  C           1     -20.097  -4.428 -10.421  0.00  0.00     0.001 A 
HETATM   37  C           1     -20.274  -4.777  -9.076  0.00  0.00     0.014 A 
ENDBRANCH  27  28
ENDBRANCH  23  27
ENDBRANCH   1  23
TORSDOF 11
ENDMDL
MODEL 9
REMARK VINA RESULT:      -7.9      4.640     10.505
REMARK  11 active torsions:
REMARK  status: ('A' for Active; 'I' for Inactive)
REMARK    1  A    between atoms: N_2  and  C_26 
REMARK       I    between atoms: N_2  and  C_3 
REMARK    2  A    between atoms: C_3  and  C_4 
REMARK    3  A    between atoms: C_4  and  C_5 
REMARK    4  A    between atoms: C_4  and  N_17 
REMARK    5  A    between atoms: C_5  and  C_6 
REMARK    6  A    between atoms: C_9  and  O_10 
REMARK    7  A    between atoms: O_10  and  P_11 
REMARK    8  A    between atoms: P_11  and  O_12 
REMARK    9  A    between atoms: C_24  and  C_26 
REMARK   10  A    between atoms: C_26  and  C_27 
REMARK   11  A    between atoms: C_27  and  C_28 
ROOT
HETATM    1  N           1     -22.455  -5.975  -5.615  0.00  0.00    -0.344 N 
HETATM    2  C           1     -21.935  -6.575  -4.499  0.00  0.00     0.249 C 
HETATM    3  O           1     -21.582  -5.900  -3.561  0.00  0.00    -0.271 OA
HETATM    4  H           1     -23.451  -5.810  -5.684  0.00  0.00     0.163 HD
ENDROOT
BRANCH   2   5
HETATM    5  C           1     -21.807  -8.077  -4.440  0.00  0.00     0.278 C 
BRANCH   5   6
HETATM    6  C           1     -20.925  -8.465  -3.260  0.00  0.00     0.081 C 
BRANCH   6   7
HETATM    7  C           1     -21.700  -9.341  -2.325  0.00  0.00    -0.056 A 
HETATM    8  C           1     -21.777  -9.017  -0.970  0.00  0.00     0.010 A 
HETATM    9  C           1     -22.499  -9.834  -0.099  0.00  0.00     0.038 A 
HETATM   10  C           1     -23.144 -10.972  -0.582  0.00  0.00     0.081 A 
HETATM   11  C           1     -23.065 -11.296  -1.937  0.00  0.00     0.038 A 
HETATM   12  C           1     -22.344 -10.479  -2.808  0.00  0.00     0.010 A 
BRANCH  10  13
HETATM   13  O           1     -23.844 -11.765   0.264  0.00  0.00    -0.247 OA
BRANCH  13  14
HETATM   14  P           1     -23.177 -13.163   0.721  0.00  0.00     0.411 P 
HETATM   15  O           1     -23.605 -13.485   2.101  0.00  0.00    -0.624 OA
HETATM   16  O           1     -23.612 -14.240  -0.196  0.00  0.00    -0.624 OA
BRANCH  14  17
HETATM   17  O           1     -21.568 -13.033   0.673  0.00  0.00    -0.300 OA
HETATM   18  H           1     -21.283 -13.739   0.118  0.00  0.00     0.223 HD
ENDBRANCH  14  17
ENDBRANCH  13  14
ENDBRANCH  10  13
ENDBRANCH   6   7
ENDBRANCH   5   6
BRANCH   5  19
HETATM   19  N           1     -21.185  -8.575  -5.712  0.00  0.00    -0.066 N 
HETATM   20  H           1     -20.690  -7.787  -6.188  0.00  0.00     0.275 HD
HETATM   21  H           1     -20.501  -9.333  -5.491  0.00  0.00     0.275 HD
HETATM   22  H           1     -21.931  -8.949  -6.341  0.00  0.00     0.275 HD
ENDBRANCH   5  19
ENDBRANCH   2   5
BRANCH   1  23
HETATM   23  C           1     -21.578  -5.578  -6.699  0.00  0.00     0.190 C 
BRANCH  23  24
HETATM   24  C           1     -20.167  -5.439  -6.179  0.00  0.00     0.197 C 
HETATM   25  O           1     -19.331  -6.342  -6.393  0.00  0.00    -0.646 OA
HETATM   26  O           1     -19.837  -4.421  -5.534  0.00  0.00    -0.646 OA
ENDBRANCH  23  24
BRANCH  23  27
HETATM   27  C           1     -22.044  -4.244  -7.266  0.00  0.00     0.077 C 
BRANCH  27  28
HETATM   28  C           1     -21.640  -4.143  -8.704  0.00  0.00    -0.028 A 
HETATM   29  C           1     -20.373  -4.336  -9.206  0.00  0.00     0.096 A 
HETATM   30  N           1     -20.427  -4.153 -10.562  0.00  0.00    -0.365 N 
HETATM   31  H           1     -19.607  -4.236 -11.212  0.00  0.00     0.165 HD
HETATM   32  C           1     -21.712  -3.843 -10.949  0.00  0.00     0.042 A 
HETATM   33  C           1     -22.233  -3.576 -12.221  0.00  0.00     0.030 A 
HETATM   34  C           1     -22.496  -3.831  -9.796  0.00  0.00    -0.002 A 
HETATM   35  C           1     -23.598  -3.288 -12.312  0.00  0.00     0.002 A 
HETATM   36  C           1     -24.406  -3.269 -11.177  0.00  0.00     0.001 A 
HETATM   37  C           1     -23.868  -3.539  -9.913  0.00  0.00     0.014 A 
ENDBRANCH  27  28
ENDBRANCH  23  27
ENDBRANCH   1  23
TORSDOF 11
ENDMDL
