MODEL 1
REMARK VINA RESULT:      -6.0      0.000      0.000
REMARK  11 active torsions:
REMARK  status: ('A' for Active; 'I' for Inactive)
REMARK    1  A    between atoms: C_2  and  N_19 
REMARK    2  A    between atoms: C_2  and  C_17 
REMARK    3  A    between atoms: C_4  and  C_10 
REMARK    4  A    between atoms: C_4  and  O_5 
REMARK    5  A    between atoms: N_6  and  C_10 
REMARK       I    between atoms: C_7  and  N_8 
REMARK    6  A    between atoms: C_7  and  C_10 
REMARK    7  A    between atoms: N_8  and  C_21 
REMARK    8  A    between atoms: C_9  and  C_17 
REMARK    9  A    between atoms: C_9  and  C_22 
REMARK   10  A    between atoms: C_21  and  C_22 
REMARK   11  A    between atoms: C_21  and  C_24 
ROOT
HETATM    1  C           1     -23.538  -3.278 -13.242  0.00  0.00     0.251 C 
HETATM    2  N           1     -23.130  -3.284 -11.935  0.00  0.00    -0.345 N 
HETATM    3  O           1     -24.409  -4.031 -13.607  0.00  0.00    -0.271 OA
HETATM    4  H           1     -22.401  -2.654 -11.630  0.00  0.00     0.163 HD
ENDROOT
BRANCH   2   5
HETATM    5  C           1     -23.746  -4.194 -10.988  0.00  0.00     0.185 C 
BRANCH   5   6
HETATM    6  C           1     -22.661  -4.904 -10.189  0.00  0.00     0.036 C 
BRANCH   6   7
HETATM    7  C           1     -21.311  -4.263 -10.484  0.00  0.00     0.004 C 
BRANCH   7   8
HETATM    8  C           1     -20.454  -4.282  -9.225  0.00  0.00     0.027 C 
BRANCH   8   9
HETATM    9  C           1     -21.324  -4.621  -8.022  0.00  0.00     0.229 C 
BRANCH   9  10
HETATM   10  N           1     -21.641  -3.366  -7.264  0.00  0.00    -0.079 N 
HETATM   11  H           1     -21.100  -2.569  -7.669  0.00  0.00     0.274 HD
HETATM   12  H           1     -22.664  -3.165  -7.335  0.00  0.00     0.274 HD
HETATM   13  H           1     -21.379  -3.489  -6.260  0.00  0.00     0.274 HD
ENDBRANCH   9  10
ENDBRANCH   8   9
ENDBRANCH   7   8
ENDBRANCH   6   7
ENDBRANCH   5   6
BRANCH   5  14
HETATM   14  C           1     -24.636  -3.417 -10.049  0.00  0.00     0.196 C 
HETATM   15  O           1     -24.208  -3.068  -8.928  0.00  0.00    -0.646 OA
HETATM   16  O           1     -25.800  -3.122 -10.393  0.00  0.00    -0.646 OA
ENDBRANCH   5  14
ENDBRANCH   2   5
BRANCH   1  17
HETATM   17  C           1     -22.898  -2.331 -14.227  0.00  0.00     0.297 C 
BRANCH  17  18
HETATM   18  C           1     -23.954  -1.386 -14.784  0.00  0.00     0.206 C 
BRANCH  18  19
HETATM   19  O           1     -25.065  -1.370 -13.929  0.00  0.00    -0.398 OA
HETATM   20  H           1     -24.793  -0.940 -13.136  0.00  0.00     0.209 HD
ENDBRANCH  18  19
ENDBRANCH  17  18
BRANCH  17  21
HETATM   21  N           1     -22.289  -3.116 -15.351  0.00  0.00    -0.064 N 
HETATM   22  H           1     -22.865  -3.968 -15.535  0.00  0.00     0.275 HD
HETATM   23  H           1     -22.259  -2.524 -16.213  0.00  0.00     0.275 HD
HETATM   24  H           1     -21.318  -3.401 -15.091  0.00  0.00     0.275 HD
ENDBRANCH  17  21
ENDBRANCH   1  17
TORSDOF 11
ENDMDL
MODEL 2
REMARK VINA RESULT:      -5.9     11.188     12.146
REMARK  11 active torsions:
REMARK  status: ('A' for Active; 'I' for Inactive)
REMARK    1  A    between atoms: C_2  and  N_19 
REMARK    2  A    between atoms: C_2  and  C_17 
REMARK    3  A    between atoms: C_4  and  C_10 
REMARK    4  A    between atoms: C_4  and  O_5 
REMARK    5  A    between atoms: N_6  and  C_10 
REMARK       I    between atoms: C_7  and  N_8 
REMARK    6  A    between atoms: C_7  and  C_10 
REMARK    7  A    between atoms: N_8  and  C_21 
REMARK    8  A    between atoms: C_9  and  C_17 
REMARK    9  A    between atoms: C_9  and  C_22 
REMARK   10  A    between atoms: C_21  and  C_22 
REMARK   11  A    between atoms: C_21  and  C_24 
ROOT
HETATM    1  C           1     -35.820  -1.036 -13.783  0.00  0.00     0.251 C 
HETATM    2  N           1     -34.773  -1.790 -13.325  0.00  0.00    -0.345 N 
HETATM    3  O           1     -36.873  -1.041 -13.191  0.00  0.00    -0.271 OA
HETATM    4  H           1     -33.891  -1.786 -13.821  0.00  0.00     0.163 HD
ENDROOT
BRANCH   2   5
HETATM    5  C           1     -34.928  -2.595 -12.129  0.00  0.00     0.185 C 
BRANCH   5   6
HETATM    6  C           1     -34.070  -3.848 -12.246  0.00  0.00     0.036 C 
BRANCH   6   7
HETATM    7  C           1     -34.839  -5.042 -11.696  0.00  0.00     0.004 C 
BRANCH   7   8
HETATM    8  C           1     -33.887  -5.947 -10.924  0.00  0.00     0.027 C 
BRANCH   8   9
HETATM    9  C           1     -34.681  -7.045 -10.228  0.00  0.00     0.229 C 
BRANCH   9  10
HETATM   10  N           1     -33.953  -8.349 -10.359  0.00  0.00    -0.079 N 
HETATM   11  H           1     -34.152  -8.944  -9.524  0.00  0.00     0.274 HD
HETATM   12  H           1     -34.274  -8.842 -11.223  0.00  0.00     0.274 HD
HETATM   13  H           1     -32.925  -8.170 -10.421  0.00  0.00     0.274 HD
ENDBRANCH   9  10
ENDBRANCH   8   9
ENDBRANCH   7   8
ENDBRANCH   6   7
ENDBRANCH   5   6
BRANCH   5  14
HETATM   14  C           1     -34.491  -1.795 -10.925  0.00  0.00     0.196 C 
HETATM   15  O           1     -33.287  -1.776 -10.592  0.00  0.00    -0.646 OA
HETATM   16  O           1     -35.333  -1.152 -10.263  0.00  0.00    -0.646 OA
ENDBRANCH   5  14
ENDBRANCH   2   5
BRANCH   1  17
HETATM   17  C           1     -35.659  -0.199 -15.028  0.00  0.00     0.297 C 
BRANCH  17  18
HETATM   18  C           1     -35.591  -1.109 -16.248  0.00  0.00     0.206 C 
BRANCH  18  19
HETATM   19  O           1     -36.434  -0.610 -17.250  0.00  0.00    -0.398 OA
HETATM   20  H           1     -37.264  -1.045 -17.151  0.00  0.00     0.209 HD
ENDBRANCH  18  19
ENDBRANCH  17  18
BRANCH  17  21
HETATM   21  N           1     -34.393   0.601 -14.932  0.00  0.00    -0.064 N 
HETATM   22  H           1     -34.119   0.702 -13.928  0.00  0.00     0.275 HD
HETATM   23  H           1     -33.631   0.110 -15.453  0.00  0.00     0.275 HD
HETATM   24  H           1     -34.547   1.547 -15.348  0.00  0.00     0.275 HD
ENDBRANCH  17  21
ENDBRANCH   1  17
TORSDOF 11
ENDMDL
MODEL 3
REMARK VINA RESULT:      -5.9     11.521     12.888
REMARK  11 active torsions:
REMARK  status: ('A' for Active; 'I' for Inactive)
REMARK    1  A    between atoms: C_2  and  N_19 
REMARK    2  A    between atoms: C_2  and  C_17 
REMARK    3  A    between atoms: C_4  and  C_10 
REMARK    4  A    between atoms: C_4  and  O_5 
REMARK    5  A    between atoms: N_6  and  C_10 
REMARK       I    between atoms: C_7  and  N_8 
REMARK    6  A    between atoms: C_7  and  C_10 
REMARK    7  A    between atoms: N_8  and  C_21 
REMARK    8  A    between atoms: C_9  and  C_17 
REMARK    9  A    between atoms: C_9  and  C_22 
REMARK   10  A    between atoms: C_21  and  C_22 
REMARK   11  A    between atoms: C_21  and  C_24 
ROOT
HETATM    1  C           1     -36.579  -0.280 -13.498  0.00  0.00     0.251 C 
HETATM    2  N           1     -35.861  -0.411 -12.339  0.00  0.00    -0.345 N 
HETATM    3  O           1     -37.692  -0.742 -13.574  0.00  0.00    -0.271 OA
HETATM    4  H           1     -34.928  -0.024 -12.275  0.00  0.00     0.163 HD
ENDROOT
BRANCH   2   5
HETATM    5  C           1     -36.438  -1.103 -11.204  0.00  0.00     0.185 C 
BRANCH   5   6
HETATM    6  C           1     -35.427  -2.096 -10.647  0.00  0.00     0.036 C 
BRANCH   6   7
HETATM    7  C           1     -34.094  -1.917 -11.362  0.00  0.00     0.004 C 
BRANCH   7   8
HETATM    8  C           1     -33.375  -3.258 -11.439  0.00  0.00     0.027 C 
BRANCH   8   9
HETATM    9  C           1     -34.168  -4.209 -12.326  0.00  0.00     0.229 C 
BRANCH   9  10
HETATM   10  N           1     -33.744  -4.033 -13.754  0.00  0.00    -0.079 N 
HETATM   11  H           1     -33.979  -4.894 -14.296  0.00  0.00     0.274 HD
HETATM   12  H           1     -34.245  -3.213 -14.166  0.00  0.00     0.274 HD
HETATM   13  H           1     -32.713  -3.867 -13.794  0.00  0.00     0.274 HD
ENDBRANCH   9  10
ENDBRANCH   8   9
ENDBRANCH   7   8
ENDBRANCH   6   7
ENDBRANCH   5   6
BRANCH   5  14
HETATM   14  C           1     -36.800  -0.100 -10.134  0.00  0.00     0.196 C 
HETATM   15  O           1     -36.207  -0.119  -9.035  0.00  0.00    -0.646 OA
HETATM   16  O           1     -37.691   0.749 -10.350  0.00  0.00    -0.646 OA
ENDBRANCH   5  14
ENDBRANCH   2   5
BRANCH   1  17
HETATM   17  C           1     -35.978   0.440 -14.680  0.00  0.00     0.297 C 
BRANCH  17  18
HETATM   18  C           1     -35.547  -0.576 -15.730  0.00  0.00     0.206 C 
BRANCH  18  19
HETATM   19  O           1     -35.219  -1.785 -15.103  0.00  0.00    -0.398 OA
HETATM   20  H           1     -35.989  -2.328 -15.136  0.00  0.00     0.209 HD
ENDBRANCH  18  19
ENDBRANCH  17  18
BRANCH  17  21
HETATM   21  N           1     -34.783   1.229 -14.230  0.00  0.00    -0.064 N 
HETATM   22  H           1     -34.467   0.883 -13.296  0.00  0.00     0.275 HD
HETATM   23  H           1     -34.009   1.113 -14.924  0.00  0.00     0.275 HD
HETATM   24  H           1     -35.039   2.239 -14.160  0.00  0.00     0.275 HD
ENDBRANCH  17  21
ENDBRANCH   1  17
TORSDOF 11
ENDMDL
MODEL 4
REMARK VINA RESULT:      -5.8     11.505     12.713
REMARK  11 active torsions:
REMARK  status: ('A' for Active; 'I' for Inactive)
REMARK    1  A    between atoms: C_2  and  N_19 
REMARK    2  A    between atoms: C_2  and  C_17 
REMARK    3  A    between atoms: C_4  and  C_10 
REMARK    4  A    between atoms: C_4  and  O_5 
REMARK    5  A    between atoms: N_6  and  C_10 
REMARK       I    between atoms: C_7  and  N_8 
REMARK    6  A    between atoms: C_7  and  C_10 
REMARK    7  A    between atoms: N_8  and  C_21 
REMARK    8  A    between atoms: C_9  and  C_17 
REMARK    9  A    between atoms: C_9  and  C_22 
REMARK   10  A    between atoms: C_21  and  C_22 
REMARK   11  A    between atoms: C_21  and  C_24 
ROOT
HETATM    1  C           1     -35.912  -0.652 -14.444  0.00  0.00     0.251 C 
HETATM    2  N           1     -34.949  -0.946 -13.516  0.00  0.00    -0.345 N 
HETATM    3  O           1     -37.063  -0.952 -14.237  0.00  0.00    -0.271 OA
HETATM    4  H           1     -33.985  -0.695 -13.690  0.00  0.00     0.163 HD
ENDROOT
BRANCH   2   5
HETATM    5  C           1     -35.313  -1.617 -12.283  0.00  0.00     0.185 C 
BRANCH   5   6
HETATM    6  C           1     -34.051  -1.976 -11.510  0.00  0.00     0.036 C 
BRANCH   6   7
HETATM    7  C           1     -34.252  -3.309 -10.801  0.00  0.00     0.004 C 
BRANCH   7   8
HETATM    8  C           1     -33.200  -4.301 -11.276  0.00  0.00     0.027 C 
BRANCH   8   9
HETATM    9  C           1     -33.735  -5.720 -11.131  0.00  0.00     0.229 C 
BRANCH   9  10
HETATM   10  N           1     -34.722  -5.997 -12.227  0.00  0.00    -0.079 N 
HETATM   11  H           1     -34.783  -5.166 -12.857  0.00  0.00     0.274 HD
HETATM   12  H           1     -34.408  -6.830 -12.775  0.00  0.00     0.274 HD
HETATM   13  H           1     -35.661  -6.188 -11.810  0.00  0.00     0.274 HD
ENDBRANCH   9  10
ENDBRANCH   8   9
ENDBRANCH   7   8
ENDBRANCH   6   7
ENDBRANCH   5   6
BRANCH   5  14
HETATM   14  C           1     -36.173  -0.699 -11.446  0.00  0.00     0.196 C 
HETATM   15  O           1     -37.292  -1.084 -11.047  0.00  0.00    -0.646 OA
HETATM   16  O           1     -35.763   0.444 -11.152  0.00  0.00    -0.646 OA
ENDBRANCH   5  14
ENDBRANCH   2   5
BRANCH   1  17
HETATM   17  C           1     -35.533   0.046 -15.728  0.00  0.00     0.297 C 
BRANCH  17  18
HETATM   18  C           1     -35.994   1.497 -15.673  0.00  0.00     0.206 C 
BRANCH  18  19
HETATM   19  O           1     -37.364   1.563 -15.959  0.00  0.00    -0.398 OA
HETATM   20  H           1     -37.568   2.469 -16.113  0.00  0.00     0.209 HD
ENDBRANCH  18  19
ENDBRANCH  17  18
BRANCH  17  21
HETATM   21  N           1     -36.193  -0.644 -16.885  0.00  0.00    -0.064 N 
HETATM   22  H           1     -35.827  -0.251 -17.781  0.00  0.00     0.275 HD
HETATM   23  H           1     -35.986  -1.668 -16.844  0.00  0.00     0.275 HD
HETATM   24  H           1     -37.226  -0.495 -16.836  0.00  0.00     0.275 HD
ENDBRANCH  17  21
ENDBRANCH   1  17
TORSDOF 11
ENDMDL
MODEL 5
REMARK VINA RESULT:      -5.6      2.364      6.159
REMARK  11 active torsions:
REMARK  status: ('A' for Active; 'I' for Inactive)
REMARK    1  A    between atoms: C_2  and  N_19 
REMARK    2  A    between atoms: C_2  and  C_17 
REMARK    3  A    between atoms: C_4  and  C_10 
REMARK    4  A    between atoms: C_4  and  O_5 
REMARK    5  A    between atoms: N_6  and  C_10 
REMARK       I    between atoms: C_7  and  N_8 
REMARK    6  A    between atoms: C_7  and  C_10 
REMARK    7  A    between atoms: N_8  and  C_21 
REMARK    8  A    between atoms: C_9  and  C_17 
REMARK    9  A    between atoms: C_9  and  C_22 
REMARK   10  A    between atoms: C_21  and  C_22 
REMARK   11  A    between atoms: C_21  and  C_24 
ROOT
HETATM    1  C           1     -21.744  -4.439  -6.998  0.00  0.00     0.251 C 
HETATM    2  N           1     -22.586  -4.740  -8.034  0.00  0.00    -0.345 N 
HETATM    3  O           1     -21.140  -3.392  -6.994  0.00  0.00    -0.271 OA
HETATM    4  H           1     -23.091  -5.617  -8.036  0.00  0.00     0.163 HD
ENDROOT
BRANCH   2   5
HETATM    5  C           1     -22.754  -3.803  -9.127  0.00  0.00     0.185 C 
BRANCH   5   6
HETATM    6  C           1     -21.825  -4.187 -10.272  0.00  0.00     0.036 C 
BRANCH   6   7
HETATM    7  C           1     -21.639  -2.992 -11.198  0.00  0.00     0.004 C 
BRANCH   7   8
HETATM    8  C           1     -21.905  -3.418 -12.636  0.00  0.00     0.027 C 
BRANCH   8   9
HETATM    9  C           1     -23.323  -3.024 -13.029  0.00  0.00     0.229 C 
BRANCH   9  10
HETATM   10  N           1     -24.148  -4.261 -13.228  0.00  0.00    -0.079 N 
HETATM   11  H           1     -23.686  -5.067 -12.752  0.00  0.00     0.274 HD
HETATM   12  H           1     -25.100  -4.113 -12.821  0.00  0.00     0.274 HD
HETATM   13  H           1     -24.234  -4.463 -14.249  0.00  0.00     0.274 HD
ENDBRANCH   9  10
ENDBRANCH   8   9
ENDBRANCH   7   8
ENDBRANCH   6   7
ENDBRANCH   5   6
BRANCH   5  14
HETATM   14  C           1     -24.186  -3.840  -9.606  0.00  0.00     0.196 C 
HETATM   15  O           1     -24.904  -2.822  -9.506  0.00  0.00    -0.646 OA
HETATM   16  O           1     -24.651  -4.887 -10.103  0.00  0.00    -0.646 OA
ENDBRANCH   5  14
ENDBRANCH   2   5
BRANCH   1  17
HETATM   17  C           1     -21.569  -5.414  -5.860  0.00  0.00     0.297 C 
BRANCH  17  18
HETATM   18  C           1     -20.718  -6.590  -6.323  0.00  0.00     0.206 C 
BRANCH  18  19
HETATM   19  O           1     -20.007  -6.226  -7.474  0.00  0.00    -0.398 OA
HETATM   20  H           1     -19.203  -6.717  -7.466  0.00  0.00     0.209 HD
ENDBRANCH  18  19
ENDBRANCH  17  18
BRANCH  17  21
HETATM   21  N           1     -22.913  -5.915  -5.419  0.00  0.00    -0.064 N 
HETATM   22  H           1     -23.636  -5.639  -6.121  0.00  0.00     0.275 HD
HETATM   23  H           1     -22.887  -6.957  -5.338  0.00  0.00     0.275 HD
HETATM   24  H           1     -23.152  -5.499  -4.491  0.00  0.00     0.275 HD
ENDBRANCH  17  21
ENDBRANCH   1  17
TORSDOF 11
ENDMDL
MODEL 6
REMARK VINA RESULT:      -5.6     11.342     13.339
REMARK  11 active torsions:
REMARK  status: ('A' for Active; 'I' for Inactive)
REMARK    1  A    between atoms: C_2  and  N_19 
REMARK    2  A    between atoms: C_2  and  C_17 
REMARK    3  A    between atoms: C_4  and  C_10 
REMARK    4  A    between atoms: C_4  and  O_5 
REMARK    5  A    between atoms: N_6  and  C_10 
REMARK       I    between atoms: C_7  and  N_8 
REMARK    6  A    between atoms: C_7  and  C_10 
REMARK    7  A    between atoms: N_8  and  C_21 
REMARK    8  A    between atoms: C_9  and  C_17 
REMARK    9  A    between atoms: C_9  and  C_22 
REMARK   10  A    between atoms: C_21  and  C_22 
REMARK   11  A    between atoms: C_21  and  C_24 
ROOT
HETATM    1  C           1     -33.883  -2.370 -11.408  0.00  0.00     0.251 C 
HETATM    2  N           1     -35.007  -1.904 -12.036  0.00  0.00    -0.345 N 
HETATM    3  O           1     -33.319  -1.684 -10.589  0.00  0.00    -0.271 OA
HETATM    4  H           1     -35.479  -2.478 -12.722  0.00  0.00     0.163 HD
ENDROOT
BRANCH   2   5
HETATM    5  C           1     -35.521  -0.586 -11.717  0.00  0.00     0.185 C 
BRANCH   5   6
HETATM    6  C           1     -36.088   0.056 -12.976  0.00  0.00     0.036 C 
BRANCH   6   7
HETATM    7  C           1     -34.968   0.749 -13.741  0.00  0.00     0.004 C 
BRANCH   7   8
HETATM    8  C           1     -35.451   1.101 -15.142  0.00  0.00     0.027 C 
BRANCH   8   9
HETATM    9  C           1     -36.728   0.329 -15.448  0.00  0.00     0.229 C 
BRANCH   9  10
HETATM   10  N           1     -37.785   1.279 -15.928  0.00  0.00    -0.079 N 
HETATM   11  H           1     -38.713   0.801 -15.921  0.00  0.00     0.274 HD
HETATM   12  H           1     -37.816   2.112 -15.297  0.00  0.00     0.274 HD
HETATM   13  H           1     -37.560   1.588 -16.901  0.00  0.00     0.274 HD
ENDBRANCH   9  10
ENDBRANCH   8   9
ENDBRANCH   7   8
ENDBRANCH   6   7
ENDBRANCH   5   6
BRANCH   5  14
HETATM   14  C           1     -36.611  -0.709 -10.679  0.00  0.00     0.196 C 
HETATM   15  O           1     -36.375  -0.416  -9.488  0.00  0.00    -0.646 OA
HETATM   16  O           1     -37.749  -1.102 -11.013  0.00  0.00    -0.646 OA
ENDBRANCH   5  14
ENDBRANCH   2   5
BRANCH   1  17
HETATM   17  C           1     -33.348  -3.741 -11.741  0.00  0.00     0.297 C 
BRANCH  17  18
HETATM   18  C           1     -33.851  -4.165 -13.115  0.00  0.00     0.206 C 
BRANCH  18  19
HETATM   19  O           1     -34.940  -5.035 -12.966  0.00  0.00    -0.398 OA
HETATM   20  H           1     -34.827  -5.725 -13.597  0.00  0.00     0.209 HD
ENDBRANCH  18  19
ENDBRANCH  17  18
BRANCH  17  21
HETATM   21  N           1     -33.821  -4.725 -10.711  0.00  0.00    -0.064 N 
HETATM   22  H           1     -33.002  -5.094 -10.177  0.00  0.00     0.275 HD
HETATM   23  H           1     -34.481  -4.250 -10.053  0.00  0.00     0.275 HD
HETATM   24  H           1     -34.312  -5.516 -11.186  0.00  0.00     0.275 HD
ENDBRANCH  17  21
ENDBRANCH   1  17
TORSDOF 11
ENDMDL
MODEL 7
REMARK VINA RESULT:      -5.5      7.910      9.714
REMARK  11 active torsions:
REMARK  status: ('A' for Active; 'I' for Inactive)
REMARK    1  A    between atoms: C_2  and  N_19 
REMARK    2  A    between atoms: C_2  and  C_17 
REMARK    3  A    between atoms: C_4  and  C_10 
REMARK    4  A    between atoms: C_4  and  O_5 
REMARK    5  A    between atoms: N_6  and  C_10 
REMARK       I    between atoms: C_7  and  N_8 
REMARK    6  A    between atoms: C_7  and  C_10 
REMARK    7  A    between atoms: N_8  and  C_21 
REMARK    8  A    between atoms: C_9  and  C_17 
REMARK    9  A    between atoms: C_9  and  C_22 
REMARK   10  A    between atoms: C_21  and  C_22 
REMARK   11  A    between atoms: C_21  and  C_24 
ROOT
HETATM    1  C           1     -27.080  -6.307 -19.039  0.00  0.00     0.251 C 
HETATM    2  N           1     -27.309  -6.794 -17.780  0.00  0.00    -0.345 N 
HETATM    3  O           1     -27.917  -5.630 -19.587  0.00  0.00    -0.271 OA
HETATM    4  H           1     -26.608  -7.361 -17.321  0.00  0.00     0.163 HD
ENDROOT
BRANCH   2   5
HETATM    5  C           1     -28.558  -6.498 -17.105  0.00  0.00     0.185 C 
BRANCH   5   6
HETATM    6  C           1     -29.594  -7.553 -17.470  0.00  0.00     0.036 C 
BRANCH   6   7
HETATM    7  C           1     -30.988  -6.945 -17.385  0.00  0.00     0.004 C 
BRANCH   7   8
HETATM    8  C           1     -30.917  -5.461 -17.716  0.00  0.00     0.027 C 
BRANCH   8   9
HETATM    9  C           1     -31.712  -4.671 -16.684  0.00  0.00     0.229 C 
BRANCH   9  10
HETATM   10  N           1     -33.144  -5.116 -16.708  0.00  0.00    -0.079 N 
HETATM   11  H           1     -33.362  -5.634 -15.828  0.00  0.00     0.274 HD
HETATM   12  H           1     -33.767  -4.279 -16.784  0.00  0.00     0.274 HD
HETATM   13  H           1     -33.301  -5.743 -17.529  0.00  0.00     0.274 HD
ENDBRANCH   9  10
ENDBRANCH   8   9
ENDBRANCH   7   8
ENDBRANCH   6   7
ENDBRANCH   5   6
BRANCH   5  14
HETATM   14  C           1     -28.336  -6.505 -15.611  0.00  0.00     0.196 C 
HETATM   15  O           1     -27.814  -7.498 -15.063  0.00  0.00    -0.646 OA
HETATM   16  O           1     -28.674  -5.517 -14.926  0.00  0.00    -0.646 OA
ENDBRANCH   5  14
ENDBRANCH   2   5
BRANCH   1  17
HETATM   17  C           1     -25.780  -6.615 -19.741  0.00  0.00     0.297 C 
BRANCH  17  18
HETATM   18  C           1     -26.020  -7.669 -20.815  0.00  0.00     0.206 C 
BRANCH  18  19
HETATM   19  O           1     -27.252  -8.297 -20.586  0.00  0.00    -0.398 OA
HETATM   20  H           1     -27.564  -8.600 -21.422  0.00  0.00     0.209 HD
ENDBRANCH  18  19
ENDBRANCH  17  18
BRANCH  17  21
HETATM   21  N           1     -24.785  -7.135 -18.746  0.00  0.00    -0.064 N 
HETATM   22  H           1     -24.826  -8.179 -18.724  0.00  0.00     0.275 HD
HETATM   23  H           1     -23.824  -6.831 -19.024  0.00  0.00     0.275 HD
HETATM   24  H           1     -25.010  -6.757 -17.799  0.00  0.00     0.275 HD
ENDBRANCH  17  21
ENDBRANCH   1  17
TORSDOF 11
ENDMDL
MODEL 8
REMARK VINA RESULT:      -5.1      7.151      9.219
REMARK  11 active torsions:
REMARK  status: ('A' for Active; 'I' for Inactive)
REMARK    1  A    between atoms: C_2  and  N_19 
REMARK    2  A    between atoms: C_2  and  C_17 
REMARK    3  A    between atoms: C_4  and  C_10 
REMARK    4  A    between atoms: C_4  and  O_5 
REMARK    5  A    between atoms: N_6  and  C_10 
REMARK       I    between atoms: C_7  and  N_8 
REMARK    6  A    between atoms: C_7  and  C_10 
REMARK    7  A    between atoms: N_8  and  C_21 
REMARK    8  A    between atoms: C_9  and  C_17 
REMARK    9  A    between atoms: C_9  and  C_22 
REMARK   10  A    between atoms: C_21  and  C_22 
REMARK   11  A    between atoms: C_21  and  C_24 
ROOT
HETATM    1  C           1     -26.975  -6.268 -19.039  0.00  0.00     0.251 C 
HETATM    2  N           1     -26.286  -6.731 -17.949  0.00  0.00    -0.345 N 
HETATM    3  O           1     -27.880  -5.483 -18.893  0.00  0.00    -0.271 OA
HETATM    4  H           1     -25.528  -7.389 -18.071  0.00  0.00     0.163 HD
ENDROOT
BRANCH   2   5
HETATM    5  C           1     -26.645  -6.276 -16.620  0.00  0.00     0.185 C 
BRANCH   5   6
HETATM    6  C           1     -27.776  -7.138 -16.076  0.00  0.00     0.036 C 
BRANCH   6   7
HETATM    7  C           1     -28.909  -6.243 -15.592  0.00  0.00     0.004 C 
BRANCH   7   8
HETATM    8  C           1     -30.062  -6.300 -16.585  0.00  0.00     0.027 C 
BRANCH   8   9
HETATM    9  C           1     -30.088  -7.666 -17.257  0.00  0.00     0.229 C 
BRANCH   9  10
HETATM   10  N           1     -30.332  -7.497 -18.727  0.00  0.00    -0.079 N 
HETATM   11  H           1     -30.453  -8.435 -19.171  0.00  0.00     0.274 HD
HETATM   12  H           1     -31.198  -6.928 -18.873  0.00  0.00     0.274 HD
HETATM   13  H           1     -29.518  -7.008 -19.162  0.00  0.00     0.274 HD
ENDBRANCH   9  10
ENDBRANCH   8   9
ENDBRANCH   7   8
ENDBRANCH   6   7
ENDBRANCH   5   6
BRANCH   5  14
HETATM   14  C           1     -25.445  -6.387 -15.710  0.00  0.00     0.196 C 
HETATM   15  O           1     -25.011  -7.512 -15.382  0.00  0.00    -0.646 OA
HETATM   16  O           1     -24.885  -5.354 -15.286  0.00  0.00    -0.646 OA
ENDBRANCH   5  14
ENDBRANCH   2   5
BRANCH   1  17
HETATM   17  C           1     -26.602  -6.742 -20.422  0.00  0.00     0.297 C 
BRANCH  17  18
HETATM   18  C           1     -27.287  -8.073 -20.706  0.00  0.00     0.206 C 
BRANCH  18  19
HETATM   19  O           1     -26.523  -8.804 -21.626  0.00  0.00    -0.398 OA
HETATM   20  H           1     -26.273  -8.206 -22.310  0.00  0.00     0.209 HD
ENDBRANCH  18  19
ENDBRANCH  17  18
BRANCH  17  21
HETATM   21  N           1     -25.114  -6.919 -20.506  0.00  0.00    -0.064 N 
HETATM   22  H           1     -24.693  -6.104 -21.007  0.00  0.00     0.275 HD
HETATM   23  H           1     -24.716  -6.978 -19.541  0.00  0.00     0.275 HD
HETATM   24  H           1     -24.897  -7.798 -21.027  0.00  0.00     0.275 HD
ENDBRANCH  17  21
ENDBRANCH   1  17
TORSDOF 11
ENDMDL
MODEL 9
REMARK VINA RESULT:      -5.0      5.745      8.785
REMARK  11 active torsions:
REMARK  status: ('A' for Active; 'I' for Inactive)
REMARK    1  A    between atoms: C_2  and  N_19 
REMARK    2  A    between atoms: C_2  and  C_17 
REMARK    3  A    between atoms: C_4  and  C_10 
REMARK    4  A    between atoms: C_4  and  O_5 
REMARK    5  A    between atoms: N_6  and  C_10 
REMARK       I    between atoms: C_7  and  N_8 
REMARK    6  A    between atoms: C_7  and  C_10 
REMARK    7  A    between atoms: N_8  and  C_21 
REMARK    8  A    between atoms: C_9  and  C_17 
REMARK    9  A    between atoms: C_9  and  C_22 
REMARK   10  A    between atoms: C_21  and  C_22 
REMARK   11  A    between atoms: C_21  and  C_24 
ROOT
HETATM    1  C           1     -19.903  -9.018  -4.968  0.00  0.00     0.251 C 
HETATM    2  N           1     -20.602  -8.122  -5.733  0.00  0.00    -0.345 N 
HETATM    3  O           1     -19.248  -8.630  -4.030  0.00  0.00    -0.271 OA
HETATM    4  H           1     -21.150  -8.448  -6.519  0.00  0.00     0.163 HD
ENDROOT
BRANCH   2   5
HETATM    5  C           1     -20.556  -6.708  -5.416  0.00  0.00     0.185 C 
BRANCH   5   6
HETATM    6  C           1     -20.543  -5.899  -6.706  0.00  0.00     0.036 C 
BRANCH   6   7
HETATM    7  C           1     -20.312  -4.429  -6.381  0.00  0.00     0.004 C 
BRANCH   7   8
HETATM    8  C           1     -21.225  -3.569  -7.244  0.00  0.00     0.027 C 
BRANCH   8   9
HETATM    9  C           1     -22.220  -4.459  -7.977  0.00  0.00     0.229 C 
BRANCH   9  10
HETATM   10  N           1     -23.586  -4.277  -7.384  0.00  0.00    -0.079 N 
HETATM   11  H           1     -24.136  -5.157  -7.500  0.00  0.00     0.274 HD
HETATM   12  H           1     -23.497  -4.051  -6.367  0.00  0.00     0.274 HD
HETATM   13  H           1     -24.077  -3.494  -7.873  0.00  0.00     0.274 HD
ENDBRANCH   9  10
ENDBRANCH   8   9
ENDBRANCH   7   8
ENDBRANCH   6   7
ENDBRANCH   5   6
BRANCH   5  14
HETATM   14  C           1     -21.772  -6.337  -4.601  0.00  0.00     0.196 C 
HETATM   15  O           1     -22.907  -6.368  -5.123  0.00  0.00    -0.646 OA
HETATM   16  O           1     -21.643  -6.000  -3.405  0.00  0.00    -0.646 OA
ENDBRANCH   5  14
ENDBRANCH   2   5
BRANCH   1  17
HETATM   17  C           1     -19.950 -10.489  -5.299  0.00  0.00     0.297 C 
BRANCH  17  18
HETATM   18  C           1     -18.649 -10.900  -5.978  0.00  0.00     0.206 C 
BRANCH  18  19
HETATM   19  O           1     -17.976  -9.757  -6.429  0.00  0.00    -0.398 OA
HETATM   20  H           1     -18.546  -9.328  -7.044  0.00  0.00     0.209 HD
ENDBRANCH  18  19
ENDBRANCH  17  18
BRANCH  17  21
HETATM   21  N           1     -21.101 -10.758  -6.223  0.00  0.00    -0.064 N 
HETATM   22  H           1     -21.915 -10.162  -5.950  0.00  0.00     0.275 HD
HETATM   23  H           1     -20.819 -10.534  -7.204  0.00  0.00     0.275 HD
HETATM   24  H           1     -21.370 -11.765  -6.159  0.00  0.00     0.275 HD
ENDBRANCH  17  21
ENDBRANCH   1  17
TORSDOF 11
ENDMDL
