MODEL 1
REMARK VINA RESULT:      -8.2      0.000      0.000
REMARK  8 active torsions:
REMARK  status: ('A' for Active; 'I' for Inactive)
REMARK    1  A    between atoms: C_3  and  C_23 
REMARK    2  A    between atoms: C_5  and  C_21 
REMARK    3  A    between atoms: C_5  and  C_12 
REMARK    4  A    between atoms: C_5  and  N_25 
REMARK       I    between atoms: C_6  and  N_25 
REMARK    5  A    between atoms: C_6  and  C_17 
REMARK    6  A    between atoms: C_9  and  C_12 
REMARK    7  A    between atoms: N_11  and  C_17 
REMARK    8  A    between atoms: C_17  and  C_23 
ROOT
HETATM    1  C           1     -21.882  -6.605  -5.709  0.00  0.00     0.190 C 
ENDROOT
BRANCH   1   2
HETATM    2  C           1     -20.914  -7.758  -5.600  0.00  0.00     0.197 C 
HETATM    3  O           1     -21.343  -8.930  -5.532  0.00  0.00    -0.646 OA
HETATM    4  O           1     -19.684  -7.541  -5.578  0.00  0.00    -0.646 OA
ENDBRANCH   1   2
BRANCH   1   5
HETATM    5  C           1     -21.162  -5.391  -6.281  0.00  0.00     0.077 C 
BRANCH   5   6
HETATM    6  C           1     -21.998  -4.779  -7.363  0.00  0.00    -0.028 A 
HETATM    7  C           1     -23.314  -4.393  -7.250  0.00  0.00     0.096 A 
HETATM    8  N           1     -23.706  -3.884  -8.461  0.00  0.00    -0.365 N 
HETATM    9  H           1     -24.663  -3.508  -8.673  0.00  0.00     0.165 HD
HETATM   10  C           1     -22.662  -3.932  -9.358  0.00  0.00     0.042 A 
HETATM   11  C           1     -21.573  -4.493  -8.690  0.00  0.00    -0.002 A 
HETATM   12  C           1     -22.600  -3.527 -10.696  0.00  0.00     0.030 A 
HETATM   13  C           1     -20.362  -4.660  -9.388  0.00  0.00     0.014 A 
HETATM   14  C           1     -20.283  -4.259 -10.727  0.00  0.00     0.001 A 
HETATM   15  C           1     -21.387  -3.702 -11.369  0.00  0.00     0.002 A 
ENDBRANCH   5   6
ENDBRANCH   1   5
BRANCH   1  16
HETATM   16  N           1     -22.400  -6.284  -4.393  0.00  0.00    -0.344 N 
HETATM   17  C           1     -21.602  -6.425  -3.290  0.00  0.00     0.249 C 
HETATM   18  O           1     -20.921  -5.500  -2.915  0.00  0.00    -0.271 OA
HETATM   19  H           1     -23.352  -5.954  -4.291  0.00  0.00     0.163 HD
BRANCH  17  20
HETATM   20  C           1     -21.573  -7.735  -2.543  0.00  0.00     0.275 C 
BRANCH  20  21
HETATM   21  N           1     -20.170  -8.264  -2.514  0.00  0.00    -0.066 N 
HETATM   22  H           1     -19.606  -7.720  -1.823  0.00  0.00     0.275 HD
HETATM   23  H           1     -20.183  -9.271  -2.236  0.00  0.00     0.275 HD
HETATM   24  H           1     -19.744  -8.169  -3.464  0.00  0.00     0.275 HD
ENDBRANCH  20  21
BRANCH  20  25
HETATM   25  C           1     -22.063  -7.518  -1.117  0.00  0.00     0.046 C 
BRANCH  25  26
HETATM   26  C           1     -21.777  -8.764  -0.287  0.00  0.00    -0.020 C 
HETATM   27  C           1     -23.013  -9.653  -0.264  0.00  0.00     0.009 C 
HETATM   28  C           1     -21.419  -8.355   1.136  0.00  0.00     0.009 C 
ENDBRANCH  25  26
ENDBRANCH  20  25
ENDBRANCH  17  20
ENDBRANCH   1  16
TORSDOF 8
ENDMDL
MODEL 2
REMARK VINA RESULT:      -7.9      1.883      7.716
REMARK  8 active torsions:
REMARK  status: ('A' for Active; 'I' for Inactive)
REMARK    1  A    between atoms: C_3  and  C_23 
REMARK    2  A    between atoms: C_5  and  C_21 
REMARK    3  A    between atoms: C_5  and  C_12 
REMARK    4  A    between atoms: C_5  and  N_25 
REMARK       I    between atoms: C_6  and  N_25 
REMARK    5  A    between atoms: C_6  and  C_17 
REMARK    6  A    between atoms: C_9  and  C_12 
REMARK    7  A    between atoms: N_11  and  C_17 
REMARK    8  A    between atoms: C_17  and  C_23 
ROOT
HETATM    1  C           1     -20.735  -5.201  -6.165  0.00  0.00     0.190 C 
ENDROOT
BRANCH   1   2
HETATM    2  C           1     -19.664  -5.321  -7.222  0.00  0.00     0.197 C 
HETATM    3  O           1     -18.791  -4.434  -7.330  0.00  0.00    -0.646 OA
HETATM    4  O           1     -19.650  -6.308  -7.988  0.00  0.00    -0.646 OA
ENDBRANCH   1   2
BRANCH   1   5
HETATM    5  C           1     -21.500  -6.515  -6.066  0.00  0.00     0.077 C 
BRANCH   5   6
HETATM    6  C           1     -20.960  -7.322  -4.926  0.00  0.00    -0.028 A 
HETATM    7  C           1     -20.027  -8.330  -5.016  0.00  0.00     0.096 A 
HETATM    8  N           1     -19.807  -8.811  -3.752  0.00  0.00    -0.365 N 
HETATM    9  H           1     -19.141  -9.586  -3.512  0.00  0.00     0.165 HD
HETATM   10  C           1     -20.584  -8.130  -2.841  0.00  0.00     0.042 A 
HETATM   11  C           1     -21.321  -7.185  -3.557  0.00  0.00    -0.002 A 
HETATM   12  C           1     -20.690  -8.276  -1.454  0.00  0.00     0.030 A 
HETATM   13  C           1     -22.208  -6.345  -2.856  0.00  0.00     0.014 A 
HETATM   14  C           1     -22.325  -6.479  -1.468  0.00  0.00     0.001 A 
HETATM   15  C           1     -21.576  -7.431  -0.779  0.00  0.00     0.002 A 
ENDBRANCH   5   6
ENDBRANCH   1   5
BRANCH   1  16
HETATM   16  N           1     -21.651  -4.136  -6.525  0.00  0.00    -0.344 N 
HETATM   17  C           1     -22.849  -4.433  -7.115  0.00  0.00     0.249 C 
HETATM   18  O           1     -23.826  -4.631  -6.432  0.00  0.00    -0.271 OA
HETATM   19  H           1     -21.403  -3.172  -6.339  0.00  0.00     0.163 HD
BRANCH  17  20
HETATM   20  C           1     -22.950  -4.514  -8.618  0.00  0.00     0.275 C 
BRANCH  20  21
HETATM   21  N           1     -24.315  -4.069  -9.052  0.00  0.00    -0.066 N 
HETATM   22  H           1     -24.276  -3.071  -9.359  0.00  0.00     0.275 HD
HETATM   23  H           1     -24.638  -4.664  -9.848  0.00  0.00     0.275 HD
HETATM   24  H           1     -24.982  -4.162  -8.253  0.00  0.00     0.275 HD
ENDBRANCH  20  21
BRANCH  20  25
HETATM   25  C           1     -21.898  -3.611  -9.248  0.00  0.00     0.046 C 
BRANCH  25  26
HETATM   26  C           1     -21.625  -4.069 -10.676  0.00  0.00    -0.020 C 
HETATM   27  C           1     -20.132  -4.318 -10.852  0.00  0.00     0.009 C 
HETATM   28  C           1     -22.077  -2.989 -11.650  0.00  0.00     0.009 C 
ENDBRANCH  25  26
ENDBRANCH  20  25
ENDBRANCH  17  20
ENDBRANCH   1  16
TORSDOF 8
ENDMDL
MODEL 3
REMARK VINA RESULT:      -7.8      1.801      7.570
REMARK  8 active torsions:
REMARK  status: ('A' for Active; 'I' for Inactive)
REMARK    1  A    between atoms: C_3  and  C_23 
REMARK    2  A    between atoms: C_5  and  C_21 
REMARK    3  A    between atoms: C_5  and  C_12 
REMARK    4  A    between atoms: C_5  and  N_25 
REMARK       I    between atoms: C_6  and  N_25 
REMARK    5  A    between atoms: C_6  and  C_17 
REMARK    6  A    between atoms: C_9  and  C_12 
REMARK    7  A    between atoms: N_11  and  C_17 
REMARK    8  A    between atoms: C_17  and  C_23 
ROOT
HETATM    1  C           1     -20.010  -7.403  -5.341  0.00  0.00     0.190 C 
ENDROOT
BRANCH   1   2
HETATM    2  C           1     -19.027  -8.546  -5.270  0.00  0.00     0.197 C 
HETATM    3  O           1     -18.442  -8.933  -6.304  0.00  0.00    -0.646 OA
HETATM    4  O           1     -18.798  -9.106  -4.177  0.00  0.00    -0.646 OA
ENDBRANCH   1   2
BRANCH   1   5
HETATM    5  C           1     -21.386  -7.889  -4.906  0.00  0.00     0.077 C 
BRANCH   5   6
HETATM    6  C           1     -21.713  -7.321  -3.559  0.00  0.00    -0.028 A 
HETATM    7  C           1     -21.990  -6.001  -3.281  0.00  0.00     0.096 A 
HETATM    8  N           1     -22.234  -5.900  -1.936  0.00  0.00    -0.365 N 
HETATM    9  H           1     -22.475  -5.008  -1.436  0.00  0.00     0.165 HD
HETATM   10  C           1     -22.121  -7.134  -1.337  0.00  0.00     0.042 A 
HETATM   11  C           1     -21.792  -8.047  -2.339  0.00  0.00    -0.002 A 
HETATM   12  C           1     -22.282  -7.507   0.002  0.00  0.00     0.030 A 
HETATM   13  C           1     -21.614  -9.400  -1.991  0.00  0.00     0.014 A 
HETATM   14  C           1     -21.772  -9.791  -0.656  0.00  0.00     0.001 A 
HETATM   15  C           1     -22.101  -8.856   0.324  0.00  0.00     0.002 A 
ENDBRANCH   5   6
ENDBRANCH   1   5
BRANCH   1  16
HETATM   16  N           1     -20.081  -6.912  -6.704  0.00  0.00    -0.344 N 
HETATM   17  C           1     -20.165  -5.567  -6.943  0.00  0.00     0.249 C 
HETATM   18  O           1     -19.157  -4.914  -7.081  0.00  0.00    -0.271 OA
HETATM   19  H           1     -20.068  -7.564  -7.478  0.00  0.00     0.163 HD
BRANCH  17  20
HETATM   20  C           1     -21.515  -4.899  -7.034  0.00  0.00     0.275 C 
BRANCH  20  21
HETATM   21  N           1     -21.355  -3.421  -6.844  0.00  0.00    -0.066 N 
HETATM   22  H           1     -22.276  -2.948  -6.989  0.00  0.00     0.275 HD
HETATM   23  H           1     -21.015  -3.229  -5.875  0.00  0.00     0.275 HD
HETATM   24  H           1     -20.663  -3.054  -7.536  0.00  0.00     0.275 HD
ENDBRANCH  20  21
BRANCH  20  25
HETATM   25  C           1     -22.126  -5.173  -8.402  0.00  0.00     0.046 C 
BRANCH  25  26
HETATM   26  C           1     -22.026  -3.919  -9.262  0.00  0.00    -0.020 C 
HETATM   27  C           1     -23.384  -3.622  -9.886  0.00  0.00     0.009 C 
HETATM   28  C           1     -20.999  -4.141 -10.365  0.00  0.00     0.009 C 
ENDBRANCH  25  26
ENDBRANCH  20  25
ENDBRANCH  17  20
ENDBRANCH   1  16
TORSDOF 8
ENDMDL
MODEL 4
REMARK VINA RESULT:      -7.7      3.227      7.233
REMARK  8 active torsions:
REMARK  status: ('A' for Active; 'I' for Inactive)
REMARK    1  A    between atoms: C_3  and  C_23 
REMARK    2  A    between atoms: C_5  and  C_21 
REMARK    3  A    between atoms: C_5  and  C_12 
REMARK    4  A    between atoms: C_5  and  N_25 
REMARK       I    between atoms: C_6  and  N_25 
REMARK    5  A    between atoms: C_6  and  C_17 
REMARK    6  A    between atoms: C_9  and  C_12 
REMARK    7  A    between atoms: N_11  and  C_17 
REMARK    8  A    between atoms: C_17  and  C_23 
ROOT
HETATM    1  C           1     -21.405  -7.821  -2.365  0.00  0.00     0.190 C 
ENDROOT
BRANCH   1   2
HETATM    2  C           1     -22.173  -7.807  -1.066  0.00  0.00     0.197 C 
HETATM    3  O           1     -22.167  -8.814  -0.325  0.00  0.00    -0.646 OA
HETATM    4  O           1     -22.815  -6.789  -0.730  0.00  0.00    -0.646 OA
ENDBRANCH   1   2
BRANCH   1   5
HETATM    5  C           1     -19.971  -8.262  -2.103  0.00  0.00     0.077 C 
BRANCH   5   6
HETATM    6  C           1     -19.538  -9.215  -3.174  0.00  0.00    -0.028 A 
HETATM    7  C           1     -20.362  -9.849  -4.077  0.00  0.00     0.096 A 
HETATM    8  N           1     -19.576 -10.632  -4.881  0.00  0.00    -0.365 N 
HETATM    9  H           1     -19.931 -11.233  -5.666  0.00  0.00     0.165 HD
HETATM   10  C           1     -18.254 -10.516  -4.514  0.00  0.00     0.042 A 
HETATM   11  C           1     -18.203  -9.629  -3.439  0.00  0.00    -0.002 A 
HETATM   12  C           1     -17.111 -11.123  -5.046  0.00  0.00     0.030 A 
HETATM   13  C           1     -16.953  -9.331  -2.864  0.00  0.00     0.014 A 
HETATM   14  C           1     -15.800  -9.930  -3.384  0.00  0.00     0.001 A 
HETATM   15  C           1     -15.881 -10.813  -4.460  0.00  0.00     0.002 A 
ENDBRANCH   5   6
ENDBRANCH   1   5
BRANCH   1  16
HETATM   16  N           1     -21.403  -6.488  -2.938  0.00  0.00    -0.344 N 
HETATM   17  C           1     -21.653  -6.316  -4.272  0.00  0.00     0.249 C 
HETATM   18  O           1     -22.787  -6.152  -4.658  0.00  0.00    -0.271 OA
HETATM   19  H           1     -21.216  -5.686  -2.350  0.00  0.00     0.163 HD
BRANCH  17  20
HETATM   20  C           1     -20.514  -6.333  -5.262  0.00  0.00     0.275 C 
BRANCH  20  21
HETATM   21  N           1     -20.910  -7.135  -6.466  0.00  0.00    -0.066 N 
HETATM   22  H           1     -20.057  -7.546  -6.908  0.00  0.00     0.275 HD
HETATM   23  H           1     -21.555  -7.904  -6.175  0.00  0.00     0.275 HD
HETATM   24  H           1     -21.395  -6.515  -7.153  0.00  0.00     0.275 HD
ENDBRANCH  20  21
BRANCH  20  25
HETATM   25  C           1     -20.189  -4.907  -5.687  0.00  0.00     0.046 C 
BRANCH  25  26
HETATM   26  C           1     -20.523  -4.728  -7.162  0.00  0.00    -0.020 C 
HETATM   27  C           1     -19.279  -4.270  -7.912  0.00  0.00     0.009 C 
HETATM   28  C           1     -21.619  -3.681  -7.311  0.00  0.00     0.009 C 
ENDBRANCH  25  26
ENDBRANCH  20  25
ENDBRANCH  17  20
ENDBRANCH   1  16
TORSDOF 8
ENDMDL
MODEL 5
REMARK VINA RESULT:      -7.6      1.771      8.045
REMARK  8 active torsions:
REMARK  status: ('A' for Active; 'I' for Inactive)
REMARK    1  A    between atoms: C_3  and  C_23 
REMARK    2  A    between atoms: C_5  and  C_21 
REMARK    3  A    between atoms: C_5  and  C_12 
REMARK    4  A    between atoms: C_5  and  N_25 
REMARK       I    between atoms: C_6  and  N_25 
REMARK    5  A    between atoms: C_6  and  C_17 
REMARK    6  A    between atoms: C_9  and  C_12 
REMARK    7  A    between atoms: N_11  and  C_17 
REMARK    8  A    between atoms: C_17  and  C_23 
ROOT
HETATM    1  C           1     -21.216  -7.340  -5.668  0.00  0.00     0.190 C 
ENDROOT
BRANCH   1   2
HETATM    2  C           1     -21.932  -6.228  -4.940  0.00  0.00     0.197 C 
HETATM    3  O           1     -21.350  -5.600  -4.030  0.00  0.00    -0.646 OA
HETATM    4  O           1     -23.107  -5.935  -5.248  0.00  0.00    -0.646 OA
ENDBRANCH   1   2
BRANCH   1   5
HETATM    5  C           1     -20.288  -8.064  -4.702  0.00  0.00     0.077 C 
BRANCH   5   6
HETATM    6  C           1     -21.086  -9.003  -3.851  0.00  0.00    -0.028 A 
HETATM    7  C           1     -21.650 -10.189  -4.262  0.00  0.00     0.096 A 
HETATM    8  N           1     -22.293 -10.742  -3.185  0.00  0.00    -0.365 N 
HETATM    9  H           1     -22.815 -11.653  -3.201  0.00  0.00     0.165 HD
HETATM   10  C           1     -22.155  -9.931  -2.081  0.00  0.00     0.042 A 
HETATM   11  C           1     -21.398  -8.828  -2.474  0.00  0.00    -0.002 A 
HETATM   12  C           1     -22.638 -10.090  -0.777  0.00  0.00     0.030 A 
HETATM   13  C           1     -21.107  -7.831  -1.523  0.00  0.00     0.014 A 
HETATM   14  C           1     -21.582  -7.974  -0.214  0.00  0.00     0.001 A 
HETATM   15  C           1     -22.337  -9.088   0.151  0.00  0.00     0.002 A 
ENDBRANCH   5   6
ENDBRANCH   1   5
BRANCH   1  16
HETATM   16  N           1     -20.439  -6.781  -6.757  0.00  0.00    -0.344 N 
HETATM   17  C           1     -20.504  -5.441  -7.027  0.00  0.00     0.249 C 
HETATM   18  O           1     -19.735  -4.679  -6.489  0.00  0.00    -0.271 OA
HETATM   19  H           1     -19.848  -7.382  -7.317  0.00  0.00     0.163 HD
BRANCH  17  20
HETATM   20  C           1     -21.534  -4.915  -7.996  0.00  0.00     0.275 C 
BRANCH  20  21
HETATM   21  N           1     -22.194  -3.701  -7.413  0.00  0.00    -0.066 N 
HETATM   22  H           1     -22.655  -3.953  -6.510  0.00  0.00     0.275 HD
HETATM   23  H           1     -21.475  -2.962  -7.242  0.00  0.00     0.275 HD
HETATM   24  H           1     -22.912  -3.341  -8.081  0.00  0.00     0.275 HD
ENDBRANCH  20  21
BRANCH  20  25
HETATM   25  C           1     -20.856  -4.544  -9.308  0.00  0.00     0.046 C 
BRANCH  25  26
HETATM   26  C           1     -21.834  -3.771 -10.184  0.00  0.00    -0.020 C 
HETATM   27  C           1     -22.952  -4.701 -10.638  0.00  0.00     0.009 C 
HETATM   28  C           1     -21.102  -3.224 -11.402  0.00  0.00     0.009 C 
ENDBRANCH  25  26
ENDBRANCH  20  25
ENDBRANCH  17  20
ENDBRANCH   1  16
TORSDOF 8
ENDMDL
MODEL 6
REMARK VINA RESULT:      -7.6      2.318      3.321
REMARK  8 active torsions:
REMARK  status: ('A' for Active; 'I' for Inactive)
REMARK    1  A    between atoms: C_3  and  C_23 
REMARK    2  A    between atoms: C_5  and  C_21 
REMARK    3  A    between atoms: C_5  and  C_12 
REMARK    4  A    between atoms: C_5  and  N_25 
REMARK       I    between atoms: C_6  and  N_25 
REMARK    5  A    between atoms: C_6  and  C_17 
REMARK    6  A    between atoms: C_9  and  C_12 
REMARK    7  A    between atoms: N_11  and  C_17 
REMARK    8  A    between atoms: C_17  and  C_23 
ROOT
HETATM    1  C           1     -20.666  -9.358  -4.553  0.00  0.00     0.190 C 
ENDROOT
BRANCH   1   2
HETATM    2  C           1     -20.308 -10.460  -5.520  0.00  0.00     0.197 C 
HETATM    3  O           1     -21.145 -10.848  -6.363  0.00  0.00    -0.646 OA
HETATM    4  O           1     -19.174 -10.985  -5.478  0.00  0.00    -0.646 OA
ENDBRANCH   1   2
BRANCH   1   5
HETATM    5  C           1     -19.920  -8.086  -4.935  0.00  0.00     0.077 C 
BRANCH   5   6
HETATM    6  C           1     -20.904  -7.039  -5.359  0.00  0.00    -0.028 A 
HETATM    7  C           1     -22.185  -6.888  -4.878  0.00  0.00     0.096 A 
HETATM    8  N           1     -22.750  -5.819  -5.523  0.00  0.00    -0.365 N 
HETATM    9  H           1     -23.725  -5.465  -5.358  0.00  0.00     0.165 HD
HETATM   10  C           1     -21.855  -5.273  -6.415  0.00  0.00     0.042 A 
HETATM   11  C           1     -20.683  -6.025  -6.331  0.00  0.00    -0.002 A 
HETATM   12  C           1     -21.992  -4.182  -7.281  0.00  0.00     0.030 A 
HETATM   13  C           1     -19.592  -5.675  -7.151  0.00  0.00     0.014 A 
HETATM   14  C           1     -19.713  -4.586  -8.023  0.00  0.00     0.001 A 
HETATM   15  C           1     -20.896  -3.853  -8.085  0.00  0.00     0.002 A 
ENDBRANCH   5   6
ENDBRANCH   1   5
BRANCH   1  16
HETATM   16  N           1     -20.288  -9.753  -3.209  0.00  0.00    -0.344 N 
HETATM   17  C           1     -21.146 -10.501  -2.449  0.00  0.00     0.249 C 
HETATM   18  O           1     -21.096 -11.708  -2.493  0.00  0.00    -0.271 OA
HETATM   19  H           1     -19.390  -9.476  -2.835  0.00  0.00     0.163 HD
BRANCH  17  20
HETATM   20  C           1     -22.154  -9.819  -1.558  0.00  0.00     0.275 C 
BRANCH  20  21
HETATM   21  N           1     -23.262 -10.777  -1.233  0.00  0.00    -0.066 N 
HETATM   22  H           1     -23.275 -10.960  -0.204  0.00  0.00     0.275 HD
HETATM   23  H           1     -24.177 -10.362  -1.523  0.00  0.00     0.275 HD
HETATM   24  H           1     -23.107 -11.674  -1.745  0.00  0.00     0.275 HD
ENDBRANCH  20  21
BRANCH  20  25
HETATM   25  C           1     -21.475  -9.373  -0.270  0.00  0.00     0.046 C 
BRANCH  25  26
HETATM   26  C           1     -21.894  -7.945   0.057  0.00  0.00    -0.020 C 
HETATM   27  C           1     -23.240  -7.962   0.770  0.00  0.00     0.009 C 
HETATM   28  C           1     -22.012  -7.144  -1.232  0.00  0.00     0.009 C 
ENDBRANCH  25  26
ENDBRANCH  20  25
ENDBRANCH  17  20
ENDBRANCH   1  16
TORSDOF 8
ENDMDL
MODEL 7
REMARK VINA RESULT:      -7.6      1.770      7.457
REMARK  8 active torsions:
REMARK  status: ('A' for Active; 'I' for Inactive)
REMARK    1  A    between atoms: C_3  and  C_23 
REMARK    2  A    between atoms: C_5  and  C_21 
REMARK    3  A    between atoms: C_5  and  C_12 
REMARK    4  A    between atoms: C_5  and  N_25 
REMARK       I    between atoms: C_6  and  N_25 
REMARK    5  A    between atoms: C_6  and  C_17 
REMARK    6  A    between atoms: C_9  and  C_12 
REMARK    7  A    between atoms: N_11  and  C_17 
REMARK    8  A    between atoms: C_17  and  C_23 
ROOT
HETATM    1  C           1     -19.843  -7.917  -5.225  0.00  0.00     0.190 C 
ENDROOT
BRANCH   1   2
HETATM    2  C           1     -18.731  -8.938  -5.221  0.00  0.00     0.197 C 
HETATM    3  O           1     -18.344  -9.445  -6.296  0.00  0.00    -0.646 OA
HETATM    4  O           1     -18.197  -9.276  -4.143  0.00  0.00    -0.646 OA
ENDBRANCH   1   2
BRANCH   1   5
HETATM    5  C           1     -21.188  -8.631  -5.250  0.00  0.00     0.077 C 
BRANCH   5   6
HETATM    6  C           1     -21.504  -9.148  -3.881  0.00  0.00    -0.028 A 
HETATM    7  C           1     -21.586 -10.473  -3.514  0.00  0.00     0.096 A 
HETATM    8  N           1     -21.896 -10.518  -2.179  0.00  0.00    -0.365 N 
HETATM    9  H           1     -22.022 -11.399  -1.622  0.00  0.00     0.165 HD
HETATM   10  C           1     -22.016  -9.242  -1.674  0.00  0.00     0.042 A 
HETATM   11  C           1     -21.774  -8.360  -2.728  0.00  0.00    -0.002 A 
HETATM   12  C           1     -22.319  -8.807  -0.379  0.00  0.00     0.030 A 
HETATM   13  C           1     -21.837  -6.975  -2.480  0.00  0.00     0.014 A 
HETATM   14  C           1     -22.138  -6.523  -1.190  0.00  0.00     0.001 A 
HETATM   15  C           1     -22.375  -7.428  -0.157  0.00  0.00     0.002 A 
ENDBRANCH   5   6
ENDBRANCH   1   5
BRANCH   1  16
HETATM   16  N           1     -19.721  -7.075  -6.400  0.00  0.00    -0.344 N 
HETATM   17  C           1     -20.242  -5.810  -6.393  0.00  0.00     0.249 C 
HETATM   18  O           1     -19.563  -4.879  -6.029  0.00  0.00    -0.271 OA
HETATM   19  H           1     -19.250  -7.425  -7.225  0.00  0.00     0.163 HD
BRANCH  17  20
HETATM   20  C           1     -21.665  -5.577  -6.839  0.00  0.00     0.275 C 
BRANCH  20  21
HETATM   21  N           1     -22.563  -5.529  -5.640  0.00  0.00    -0.066 N 
HETATM   22  H           1     -22.715  -6.497  -5.277  0.00  0.00     0.275 HD
HETATM   23  H           1     -22.118  -4.945  -4.895  0.00  0.00     0.275 HD
HETATM   24  H           1     -23.482  -5.110  -5.909  0.00  0.00     0.275 HD
ENDBRANCH  20  21
BRANCH  20  25
HETATM   25  C           1     -21.752  -4.256  -7.592  0.00  0.00     0.046 C 
BRANCH  25  26
HETATM   26  C           1     -21.823  -4.528  -9.089  0.00  0.00    -0.020 C 
HETATM   27  C           1     -20.506  -4.127  -9.741  0.00  0.00     0.009 C 
HETATM   28  C           1     -22.959  -3.718  -9.699  0.00  0.00     0.009 C 
ENDBRANCH  25  26
ENDBRANCH  20  25
ENDBRANCH  17  20
ENDBRANCH   1  16
TORSDOF 8
ENDMDL
MODEL 8
REMARK VINA RESULT:      -7.5      2.259      7.838
REMARK  8 active torsions:
REMARK  status: ('A' for Active; 'I' for Inactive)
REMARK    1  A    between atoms: C_3  and  C_23 
REMARK    2  A    between atoms: C_5  and  C_21 
REMARK    3  A    between atoms: C_5  and  C_12 
REMARK    4  A    between atoms: C_5  and  N_25 
REMARK       I    between atoms: C_6  and  N_25 
REMARK    5  A    between atoms: C_6  and  C_17 
REMARK    6  A    between atoms: C_9  and  C_12 
REMARK    7  A    between atoms: N_11  and  C_17 
REMARK    8  A    between atoms: C_17  and  C_23 
ROOT
HETATM    1  C           1     -20.341  -8.797  -4.548  0.00  0.00     0.190 C 
ENDROOT
BRANCH   1   2
HETATM    2  C           1     -19.011  -9.434  -4.868  0.00  0.00     0.197 C 
HETATM    3  O           1     -18.870 -10.092  -5.921  0.00  0.00    -0.646 OA
HETATM    4  O           1     -18.050  -9.304  -4.080  0.00  0.00    -0.646 OA
ENDBRANCH   1   2
BRANCH   1   5
HETATM    5  C           1     -21.295  -9.856  -4.011  0.00  0.00     0.077 C 
BRANCH   5   6
HETATM    6  C           1     -21.022 -10.082  -2.556  0.00  0.00    -0.028 A 
HETATM    7  C           1     -20.359 -11.160  -2.014  0.00  0.00     0.096 A 
HETATM    8  N           1     -20.322 -10.987  -0.655  0.00  0.00    -0.365 N 
HETATM    9  H           1     -19.877 -11.654   0.023  0.00  0.00     0.165 HD
HETATM   10  C           1     -20.952  -9.812  -0.307  0.00  0.00     0.042 A 
HETATM   11  C           1     -21.403  -9.223  -1.488  0.00  0.00    -0.002 A 
HETATM   12  C           1     -21.155  -9.233   0.951  0.00  0.00     0.030 A 
HETATM   13  C           1     -22.090  -7.997  -1.415  0.00  0.00     0.014 A 
HETATM   14  C           1     -22.301  -7.404  -0.164  0.00  0.00     0.001 A 
HETATM   15  C           1     -21.839  -8.016   1.000  0.00  0.00     0.002 A 
ENDBRANCH   5   6
ENDBRANCH   1   5
BRANCH   1  16
HETATM   16  N           1     -20.898  -8.212  -5.753  0.00  0.00    -0.344 N 
HETATM   17  C           1     -20.508  -6.963  -6.152  0.00  0.00     0.249 C 
HETATM   18  O           1     -19.560  -6.833  -6.890  0.00  0.00    -0.271 OA
HETATM   19  H           1     -21.575  -8.729  -6.299  0.00  0.00     0.163 HD
BRANCH  17  20
HETATM   20  C           1     -21.260  -5.747  -5.668  0.00  0.00     0.275 C 
BRANCH  20  21
HETATM   21  N           1     -21.391  -5.802  -4.176  0.00  0.00    -0.066 N 
HETATM   22  H           1     -20.589  -5.296  -3.736  0.00  0.00     0.275 HD
HETATM   23  H           1     -22.288  -5.348  -3.888  0.00  0.00     0.275 HD
HETATM   24  H           1     -21.388  -6.798  -3.862  0.00  0.00     0.275 HD
ENDBRANCH  20  21
BRANCH  20  25
HETATM   25  C           1     -20.501  -4.488  -6.066  0.00  0.00     0.046 C 
BRANCH  25  26
HETATM   26  C           1     -21.241  -3.785  -7.197  0.00  0.00    -0.020 C 
HETATM   27  C           1     -22.639  -4.375  -7.332  0.00  0.00     0.009 C 
HETATM   28  C           1     -20.480  -3.981  -8.501  0.00  0.00     0.009 C 
ENDBRANCH  25  26
ENDBRANCH  20  25
ENDBRANCH  17  20
ENDBRANCH   1  16
TORSDOF 8
ENDMDL
MODEL 9
REMARK VINA RESULT:      -7.3      2.431      7.603
REMARK  8 active torsions:
REMARK  status: ('A' for Active; 'I' for Inactive)
REMARK    1  A    between atoms: C_3  and  C_23 
REMARK    2  A    between atoms: C_5  and  C_21 
REMARK    3  A    between atoms: C_5  and  C_12 
REMARK    4  A    between atoms: C_5  and  N_25 
REMARK       I    between atoms: C_6  and  N_25 
REMARK    5  A    between atoms: C_6  and  C_17 
REMARK    6  A    between atoms: C_9  and  C_12 
REMARK    7  A    between atoms: N_11  and  C_17 
REMARK    8  A    between atoms: C_17  and  C_23 
ROOT
HETATM    1  C           1     -20.702  -4.800  -6.649  0.00  0.00     0.190 C 
ENDROOT
BRANCH   1   2
HETATM    2  C           1     -19.604  -4.764  -7.684  0.00  0.00     0.197 C 
HETATM    3  O           1     -19.792  -5.264  -8.813  0.00  0.00    -0.646 OA
HETATM    4  O           1     -18.506  -4.232  -7.411  0.00  0.00    -0.646 OA
ENDBRANCH   1   2
BRANCH   1   5
HETATM    5  C           1     -21.295  -6.201  -6.588  0.00  0.00     0.077 C 
BRANCH   5   6
HETATM    6  C           1     -21.239  -6.707  -5.179  0.00  0.00    -0.028 A 
HETATM    7  C           1     -22.034  -6.289  -4.135  0.00  0.00     0.096 A 
HETATM    8  N           1     -21.664  -6.995  -3.020  0.00  0.00    -0.365 N 
HETATM    9  H           1     -22.100  -6.889  -2.070  0.00  0.00     0.165 HD
HETATM   10  C           1     -20.640  -7.865  -3.324  0.00  0.00     0.042 A 
HETATM   11  C           1     -20.353  -7.702  -4.679  0.00  0.00    -0.002 A 
HETATM   12  C           1     -19.954  -8.773  -2.511  0.00  0.00     0.030 A 
HETATM   13  C           1     -19.331  -8.481  -5.255  0.00  0.00     0.014 A 
HETATM   14  C           1     -18.634  -9.395  -4.455  0.00  0.00     0.001 A 
HETATM   15  C           1     -18.943  -9.536  -3.103  0.00  0.00     0.002 A 
ENDBRANCH   5   6
ENDBRANCH   1   5
BRANCH   1  16
HETATM   16  N           1     -21.738  -3.853  -7.011  0.00  0.00    -0.344 N 
HETATM   17  C           1     -22.949  -4.302  -7.465  0.00  0.00     0.249 C 
HETATM   18  O           1     -23.844  -4.520  -6.682  0.00  0.00    -0.271 OA
HETATM   19  H           1     -21.566  -2.859  -6.929  0.00  0.00     0.163 HD
BRANCH  17  20
HETATM   20  C           1     -23.166  -4.527  -8.941  0.00  0.00     0.275 C 
BRANCH  20  21
HETATM   21  N           1     -24.635  -4.505  -9.239  0.00  0.00    -0.066 N 
HETATM   22  H           1     -25.106  -3.802  -8.626  0.00  0.00     0.275 HD
HETATM   23  H           1     -24.783  -4.247 -10.241  0.00  0.00     0.275 HD
HETATM   24  H           1     -25.041  -5.451  -9.059  0.00  0.00     0.275 HD
ENDBRANCH  20  21
BRANCH  20  25
HETATM   25  C           1     -22.472  -3.425  -9.730  0.00  0.00     0.046 C 
BRANCH  25  26
HETATM   26  C           1     -22.428  -3.807 -11.204  0.00  0.00    -0.020 C 
HETATM   27  C           1     -20.977  -3.928 -11.654  0.00  0.00     0.009 C 
HETATM   28  C           1     -23.126  -2.733 -12.028  0.00  0.00     0.009 C 
ENDBRANCH  25  26
ENDBRANCH  20  25
ENDBRANCH  17  20
ENDBRANCH   1  16
TORSDOF 8
ENDMDL
