MODEL 1
REMARK VINA RESULT:      -6.2      0.000      0.000
REMARK  6 active torsions:
REMARK  status: ('A' for Active; 'I' for Inactive)
REMARK    1  A    between atoms: C_4  and  C_13 
REMARK    2  A    between atoms: C_6  and  C_15 
REMARK    3  A    between atoms: N_12  and  C_13 
REMARK       I    between atoms: N_12  and  C_16 
REMARK    4  A    between atoms: N_14  and  C_17 
REMARK    5  A    between atoms: C_15  and  C_17 
REMARK    6  A    between atoms: C_16  and  C_17 
ROOT
HETATM    1  C           1     -34.428  -1.773 -11.812  0.00  0.00     0.278 C 
ENDROOT
BRANCH   1   2
HETATM    2  N           1     -34.959  -1.491 -10.437  0.00  0.00    -0.066 N 
HETATM    3  H           1     -35.968  -1.225 -10.502  0.00  0.00     0.275 HD
HETATM    4  H           1     -34.862  -2.347  -9.845  0.00  0.00     0.275 HD
HETATM    5  H           1     -34.419  -0.707 -10.008  0.00  0.00     0.275 HD
ENDBRANCH   1   2
BRANCH   1   6
HETATM    6  C           1     -34.280  -3.277 -11.999  0.00  0.00     0.021 C 
HETATM    7  C           1     -32.831  -3.678 -11.755  0.00  0.00     0.012 C 
BRANCH   6   8
HETATM    8  C           1     -35.181  -4.002 -11.009  0.00  0.00     0.002 C 
HETATM    9  C           1     -34.525  -5.311 -10.589  0.00  0.00     0.005 C 
ENDBRANCH   6   8
ENDBRANCH   1   6
BRANCH   1  10
HETATM   10  C           1     -35.387  -1.228 -12.842  0.00  0.00     0.249 C 
HETATM   11  O           1     -36.578  -1.270 -12.640  0.00  0.00    -0.271 OA
HETATM   12  N           1     -34.908  -0.688 -14.005  0.00  0.00    -0.349 N 
HETATM   13  H           1     -33.911  -0.654 -14.173  0.00  0.00     0.163 HD
BRANCH  12  14
HETATM   14  C           1     -35.829  -0.165 -14.995  0.00  0.00     0.235 C 
BRANCH  14  15
HETATM   15  C           1     -35.815  -1.051 -16.215  0.00  0.00     0.191 C 
HETATM   16  O           1     -35.060  -2.047 -16.255  0.00  0.00    -0.647 OA
HETATM   17  O           1     -36.558  -0.791 -17.186  0.00  0.00    -0.647 OA
ENDBRANCH  14  15
ENDBRANCH  12  14
ENDBRANCH   1  10
TORSDOF 6
ENDMDL
MODEL 2
REMARK VINA RESULT:      -6.2     11.524     12.855
REMARK  6 active torsions:
REMARK  status: ('A' for Active; 'I' for Inactive)
REMARK    1  A    between atoms: C_4  and  C_13 
REMARK    2  A    between atoms: C_6  and  C_15 
REMARK    3  A    between atoms: N_12  and  C_13 
REMARK       I    between atoms: N_12  and  C_16 
REMARK    4  A    between atoms: N_14  and  C_17 
REMARK    5  A    between atoms: C_15  and  C_17 
REMARK    6  A    between atoms: C_16  and  C_17 
ROOT
HETATM    1  C           1     -22.873  -3.555  -9.573  0.00  0.00     0.278 C 
ENDROOT
BRANCH   1   2
HETATM    2  N           1     -23.939  -3.726  -8.531  0.00  0.00    -0.066 N 
HETATM    3  H           1     -23.527  -4.174  -7.682  0.00  0.00     0.275 HD
HETATM    4  H           1     -24.330  -2.791  -8.277  0.00  0.00     0.275 HD
HETATM    5  H           1     -24.702  -4.333  -8.908  0.00  0.00     0.275 HD
ENDBRANCH   1   2
BRANCH   1   6
HETATM    6  C           1     -21.659  -4.393  -9.198  0.00  0.00     0.021 C 
HETATM    7  C           1     -20.550  -4.166 -10.217  0.00  0.00     0.012 C 
BRANCH   6   8
HETATM    8  C           1     -21.168  -3.983  -7.816  0.00  0.00     0.002 C 
HETATM    9  C           1     -19.709  -4.391  -7.653  0.00  0.00     0.005 C 
ENDBRANCH   6   8
ENDBRANCH   1   6
BRANCH   1  10
HETATM   10  C           1     -23.403  -4.006 -10.913  0.00  0.00     0.249 C 
HETATM   11  O           1     -23.806  -5.137 -11.053  0.00  0.00    -0.271 OA
HETATM   12  N           1     -23.426  -3.135 -11.968  0.00  0.00    -0.349 N 
HETATM   13  H           1     -23.088  -2.188 -11.850  0.00  0.00     0.163 HD
BRANCH  12  14
HETATM   14  C           1     -23.935  -3.567 -13.255  0.00  0.00     0.235 C 
BRANCH  14  15
HETATM   15  C           1     -23.510  -2.588 -14.320  0.00  0.00     0.191 C 
HETATM   16  O           1     -24.100  -1.492 -14.432  0.00  0.00    -0.647 OA
HETATM   17  O           1     -22.568  -2.872 -15.091  0.00  0.00    -0.647 OA
ENDBRANCH  14  15
ENDBRANCH  12  14
ENDBRANCH   1  10
TORSDOF 6
ENDMDL
MODEL 3
REMARK VINA RESULT:      -6.0      1.954      2.429
REMARK  6 active torsions:
REMARK  status: ('A' for Active; 'I' for Inactive)
REMARK    1  A    between atoms: C_4  and  C_13 
REMARK    2  A    between atoms: C_6  and  C_15 
REMARK    3  A    between atoms: N_12  and  C_13 
REMARK       I    between atoms: N_12  and  C_16 
REMARK    4  A    between atoms: N_14  and  C_17 
REMARK    5  A    between atoms: C_15  and  C_17 
REMARK    6  A    between atoms: C_16  and  C_17 
ROOT
HETATM    1  C           1     -33.677  -2.374 -11.486  0.00  0.00     0.278 C 
ENDROOT
BRANCH   1   2
HETATM    2  N           1     -34.083  -2.069 -10.074  0.00  0.00    -0.066 N 
HETATM    3  H           1     -33.765  -1.106  -9.821  0.00  0.00     0.275 HD
HETATM    4  H           1     -35.123  -2.125  -9.991  0.00  0.00     0.275 HD
HETATM    5  H           1     -33.643  -2.761  -9.427  0.00  0.00     0.275 HD
ENDBRANCH   1   2
BRANCH   1   6
HETATM    6  C           1     -33.774  -3.874 -11.728  0.00  0.00     0.021 C 
HETATM    7  C           1     -32.394  -4.426 -12.057  0.00  0.00     0.012 C 
BRANCH   6   8
HETATM    8  C           1     -34.307  -4.556 -10.475  0.00  0.00     0.002 C 
HETATM    9  C           1     -34.137  -6.064 -10.605  0.00  0.00     0.005 C 
ENDBRANCH   6   8
ENDBRANCH   1   6
BRANCH   1  10
HETATM   10  C           1     -34.594  -1.648 -12.440  0.00  0.00     0.249 C 
HETATM   11  O           1     -34.861  -2.140 -13.511  0.00  0.00    -0.271 OA
HETATM   12  N           1     -35.122  -0.434 -12.093  0.00  0.00    -0.349 N 
HETATM   13  H           1     -34.898  -0.023 -11.196  0.00  0.00     0.163 HD
BRANCH  12  14
HETATM   14  C           1     -36.003   0.263 -13.009  0.00  0.00     0.235 C 
BRANCH  14  15
HETATM   15  C           1     -37.393  -0.313 -12.910  0.00  0.00     0.191 C 
HETATM   16  O           1     -37.952  -0.406 -11.796  0.00  0.00    -0.647 OA
HETATM   17  O           1     -37.986  -0.698 -13.941  0.00  0.00    -0.647 OA
ENDBRANCH  14  15
ENDBRANCH  12  14
ENDBRANCH   1  10
TORSDOF 6
ENDMDL
MODEL 4
REMARK VINA RESULT:      -5.9     11.711     13.059
REMARK  6 active torsions:
REMARK  status: ('A' for Active; 'I' for Inactive)
REMARK    1  A    between atoms: C_4  and  C_13 
REMARK    2  A    between atoms: C_6  and  C_15 
REMARK    3  A    between atoms: N_12  and  C_13 
REMARK       I    between atoms: N_12  and  C_16 
REMARK    4  A    between atoms: N_14  and  C_17 
REMARK    5  A    between atoms: C_15  and  C_17 
REMARK    6  A    between atoms: C_16  and  C_17 
ROOT
HETATM    1  C           1     -21.514  -4.412 -10.787  0.00  0.00     0.278 C 
ENDROOT
BRANCH   1   2
HETATM    2  N           1     -20.274  -3.870 -11.436  0.00  0.00    -0.066 N 
HETATM    3  H           1     -20.205  -2.844 -11.252  0.00  0.00     0.275 HD
HETATM    4  H           1     -19.436  -4.353 -11.040  0.00  0.00     0.275 HD
HETATM    5  H           1     -20.319  -4.037 -12.466  0.00  0.00     0.275 HD
ENDBRANCH   1   2
BRANCH   1   6
HETATM    6  C           1     -21.719  -3.731  -9.440  0.00  0.00     0.021 C 
HETATM    7  C           1     -22.993  -4.259  -8.793  0.00  0.00     0.012 C 
BRANCH   6   8
HETATM    8  C           1     -20.531  -4.030  -8.536  0.00  0.00     0.002 C 
HETATM    9  C           1     -20.996  -4.080  -7.086  0.00  0.00     0.005 C 
ENDBRANCH   6   8
ENDBRANCH   1   6
BRANCH   1  10
HETATM   10  C           1     -22.704  -4.143 -11.675  0.00  0.00     0.249 C 
HETATM   11  O           1     -23.515  -5.016 -11.877  0.00  0.00    -0.271 OA
HETATM   12  N           1     -22.866  -2.912 -12.249  0.00  0.00    -0.349 N 
HETATM   13  H           1     -22.186  -2.181 -12.079  0.00  0.00     0.163 HD
BRANCH  12  14
HETATM   14  C           1     -24.009  -2.653 -13.102  0.00  0.00     0.235 C 
BRANCH  14  15
HETATM   15  C           1     -23.534  -2.200 -14.460  0.00  0.00     0.191 C 
HETATM   16  O           1     -22.643  -2.843 -15.057  0.00  0.00    -0.647 OA
HETATM   17  O           1     -24.030  -1.182 -14.988  0.00  0.00    -0.647 OA
ENDBRANCH  14  15
ENDBRANCH  12  14
ENDBRANCH   1  10
TORSDOF 6
ENDMDL
MODEL 5
REMARK VINA RESULT:      -5.6     10.935     12.214
REMARK  6 active torsions:
REMARK  status: ('A' for Active; 'I' for Inactive)
REMARK    1  A    between atoms: C_4  and  C_13 
REMARK    2  A    between atoms: C_6  and  C_15 
REMARK    3  A    between atoms: N_12  and  C_13 
REMARK       I    between atoms: N_12  and  C_16 
REMARK    4  A    between atoms: N_14  and  C_17 
REMARK    5  A    between atoms: C_15  and  C_17 
REMARK    6  A    between atoms: C_16  and  C_17 
ROOT
HETATM    1  C           1     -25.097  -6.575 -19.001  0.00  0.00     0.278 C 
ENDROOT
BRANCH   1   2
HETATM    2  N           1     -24.305  -7.538 -18.167  0.00  0.00    -0.066 N 
HETATM    3  H           1     -23.315  -7.211 -18.102  0.00  0.00     0.275 HD
HETATM    4  H           1     -24.719  -7.590 -17.208  0.00  0.00     0.275 HD
HETATM    5  H           1     -24.330  -8.485 -18.609  0.00  0.00     0.275 HD
ENDBRANCH   1   2
BRANCH   1   6
HETATM    6  C           1     -25.295  -7.155 -20.395  0.00  0.00     0.021 C 
HETATM    7  C           1     -25.363  -6.023 -21.411  0.00  0.00     0.012 C 
BRANCH   6   8
HETATM    8  C           1     -24.127  -8.071 -20.733  0.00  0.00     0.002 C 
HETATM    9  C           1     -23.866  -8.028 -22.233  0.00  0.00     0.005 C 
ENDBRANCH   6   8
ENDBRANCH   1   6
BRANCH   1  10
HETATM   10  C           1     -26.441  -6.338 -18.356  0.00  0.00     0.249 C 
HETATM   11  O           1     -26.505  -5.809 -17.272  0.00  0.00    -0.271 OA
HETATM   12  N           1     -27.586  -6.724 -19.000  0.00  0.00    -0.349 N 
HETATM   13  H           1     -27.531  -7.167 -19.907  0.00  0.00     0.163 HD
BRANCH  12  14
HETATM   14  C           1     -28.877  -6.497 -18.381  0.00  0.00     0.235 C 
BRANCH  14  15
HETATM   15  C           1     -29.572  -7.818 -18.166  0.00  0.00     0.191 C 
HETATM   16  O           1     -29.707  -8.272 -17.009  0.00  0.00    -0.647 OA
HETATM   17  O           1     -30.013  -8.459 -19.144  0.00  0.00    -0.647 OA
ENDBRANCH  14  15
ENDBRANCH  12  14
ENDBRANCH   1  10
TORSDOF 6
ENDMDL
MODEL 6
REMARK VINA RESULT:      -5.6      1.695      2.275
REMARK  6 active torsions:
REMARK  status: ('A' for Active; 'I' for Inactive)
REMARK    1  A    between atoms: C_4  and  C_13 
REMARK    2  A    between atoms: C_6  and  C_15 
REMARK    3  A    between atoms: N_12  and  C_13 
REMARK       I    between atoms: N_12  and  C_16 
REMARK    4  A    between atoms: N_14  and  C_17 
REMARK    5  A    between atoms: C_15  and  C_17 
REMARK    6  A    between atoms: C_16  and  C_17 
ROOT
HETATM    1  C           1     -33.483  -2.861 -11.365  0.00  0.00     0.278 C 
ENDROOT
BRANCH   1   2
HETATM    2  N           1     -33.252  -1.746 -10.389  0.00  0.00    -0.066 N 
HETATM    3  H           1     -33.318  -0.829 -10.887  0.00  0.00     0.275 HD
HETATM    4  H           1     -33.976  -1.787  -9.636  0.00  0.00     0.275 HD
HETATM    5  H           1     -32.302  -1.843  -9.966  0.00  0.00     0.275 HD
ENDBRANCH   1   2
BRANCH   1   6
HETATM    6  C           1     -34.120  -4.041 -10.643  0.00  0.00     0.021 C 
HETATM    7  C           1     -35.631  -3.993 -10.825  0.00  0.00     0.012 C 
BRANCH   6   8
HETATM    8  C           1     -33.581  -5.341 -11.225  0.00  0.00     0.002 C 
HETATM    9  C           1     -34.290  -6.522 -10.574  0.00  0.00     0.005 C 
ENDBRANCH   6   8
ENDBRANCH   1   6
BRANCH   1  10
HETATM   10  C           1     -34.403  -2.386 -12.463  0.00  0.00     0.249 C 
HETATM   11  O           1     -34.530  -3.043 -13.470  0.00  0.00    -0.271 OA
HETATM   12  N           1     -35.092  -1.212 -12.320  0.00  0.00    -0.349 N 
HETATM   13  H           1     -34.985  -0.663 -11.476  0.00  0.00     0.163 HD
BRANCH  12  14
HETATM   14  C           1     -35.975  -0.756 -13.375  0.00  0.00     0.235 C 
BRANCH  14  15
HETATM   15  C           1     -35.217   0.156 -14.307  0.00  0.00     0.191 C 
HETATM   16  O           1     -34.921   1.315 -13.945  0.00  0.00    -0.647 OA
HETATM   17  O           1     -34.885  -0.248 -15.443  0.00  0.00    -0.647 OA
ENDBRANCH  14  15
ENDBRANCH  12  14
ENDBRANCH   1  10
TORSDOF 6
ENDMDL
MODEL 7
REMARK VINA RESULT:      -5.5      8.967     10.498
REMARK  6 active torsions:
REMARK  status: ('A' for Active; 'I' for Inactive)
REMARK    1  A    between atoms: C_4  and  C_13 
REMARK    2  A    between atoms: C_6  and  C_15 
REMARK    3  A    between atoms: N_12  and  C_13 
REMARK       I    between atoms: N_12  and  C_16 
REMARK    4  A    between atoms: N_14  and  C_17 
REMARK    5  A    between atoms: C_15  and  C_17 
REMARK    6  A    between atoms: C_16  and  C_17 
ROOT
HETATM    1  C           1     -29.736  -6.886 -16.547  0.00  0.00     0.278 C 
ENDROOT
BRANCH   1   2
HETATM    2  N           1     -30.704  -5.748 -16.409  0.00  0.00    -0.066 N 
HETATM    3  H           1     -30.266  -4.872 -16.775  0.00  0.00     0.275 HD
HETATM    4  H           1     -31.570  -5.960 -16.954  0.00  0.00     0.275 HD
HETATM    5  H           1     -30.949  -5.619 -15.401  0.00  0.00     0.275 HD
ENDBRANCH   1   2
BRANCH   1   6
HETATM    6  C           1     -29.515  -7.186 -18.023  0.00  0.00     0.021 C 
HETATM    7  C           1     -30.807  -7.712 -18.634  0.00  0.00     0.012 C 
BRANCH   6   8
HETATM    8  C           1     -29.097  -5.911 -18.742  0.00  0.00     0.002 C 
HETATM    9  C           1     -27.759  -6.134 -19.437  0.00  0.00     0.005 C 
ENDBRANCH   6   8
ENDBRANCH   1   6
BRANCH   1  10
HETATM   10  C           1     -28.422  -6.509 -15.906  0.00  0.00     0.249 C 
HETATM   11  O           1     -28.363  -5.556 -15.166  0.00  0.00    -0.271 OA
HETATM   12  N           1     -27.299  -7.247 -16.163  0.00  0.00    -0.349 N 
HETATM   13  H           1     -27.349  -8.046 -16.783  0.00  0.00     0.163 HD
BRANCH  12  14
HETATM   14  C           1     -26.037  -6.886 -15.548  0.00  0.00     0.235 C 
BRANCH  14  15
HETATM   15  C           1     -24.901  -7.276 -16.460  0.00  0.00     0.191 C 
HETATM   16  O           1     -24.684  -6.623 -17.503  0.00  0.00    -0.647 OA
HETATM   17  O           1     -24.176  -8.254 -16.173  0.00  0.00    -0.647 OA
ENDBRANCH  14  15
ENDBRANCH  12  14
ENDBRANCH   1  10
TORSDOF 6
ENDMDL
MODEL 8
REMARK VINA RESULT:      -5.3     13.386     15.331
REMARK  6 active torsions:
REMARK  status: ('A' for Active; 'I' for Inactive)
REMARK    1  A    between atoms: C_4  and  C_13 
REMARK    2  A    between atoms: C_6  and  C_15 
REMARK    3  A    between atoms: N_12  and  C_13 
REMARK       I    between atoms: N_12  and  C_16 
REMARK    4  A    between atoms: N_14  and  C_17 
REMARK    5  A    between atoms: C_15  and  C_17 
REMARK    6  A    between atoms: C_16  and  C_17 
ROOT
HETATM    1  C           1     -22.853  -4.402  -9.176  0.00  0.00     0.278 C 
ENDROOT
BRANCH   1   2
HETATM    2  N           1     -24.118  -3.828  -8.611  0.00  0.00    -0.066 N 
HETATM    3  H           1     -24.464  -3.065  -9.235  0.00  0.00     0.275 HD
HETATM    4  H           1     -24.842  -4.580  -8.546  0.00  0.00     0.275 HD
HETATM    5  H           1     -23.931  -3.441  -7.659  0.00  0.00     0.275 HD
ENDBRANCH   1   2
BRANCH   1   6
HETATM    6  C           1     -22.363  -3.521 -10.318  0.00  0.00     0.021 C 
HETATM    7  C           1     -21.330  -4.281 -11.139  0.00  0.00     0.012 C 
BRANCH   6   8
HETATM    8  C           1     -23.541  -3.147 -11.209  0.00  0.00     0.002 C 
HETATM    9  C           1     -23.028  -2.736 -12.583  0.00  0.00     0.005 C 
ENDBRANCH   6   8
ENDBRANCH   1   6
BRANCH   1  10
HETATM   10  C           1     -21.800  -4.459  -8.096  0.00  0.00     0.249 C 
HETATM   11  O           1     -21.590  -3.489  -7.406  0.00  0.00    -0.271 OA
HETATM   12  N           1     -21.083  -5.608  -7.899  0.00  0.00    -0.349 N 
HETATM   13  H           1     -21.259  -6.419  -8.477  0.00  0.00     0.163 HD
BRANCH  12  14
HETATM   14  C           1     -20.072  -5.663  -6.862  0.00  0.00     0.235 C 
BRANCH  14  15
HETATM   15  C           1     -20.575  -6.496  -5.710  0.00  0.00     0.191 C 
HETATM   16  O           1     -20.904  -5.945  -4.637  0.00  0.00    -0.647 OA
HETATM   17  O           1     -20.664  -7.738  -5.828  0.00  0.00    -0.647 OA
ENDBRANCH  14  15
ENDBRANCH  12  14
ENDBRANCH   1  10
TORSDOF 6
ENDMDL
MODEL 9
REMARK VINA RESULT:      -5.3      9.415     10.549
REMARK  6 active torsions:
REMARK  status: ('A' for Active; 'I' for Inactive)
REMARK    1  A    between atoms: C_4  and  C_13 
REMARK    2  A    between atoms: C_6  and  C_15 
REMARK    3  A    between atoms: N_12  and  C_13 
REMARK       I    between atoms: N_12  and  C_16 
REMARK    4  A    between atoms: N_14  and  C_17 
REMARK    5  A    between atoms: C_15  and  C_17 
REMARK    6  A    between atoms: C_16  and  C_17 
ROOT
HETATM    1  C           1     -28.652  -6.869 -17.061  0.00  0.00     0.278 C 
ENDROOT
BRANCH   1   2
HETATM    2  N           1     -28.367  -6.399 -15.665  0.00  0.00    -0.066 N 
HETATM    3  H           1     -28.500  -7.192 -14.997  0.00  0.00     0.275 HD
HETATM    4  H           1     -27.381  -6.056 -15.608  0.00  0.00     0.275 HD
HETATM    5  H           1     -29.021  -5.623 -15.418  0.00  0.00     0.275 HD
ENDBRANCH   1   2
BRANCH   1   6
HETATM    6  C           1     -29.965  -6.265 -17.541  0.00  0.00     0.021 C 
HETATM    7  C           1     -30.859  -7.367 -18.093  0.00  0.00     0.012 C 
BRANCH   6   8
HETATM    8  C           1     -30.665  -5.582 -16.374  0.00  0.00     0.002 C 
HETATM    9  C           1     -31.707  -4.607 -16.906  0.00  0.00     0.005 C 
ENDBRANCH   6   8
ENDBRANCH   1   6
BRANCH   1  10
HETATM   10  C           1     -27.533  -6.435 -17.976  0.00  0.00     0.249 C 
HETATM   11  O           1     -26.677  -5.684 -17.568  0.00  0.00    -0.271 OA
HETATM   12  N           1     -27.487  -6.891 -19.265  0.00  0.00    -0.349 N 
HETATM   13  H           1     -28.203  -7.519 -19.605  0.00  0.00     0.163 HD
BRANCH  12  14
HETATM   14  C           1     -26.411  -6.474 -20.144  0.00  0.00     0.235 C 
BRANCH  14  15
HETATM   15  C           1     -25.733  -7.690 -20.723  0.00  0.00     0.191 C 
HETATM   16  O           1     -26.394  -8.516 -21.389  0.00  0.00    -0.647 OA
HETATM   17  O           1     -24.510  -7.872 -20.537  0.00  0.00    -0.647 OA
ENDBRANCH  14  15
ENDBRANCH  12  14
ENDBRANCH   1  10
TORSDOF 6
ENDMDL
