MODEL 1
REMARK VINA RESULT:      -5.5      0.000      0.000
REMARK  8 active torsions:
REMARK  status: ('A' for Active; 'I' for Inactive)
REMARK    1  A    between atoms: C_1  and  C_5 
REMARK    2  A    between atoms: C_5  and  C_12 
REMARK    3  A    between atoms: C_5  and  N_14 
REMARK    4  A    between atoms: O_6  and  C_12 
REMARK       I    between atoms: C_7  and  N_14 
REMARK    5  A    between atoms: C_7  and  C_10 
REMARK    6  A    between atoms: N_9  and  C_10 
REMARK    7  A    between atoms: C_10  and  C_11 
REMARK    8  A    between atoms: C_11  and  O_16 
ROOT
HETATM    1  C           1     -27.247  -6.329 -19.082  0.00  0.00     0.251 C 
HETATM    2  O           1     -28.065  -5.591 -19.578  0.00  0.00    -0.271 OA
HETATM    3  N           1     -27.481  -6.882 -17.851  0.00  0.00    -0.342 N 
HETATM    4  H           1     -26.796  -7.499 -17.436  0.00  0.00     0.163 HD
ENDROOT
BRANCH   1   5
HETATM    5  C           1     -25.968  -6.642 -19.818  0.00  0.00     0.297 C 
BRANCH   5   6
HETATM    6  N           1     -24.931  -7.113 -18.842  0.00  0.00    -0.064 N 
HETATM    7  H           1     -24.636  -8.085 -19.090  0.00  0.00     0.275 HD
HETATM    8  H           1     -24.102  -6.477 -18.879  0.00  0.00     0.275 HD
HETATM    9  H           1     -25.333  -7.105 -17.878  0.00  0.00     0.275 HD
ENDBRANCH   5   6
BRANCH   5  10
HETATM   10  C           1     -26.228  -7.733 -20.848  0.00  0.00     0.206 C 
BRANCH  10  11
HETATM   11  O           1     -27.476  -8.321 -20.602  0.00  0.00    -0.398 OA
HETATM   12  H           1     -28.126  -7.651 -20.740  0.00  0.00     0.209 HD
ENDBRANCH  10  11
ENDBRANCH   5  10
ENDBRANCH   1   5
BRANCH   3  13
HETATM   13  C           1     -28.711  -6.582 -17.144  0.00  0.00     0.214 C 
BRANCH  13  14
HETATM   14  C           1     -28.435  -6.520 -15.661  0.00  0.00     0.199 C 
HETATM   15  O           1     -27.884  -7.484 -15.088  0.00  0.00    -0.646 OA
HETATM   16  O           1     -28.755  -5.504 -15.009  0.00  0.00    -0.646 OA
ENDBRANCH  13  14
BRANCH  13  17
HETATM   17  C           1     -29.736  -7.673 -17.424  0.00  0.00     0.147 C 
HETATM   18  C           1     -31.117  -7.046 -17.569  0.00  0.00     0.042 C 
BRANCH  17  19
HETATM   19  O           1     -29.397  -8.337 -18.612  0.00  0.00    -0.393 OA
HETATM   20  H           1     -30.114  -8.211 -19.210  0.00  0.00     0.210 HD
ENDBRANCH  17  19
ENDBRANCH  13  17
ENDBRANCH   3  13
TORSDOF 8
ENDMDL
MODEL 2
REMARK VINA RESULT:      -5.5      9.673     11.833
REMARK  8 active torsions:
REMARK  status: ('A' for Active; 'I' for Inactive)
REMARK    1  A    between atoms: C_1  and  C_5 
REMARK    2  A    between atoms: C_5  and  C_12 
REMARK    3  A    between atoms: C_5  and  N_14 
REMARK    4  A    between atoms: O_6  and  C_12 
REMARK       I    between atoms: C_7  and  N_14 
REMARK    5  A    between atoms: C_7  and  C_10 
REMARK    6  A    between atoms: N_9  and  C_10 
REMARK    7  A    between atoms: C_10  and  C_11 
REMARK    8  A    between atoms: C_11  and  O_16 
ROOT
HETATM    1  C           1     -21.795  -4.766  -7.832  0.00  0.00     0.251 C 
HETATM    2  O           1     -21.931  -3.711  -7.258  0.00  0.00    -0.271 OA
HETATM    3  N           1     -22.117  -4.869  -9.159  0.00  0.00    -0.342 N 
HETATM    4  H           1     -22.003  -5.752  -9.640  0.00  0.00     0.163 HD
ENDROOT
BRANCH   1   5
HETATM    5  C           1     -21.271  -5.969  -7.087  0.00  0.00     0.297 C 
BRANCH   5   6
HETATM    6  N           1     -19.816  -6.157  -7.401  0.00  0.00    -0.064 N 
HETATM    7  H           1     -19.519  -5.449  -8.111  0.00  0.00     0.275 HD
HETATM    8  H           1     -19.252  -6.033  -6.530  0.00  0.00     0.275 HD
HETATM    9  H           1     -19.665  -7.118  -7.782  0.00  0.00     0.275 HD
ENDBRANCH   5   6
BRANCH   5  10
HETATM   10  C           1     -21.442  -5.753  -5.589  0.00  0.00     0.206 C 
BRANCH  10  11
HETATM   11  O           1     -22.788  -5.934  -5.242  0.00  0.00    -0.398 OA
HETATM   12  H           1     -22.917  -6.859  -5.115  0.00  0.00     0.209 HD
ENDBRANCH  10  11
ENDBRANCH   5  10
ENDBRANCH   1   5
BRANCH   3  13
HETATM   13  C           1     -22.620  -3.714  -9.875  0.00  0.00     0.214 C 
BRANCH  13  14
HETATM   14  C           1     -24.099  -3.881 -10.122  0.00  0.00     0.199 C 
HETATM   15  O           1     -24.780  -2.910 -10.519  0.00  0.00    -0.646 OA
HETATM   16  O           1     -24.643  -4.990  -9.931  0.00  0.00    -0.646 OA
ENDBRANCH  13  14
BRANCH  13  17
HETATM   17  C           1     -21.894  -3.587 -11.208  0.00  0.00     0.147 C 
HETATM   18  C           1     -20.467  -4.099 -11.059  0.00  0.00     0.042 C 
BRANCH  17  19
HETATM   19  O           1     -22.564  -4.346 -12.179  0.00  0.00    -0.393 OA
HETATM   20  H           1     -23.450  -4.454 -11.877  0.00  0.00     0.210 HD
ENDBRANCH  17  19
ENDBRANCH  13  17
ENDBRANCH   3  13
TORSDOF 8
ENDMDL
MODEL 3
REMARK VINA RESULT:      -5.1      2.390      3.249
REMARK  8 active torsions:
REMARK  status: ('A' for Active; 'I' for Inactive)
REMARK    1  A    between atoms: C_1  and  C_5 
REMARK    2  A    between atoms: C_5  and  C_12 
REMARK    3  A    between atoms: C_5  and  N_14 
REMARK    4  A    between atoms: O_6  and  C_12 
REMARK       I    between atoms: C_7  and  N_14 
REMARK    5  A    between atoms: C_7  and  C_10 
REMARK    6  A    between atoms: N_9  and  C_10 
REMARK    7  A    between atoms: C_10  and  C_11 
REMARK    8  A    between atoms: C_11  and  O_16 
ROOT
HETATM    1  C           1     -26.582  -6.633 -16.559  0.00  0.00     0.251 C 
HETATM    2  O           1     -26.449  -5.740 -17.362  0.00  0.00    -0.271 OA
HETATM    3  N           1     -27.834  -7.086 -16.240  0.00  0.00    -0.342 N 
HETATM    4  H           1     -27.946  -7.833 -15.568  0.00  0.00     0.163 HD
ENDROOT
BRANCH   1   5
HETATM    5  C           1     -25.369  -7.249 -15.908  0.00  0.00     0.297 C 
BRANCH   5   6
HETATM    6  N           1     -24.309  -7.482 -16.944  0.00  0.00    -0.064 N 
HETATM    7  H           1     -23.905  -6.564 -17.241  0.00  0.00     0.275 HD
HETATM    8  H           1     -23.552  -8.080 -16.541  0.00  0.00     0.275 HD
HETATM    9  H           1     -24.730  -7.962 -17.771  0.00  0.00     0.275 HD
ENDBRANCH   5   6
BRANCH   5  10
HETATM   10  C           1     -24.833  -6.308 -14.837  0.00  0.00     0.206 C 
BRANCH  10  11
HETATM   11  O           1     -24.483  -5.084 -15.423  0.00  0.00    -0.398 OA
HETATM   12  H           1     -25.274  -4.716 -15.781  0.00  0.00     0.209 HD
ENDBRANCH  10  11
ENDBRANCH   5  10
ENDBRANCH   1   5
BRANCH   3  13
HETATM   13  C           1     -29.001  -6.494 -16.866  0.00  0.00     0.214 C 
BRANCH  13  14
HETATM   14  C           1     -29.739  -5.651 -15.856  0.00  0.00     0.199 C 
HETATM   15  O           1     -30.777  -5.041 -16.191  0.00  0.00    -0.646 OA
HETATM   16  O           1     -29.314  -5.565 -14.684  0.00  0.00    -0.646 OA
ENDBRANCH  13  14
BRANCH  13  17
HETATM   17  C           1     -29.918  -7.598 -17.375  0.00  0.00     0.147 C 
HETATM   18  C           1     -30.116  -7.441 -18.877  0.00  0.00     0.042 C 
BRANCH  17  19
HETATM   19  O           1     -29.339  -8.847 -17.107  0.00  0.00    -0.393 OA
HETATM   20  H           1     -29.510  -9.038 -16.201  0.00  0.00     0.210 HD
ENDBRANCH  17  19
ENDBRANCH  13  17
ENDBRANCH   3  13
TORSDOF 8
ENDMDL
MODEL 4
REMARK VINA RESULT:      -5.1      9.076     10.897
REMARK  8 active torsions:
REMARK  status: ('A' for Active; 'I' for Inactive)
REMARK    1  A    between atoms: C_1  and  C_5 
REMARK    2  A    between atoms: C_5  and  C_12 
REMARK    3  A    between atoms: C_5  and  N_14 
REMARK    4  A    between atoms: O_6  and  C_12 
REMARK       I    between atoms: C_7  and  N_14 
REMARK    5  A    between atoms: C_7  and  C_10 
REMARK    6  A    between atoms: N_9  and  C_10 
REMARK    7  A    between atoms: C_10  and  C_11 
REMARK    8  A    between atoms: C_11  and  O_16 
ROOT
HETATM    1  C           1     -22.710  -3.919 -11.080  0.00  0.00     0.251 C 
HETATM    2  O           1     -23.225  -5.012 -11.089  0.00  0.00    -0.271 OA
HETATM    3  N           1     -21.865  -3.569 -10.061  0.00  0.00    -0.342 N 
HETATM    4  H           1     -21.434  -2.654 -10.052  0.00  0.00     0.163 HD
ENDROOT
BRANCH   1   5
HETATM    5  C           1     -22.997  -2.940 -12.191  0.00  0.00     0.297 C 
BRANCH   5   6
HETATM    6  N           1     -22.222  -3.331 -13.415  0.00  0.00    -0.064 N 
HETATM    7  H           1     -22.634  -4.200 -13.825  0.00  0.00     0.275 HD
HETATM    8  H           1     -22.267  -2.559 -14.119  0.00  0.00     0.275 HD
HETATM    9  H           1     -21.225  -3.507 -13.153  0.00  0.00     0.275 HD
ENDBRANCH   5   6
BRANCH   5  10
HETATM   10  C           1     -24.487  -2.954 -12.509  0.00  0.00     0.206 C 
BRANCH  10  11
HETATM   11  O           1     -25.216  -3.119 -11.324  0.00  0.00    -0.398 OA
HETATM   12  H           1     -24.593  -3.322 -10.645  0.00  0.00     0.209 HD
ENDBRANCH  10  11
ENDBRANCH   5  10
ENDBRANCH   1   5
BRANCH   3  13
HETATM   13  C           1     -21.589  -4.510  -8.993  0.00  0.00     0.214 C 
BRANCH  13  14
HETATM   14  C           1     -22.148  -3.977  -7.696  0.00  0.00     0.199 C 
HETATM   15  O           1     -21.519  -3.108  -7.055  0.00  0.00    -0.646 OA
HETATM   16  O           1     -23.241  -4.403  -7.266  0.00  0.00    -0.646 OA
ENDBRANCH  13  14
BRANCH  13  17
HETATM   17  C           1     -20.084  -4.697  -8.858  0.00  0.00     0.147 C 
HETATM   18  C           1     -19.796  -5.746  -7.792  0.00  0.00     0.042 C 
BRANCH  17  19
HETATM   19  O           1     -19.554  -5.120 -10.086  0.00  0.00    -0.393 OA
HETATM   20  H           1     -20.254  -5.078 -10.714  0.00  0.00     0.210 HD
ENDBRANCH  17  19
ENDBRANCH  13  17
ENDBRANCH   3  13
TORSDOF 8
ENDMDL
MODEL 5
REMARK VINA RESULT:      -5.0      2.148      4.393
REMARK  8 active torsions:
REMARK  status: ('A' for Active; 'I' for Inactive)
REMARK    1  A    between atoms: C_1  and  C_5 
REMARK    2  A    between atoms: C_5  and  C_12 
REMARK    3  A    between atoms: C_5  and  N_14 
REMARK    4  A    between atoms: O_6  and  C_12 
REMARK       I    between atoms: C_7  and  N_14 
REMARK    5  A    between atoms: C_7  and  C_10 
REMARK    6  A    between atoms: N_9  and  C_10 
REMARK    7  A    between atoms: C_10  and  C_11 
REMARK    8  A    between atoms: C_11  and  O_16 
ROOT
HETATM    1  C           1     -28.645  -6.340 -18.468  0.00  0.00     0.251 C 
HETATM    2  O           1     -28.555  -5.196 -18.847  0.00  0.00    -0.271 OA
HETATM    3  N           1     -27.548  -6.977 -17.952  0.00  0.00    -0.342 N 
HETATM    4  H           1     -27.622  -7.935 -17.635  0.00  0.00     0.163 HD
ENDROOT
BRANCH   1   5
HETATM    5  C           1     -29.963  -7.066 -18.563  0.00  0.00     0.297 C 
BRANCH   5   6
HETATM    6  N           1     -29.717  -8.544 -18.632  0.00  0.00    -0.064 N 
HETATM    7  H           1     -29.329  -8.875 -17.719  0.00  0.00     0.275 HD
HETATM    8  H           1     -30.617  -9.039 -18.828  0.00  0.00     0.275 HD
HETATM    9  H           1     -29.033  -8.747 -19.396  0.00  0.00     0.275 HD
ENDBRANCH   5   6
BRANCH   5  10
HETATM   10  C           1     -30.808  -6.749 -17.335  0.00  0.00     0.206 C 
BRANCH  10  11
HETATM   11  O           1     -30.083  -5.916 -16.472  0.00  0.00    -0.398 OA
HETATM   12  H           1     -29.193  -5.906 -16.784  0.00  0.00     0.209 HD
ENDBRANCH  10  11
ENDBRANCH   5  10
ENDBRANCH   1   5
BRANCH   3  13
HETATM   13  C           1     -26.280  -6.279 -17.861  0.00  0.00     0.214 C 
BRANCH  13  14
HETATM   14  C           1     -25.382  -6.720 -18.990  0.00  0.00     0.199 C 
HETATM   15  O           1     -25.878  -7.194 -20.035  0.00  0.00    -0.646 OA
HETATM   16  O           1     -24.142  -6.609 -18.882  0.00  0.00    -0.646 OA
ENDBRANCH  13  14
BRANCH  13  17
HETATM   17  C           1     -25.618  -6.604 -16.528  0.00  0.00     0.147 C 
HETATM   18  C           1     -26.679  -6.674 -15.438  0.00  0.00     0.042 C 
BRANCH  17  19
HETATM   19  O           1     -24.961  -7.839 -16.622  0.00  0.00    -0.393 OA
HETATM   20  H           1     -24.275  -7.834 -15.977  0.00  0.00     0.210 HD
ENDBRANCH  17  19
ENDBRANCH  13  17
ENDBRANCH   3  13
TORSDOF 8
ENDMDL
MODEL 6
REMARK VINA RESULT:      -5.0      1.918      5.038
REMARK  8 active torsions:
REMARK  status: ('A' for Active; 'I' for Inactive)
REMARK    1  A    between atoms: C_1  and  C_5 
REMARK    2  A    between atoms: C_5  and  C_12 
REMARK    3  A    between atoms: C_5  and  N_14 
REMARK    4  A    between atoms: O_6  and  C_12 
REMARK       I    between atoms: C_7  and  N_14 
REMARK    5  A    between atoms: C_7  and  C_10 
REMARK    6  A    between atoms: N_9  and  C_10 
REMARK    7  A    between atoms: C_10  and  C_11 
REMARK    8  A    between atoms: C_11  and  O_16 
ROOT
HETATM    1  C           1     -27.992  -6.377 -18.880  0.00  0.00     0.251 C 
HETATM    2  O           1     -27.998  -5.248 -19.311  0.00  0.00    -0.271 OA
HETATM    3  N           1     -26.910  -7.188 -19.098  0.00  0.00    -0.342 N 
HETATM    4  H           1     -26.906  -8.133 -18.737  0.00  0.00     0.163 HD
ENDROOT
BRANCH   1   5
HETATM    5  C           1     -29.176  -6.893 -18.100  0.00  0.00     0.297 C 
BRANCH   5   6
HETATM    6  N           1     -29.504  -8.285 -18.551  0.00  0.00    -0.064 N 
HETATM    7  H           1     -29.559  -8.309 -19.595  0.00  0.00     0.275 HD
HETATM    8  H           1     -28.758  -8.942 -18.228  0.00  0.00     0.275 HD
HETATM    9  H           1     -30.423  -8.574 -18.146  0.00  0.00     0.275 HD
ENDBRANCH   5   6
BRANCH   5  10
HETATM   10  C           1     -28.839  -6.907 -16.614  0.00  0.00     0.206 C 
BRANCH  10  11
HETATM   11  O           1     -27.849  -5.951 -16.351  0.00  0.00    -0.398 OA
HETATM   12  H           1     -28.289  -5.126 -16.231  0.00  0.00     0.209 HD
ENDBRANCH  10  11
ENDBRANCH   5  10
ENDBRANCH   1   5
BRANCH   3  13
HETATM   13  C           1     -25.772  -6.692 -19.847  0.00  0.00     0.214 C 
BRANCH  13  14
HETATM   14  C           1     -25.597  -7.516 -21.099  0.00  0.00     0.199 C 
HETATM   15  O           1     -24.704  -7.221 -21.922  0.00  0.00    -0.646 OA
HETATM   16  O           1     -26.345  -8.494 -21.312  0.00  0.00    -0.646 OA
ENDBRANCH  13  14
BRANCH  13  17
HETATM   17  C           1     -24.517  -6.797 -18.991  0.00  0.00     0.147 C 
HETATM   18  C           1     -24.913  -6.999 -17.534  0.00  0.00     0.042 C 
BRANCH  17  19
HETATM   19  O           1     -23.747  -7.886 -19.422  0.00  0.00    -0.393 OA
HETATM   20  H           1     -23.026  -7.534 -19.915  0.00  0.00     0.210 HD
ENDBRANCH  17  19
ENDBRANCH  13  17
ENDBRANCH   3  13
TORSDOF 8
ENDMDL
MODEL 7
REMARK VINA RESULT:      -4.9     18.903     20.622
REMARK  8 active torsions:
REMARK  status: ('A' for Active; 'I' for Inactive)
REMARK    1  A    between atoms: C_1  and  C_5 
REMARK    2  A    between atoms: C_5  and  C_12 
REMARK    3  A    between atoms: C_5  and  N_14 
REMARK    4  A    between atoms: O_6  and  C_12 
REMARK       I    between atoms: C_7  and  N_14 
REMARK    5  A    between atoms: C_7  and  C_10 
REMARK    6  A    between atoms: N_9  and  C_10 
REMARK    7  A    between atoms: C_10  and  C_11 
REMARK    8  A    between atoms: C_11  and  O_16 
ROOT
HETATM    1  C           1     -11.524   6.622 -20.748  0.00  0.00     0.251 C 
HETATM    2  O           1     -11.966   7.371 -21.587  0.00  0.00    -0.271 OA
HETATM    3  N           1     -12.018   5.349 -20.640  0.00  0.00    -0.342 N 
HETATM    4  H           1     -11.648   4.722 -19.937  0.00  0.00     0.163 HD
ENDROOT
BRANCH   1   5
HETATM    5  C           1     -10.429   7.088 -19.821  0.00  0.00     0.297 C 
BRANCH   5   6
HETATM    6  N           1      -9.100   6.924 -20.495  0.00  0.00    -0.064 N 
HETATM    7  H           1      -8.353   6.814 -19.771  0.00  0.00     0.275 HD
HETATM    8  H           1      -9.119   6.075 -21.105  0.00  0.00     0.275 HD
HETATM    9  H           1      -8.899   7.767 -21.078  0.00  0.00     0.275 HD
ENDBRANCH   5   6
BRANCH   5  10
HETATM   10  C           1     -10.645   8.556 -19.477  0.00  0.00     0.206 C 
BRANCH  10  11
HETATM   11  O           1     -10.235   8.792 -18.157  0.00  0.00    -0.398 OA
HETATM   12  H           1      -9.615   9.501 -18.185  0.00  0.00     0.209 HD
ENDBRANCH  10  11
ENDBRANCH   5  10
ENDBRANCH   1   5
BRANCH   3  13
HETATM   13  C           1     -13.070   4.901 -21.531  0.00  0.00     0.214 C 
BRANCH  13  14
HETATM   14  C           1     -14.393   4.940 -20.805  0.00  0.00     0.199 C 
HETATM   15  O           1     -15.428   5.288 -21.413  0.00  0.00    -0.646 OA
HETATM   16  O           1     -14.453   4.623 -19.598  0.00  0.00    -0.646 OA
ENDBRANCH  13  14
BRANCH  13  17
HETATM   17  C           1     -12.780   3.476 -21.982  0.00  0.00     0.147 C 
HETATM   18  C           1     -11.857   2.804 -20.974  0.00  0.00     0.042 C 
BRANCH  17  19
HETATM   19  O           1     -13.982   2.759 -22.066  0.00  0.00    -0.393 OA
HETATM   20  H           1     -14.338   2.923 -22.923  0.00  0.00     0.210 HD
ENDBRANCH  17  19
ENDBRANCH  13  17
ENDBRANCH   3  13
TORSDOF 8
ENDMDL
MODEL 8
REMARK VINA RESULT:      -4.9      2.672      4.803
REMARK  8 active torsions:
REMARK  status: ('A' for Active; 'I' for Inactive)
REMARK    1  A    between atoms: C_1  and  C_5 
REMARK    2  A    between atoms: C_5  and  C_12 
REMARK    3  A    between atoms: C_5  and  N_14 
REMARK    4  A    between atoms: O_6  and  C_12 
REMARK       I    between atoms: C_7  and  N_14 
REMARK    5  A    between atoms: C_7  and  C_10 
REMARK    6  A    between atoms: N_9  and  C_10 
REMARK    7  A    between atoms: C_10  and  C_11 
REMARK    8  A    between atoms: C_11  and  O_16 
ROOT
HETATM    1  C           1     -31.193  -6.067 -17.282  0.00  0.00     0.251 C 
HETATM    2  O           1     -31.492  -7.238 -17.273  0.00  0.00    -0.271 OA
HETATM    3  N           1     -29.886  -5.693 -17.116  0.00  0.00    -0.342 N 
HETATM    4  H           1     -29.636  -4.713 -17.124  0.00  0.00     0.163 HD
ENDROOT
BRANCH   1   5
HETATM    5  C           1     -32.259  -5.018 -17.477  0.00  0.00     0.297 C 
BRANCH   5   6
HETATM    6  N           1     -33.405  -5.290 -16.549  0.00  0.00    -0.064 N 
HETATM    7  H           1     -33.570  -4.454 -15.944  0.00  0.00     0.275 HD
HETATM    8  H           1     -34.267  -5.490 -17.107  0.00  0.00     0.275 HD
HETATM    9  H           1     -33.179  -6.116 -15.951  0.00  0.00     0.275 HD
ENDBRANCH   5   6
BRANCH   5  10
HETATM   10  C           1     -31.679  -3.642 -17.176  0.00  0.00     0.206 C 
BRANCH  10  11
HETATM   11  O           1     -31.079  -3.124 -18.332  0.00  0.00    -0.398 OA
HETATM   12  H           1     -30.910  -3.855 -18.903  0.00  0.00     0.209 HD
ENDBRANCH  10  11
ENDBRANCH   5  10
ENDBRANCH   1   5
BRANCH   3  13
HETATM   13  C           1     -28.862  -6.702 -16.929  0.00  0.00     0.214 C 
BRANCH  13  14
HETATM   14  C           1     -28.320  -6.613 -15.523  0.00  0.00     0.199 C 
HETATM   15  O           1     -28.455  -5.557 -14.868  0.00  0.00    -0.646 OA
HETATM   16  O           1     -27.740  -7.595 -15.014  0.00  0.00    -0.646 OA
ENDBRANCH  13  14
BRANCH  13  17
HETATM   17  C           1     -27.733  -6.468 -17.924  0.00  0.00     0.147 C 
HETATM   18  C           1     -28.269  -5.706 -19.129  0.00  0.00     0.042 C 
BRANCH  17  19
HETATM   19  O           1     -26.717  -5.721 -17.311  0.00  0.00    -0.393 OA
HETATM   20  H           1     -26.046  -6.329 -17.055  0.00  0.00     0.210 HD
ENDBRANCH  17  19
ENDBRANCH  13  17
ENDBRANCH   3  13
TORSDOF 8
ENDMDL
MODEL 9
REMARK VINA RESULT:      -4.8     19.450     21.135
REMARK  8 active torsions:
REMARK  status: ('A' for Active; 'I' for Inactive)
REMARK    1  A    between atoms: C_1  and  C_5 
REMARK    2  A    between atoms: C_5  and  C_12 
REMARK    3  A    between atoms: C_5  and  N_14 
REMARK    4  A    between atoms: O_6  and  C_12 
REMARK       I    between atoms: C_7  and  N_14 
REMARK    5  A    between atoms: C_7  and  C_10 
REMARK    6  A    between atoms: N_9  and  C_10 
REMARK    7  A    between atoms: C_10  and  C_11 
REMARK    8  A    between atoms: C_11  and  O_16 
ROOT
HETATM    1  C           1     -12.909   5.918 -21.250  0.00  0.00     0.251 C 
HETATM    2  O           1     -12.206   5.667 -22.199  0.00  0.00    -0.271 OA
HETATM    3  N           1     -12.428   6.691 -20.226  0.00  0.00    -0.342 N 
HETATM    4  H           1     -13.017   6.901 -19.431  0.00  0.00     0.163 HD
ENDROOT
BRANCH   1   5
HETATM    5  C           1     -14.318   5.382 -21.192  0.00  0.00     0.297 C 
BRANCH   5   6
HETATM    6  N           1     -14.483   4.297 -22.214  0.00  0.00    -0.064 N 
HETATM    7  H           1     -15.408   3.828 -22.079  0.00  0.00     0.275 HD
HETATM    8  H           1     -14.441   4.712 -23.173  0.00  0.00     0.275 HD
HETATM    9  H           1     -13.716   3.596 -22.104  0.00  0.00     0.275 HD
ENDBRANCH   5   6
BRANCH   5  10
HETATM   10  C           1     -14.590   4.816 -19.804  0.00  0.00     0.206 C 
BRANCH  10  11
HETATM   11  O           1     -15.691   5.473 -19.238  0.00  0.00    -0.398 OA
HETATM   12  H           1     -15.409   6.348 -19.029  0.00  0.00     0.209 HD
ENDBRANCH  10  11
ENDBRANCH   5  10
ENDBRANCH   1   5
BRANCH   3  13
HETATM   13  C           1     -11.074   7.207 -20.283  0.00  0.00     0.214 C 
BRANCH  13  14
HETATM   14  C           1     -10.141   6.246 -19.587  0.00  0.00     0.199 C 
HETATM   15  O           1      -8.941   6.181 -19.931  0.00  0.00    -0.646 OA
HETATM   16  O           1     -10.569   5.516 -18.667  0.00  0.00    -0.646 OA
ENDBRANCH  13  14
BRANCH  13  17
HETATM   17  C           1     -11.019   8.561 -19.588  0.00  0.00     0.147 C 
HETATM   18  C           1     -12.435   9.039 -19.295  0.00  0.00     0.042 C 
BRANCH  17  19
HETATM   19  O           1     -10.307   8.440 -18.386  0.00  0.00    -0.393 OA
HETATM   20  H           1     -10.458   7.568 -18.065  0.00  0.00     0.210 HD
ENDBRANCH  17  19
ENDBRANCH  13  17
ENDBRANCH   3  13
TORSDOF 8
ENDMDL
