MODEL 1
REMARK VINA RESULT:      -5.5      0.000      0.000
REMARK  9 active torsions:
REMARK  status: ('A' for Active; 'I' for Inactive)
REMARK    1  A    between atoms: C_4  and  C_20 
REMARK    2  A    between atoms: C_4  and  Se_5 
REMARK    3  A    between atoms: N_6  and  C_20 
REMARK    4  A    between atoms: S_13  and  C_14 
REMARK    5  A    between atoms: C_14  and  C_15 
REMARK    6  A    between atoms: C_15  and  C_16 
REMARK    7  A    between atoms: C_16  and  C_17 
REMARK    8  A    between atoms: C_16  and  N_18 
REMARK       I    between atoms: N_18  and  C_19 
REMARK    9  A    between atoms: C_19  and  C_20 
ROOT
HETATM    1  O           1     -21.567  -3.412  -7.297  0.00  0.00    -0.271 OA
HETATM    2  H           1     -22.274  -5.808  -9.193  0.00  0.00     0.163 HD
HETATM    3  N           1     -22.217  -4.848  -8.877  0.00  0.00    -0.345 N 
HETATM    4  C           1     -21.635  -4.557  -7.673  0.00  0.00     0.249 C 
ENDROOT
BRANCH   3   5
HETATM    5  C           1     -22.749  -3.782  -9.703  0.00  0.00     0.186 C 
BRANCH   5   6
HETATM    6  C           1     -22.256  -3.953 -11.134  0.00  0.00     0.046 C 
BRANCH   6   7
HETATM    7  C           1     -22.467  -2.656 -11.903  0.00  0.00     0.076 C 
BRANCH   7   8
HETATM    8  S           1     -23.866  -2.847 -13.043  0.00  0.00    -0.173 SA
HETATM    9  C           1     -22.898  -2.706 -14.571  0.00  0.00     0.089 C 
ENDBRANCH   7   8
ENDBRANCH   6   7
ENDBRANCH   5   6
BRANCH   5  10
HETATM   10  C           1     -24.258  -3.835  -9.680  0.00  0.00     0.196 C 
HETATM   11  O           1     -24.848  -4.918  -9.882  0.00  0.00    -0.646 OA
HETATM   12  O           1     -24.916  -2.796  -9.457  0.00  0.00    -0.646 OA
ENDBRANCH   5  10
ENDBRANCH   3   5
BRANCH   4  13
HETATM   13  C           1     -21.082  -5.668  -6.814  0.00  0.00     0.274 C 
BRANCH  13  14
HETATM   14  C           1     -20.707  -5.114  -5.446  0.00  0.00     0.045 C 
BRANCH  14  15
HETATM   15 Se           1     -21.408  -6.287  -4.056  0.00  0.00     0.000 Se
HETATM   16  H           1     -21.856  -5.184  -3.190  0.00  0.00     0.000 HD
ENDBRANCH  14  15
ENDBRANCH  13  14
BRANCH  13  17
HETATM   17  N           1     -19.863  -6.245  -7.470  0.00  0.00    -0.067 N 
HETATM   18  H           1     -19.911  -6.081  -8.500  0.00  0.00     0.275 HD
HETATM   19  H           1     -19.819  -7.271  -7.282  0.00  0.00     0.275 HD
HETATM   20  H           1     -19.008  -5.784  -7.084  0.00  0.00     0.275 HD
ENDBRANCH  13  17
ENDBRANCH   4  13
TORSDOF 9
ENDMDL
MODEL 2
REMARK VINA RESULT:      -5.1     12.095     13.762
REMARK  9 active torsions:
REMARK  status: ('A' for Active; 'I' for Inactive)
REMARK    1  A    between atoms: C_4  and  C_20 
REMARK    2  A    between atoms: C_4  and  Se_5 
REMARK    3  A    between atoms: N_6  and  C_20 
REMARK    4  A    between atoms: S_13  and  C_14 
REMARK    5  A    between atoms: C_14  and  C_15 
REMARK    6  A    between atoms: C_15  and  C_16 
REMARK    7  A    between atoms: C_16  and  C_17 
REMARK    8  A    between atoms: C_16  and  N_18 
REMARK       I    between atoms: N_18  and  C_19 
REMARK    9  A    between atoms: C_19  and  C_20 
ROOT
HETATM    1  O           1     -33.705  -2.063 -11.325  0.00  0.00    -0.271 OA
HETATM    2  H           1     -35.919  -2.170 -13.544  0.00  0.00     0.163 HD
HETATM    3  N           1     -35.335  -1.769 -12.821  0.00  0.00    -0.345 N 
HETATM    4  C           1     -34.400  -2.542 -12.187  0.00  0.00     0.249 C 
ENDROOT
BRANCH   3   5
HETATM    5  C           1     -35.490  -0.373 -12.458  0.00  0.00     0.186 C 
BRANCH   5   6
HETATM    6  C           1     -36.006   0.409 -13.659  0.00  0.00     0.046 C 
BRANCH   6   7
HETATM    7  C           1     -35.064   0.208 -14.839  0.00  0.00     0.076 C 
BRANCH   7   8
HETATM    8  S           1     -35.954  -0.613 -16.191  0.00  0.00    -0.173 SA
HETATM    9  C           1     -37.621  -0.152 -15.641  0.00  0.00     0.089 C 
ENDBRANCH   7   8
ENDBRANCH   6   7
ENDBRANCH   5   6
BRANCH   5  10
HETATM   10  C           1     -36.474  -0.257 -11.320  0.00  0.00     0.196 C 
HETATM   11  O           1     -37.508  -0.959 -11.313  0.00  0.00    -0.646 OA
HETATM   12  O           1     -36.254   0.541 -10.383  0.00  0.00    -0.646 OA
ENDBRANCH   5  10
ENDBRANCH   3   5
BRANCH   4  13
HETATM   13  C           1     -34.241  -3.994 -12.566  0.00  0.00     0.274 C 
BRANCH  13  14
HETATM   14  C           1     -33.278  -4.669 -11.598  0.00  0.00     0.045 C 
BRANCH  14  15
HETATM   15 Se           1     -34.184  -6.142 -10.699  0.00  0.00     0.000 Se
HETATM   16  H           1     -35.523  -5.762 -11.176  0.00  0.00     0.000 HD
ENDBRANCH  14  15
ENDBRANCH  13  14
BRANCH  13  17
HETATM   17  N           1     -33.696  -4.089 -13.960  0.00  0.00    -0.067 N 
HETATM   18  H           1     -34.168  -4.872 -14.465  0.00  0.00     0.275 HD
HETATM   19  H           1     -32.668  -4.269 -13.920  0.00  0.00     0.275 HD
HETATM   20  H           1     -33.873  -3.192 -14.465  0.00  0.00     0.275 HD
ENDBRANCH  13  17
ENDBRANCH   4  13
TORSDOF 9
ENDMDL
MODEL 3
REMARK VINA RESULT:      -4.8      3.507      4.788
REMARK  9 active torsions:
REMARK  status: ('A' for Active; 'I' for Inactive)
REMARK    1  A    between atoms: C_4  and  C_20 
REMARK    2  A    between atoms: C_4  and  Se_5 
REMARK    3  A    between atoms: N_6  and  C_20 
REMARK    4  A    between atoms: S_13  and  C_14 
REMARK    5  A    between atoms: C_14  and  C_15 
REMARK    6  A    between atoms: C_15  and  C_16 
REMARK    7  A    between atoms: C_16  and  C_17 
REMARK    8  A    between atoms: C_16  and  N_18 
REMARK       I    between atoms: N_18  and  C_19 
REMARK    9  A    between atoms: C_19  and  C_20 
ROOT
HETATM    1  O           1     -21.981  -7.478  -4.872  0.00  0.00    -0.271 OA
HETATM    2  H           1     -20.634  -4.660  -4.587  0.00  0.00     0.163 HD
HETATM    3  N           1     -21.058  -5.453  -5.050  0.00  0.00    -0.345 N 
HETATM    4  C           1     -21.474  -6.533  -4.318  0.00  0.00     0.249 C 
ENDROOT
BRANCH   3   5
HETATM    5  C           1     -21.227  -5.444  -6.491  0.00  0.00     0.186 C 
BRANCH   5   6
HETATM    6  C           1     -21.767  -4.090  -6.930  0.00  0.00     0.046 C 
BRANCH   6   7
HETATM    7  C           1     -23.081  -4.284  -7.674  0.00  0.00     0.076 C 
BRANCH   7   8
HETATM    8  S           1     -22.823  -3.990  -9.446  0.00  0.00    -0.173 SA
HETATM    9  C           1     -24.512  -3.429  -9.804  0.00  0.00     0.089 C 
ENDBRANCH   7   8
ENDBRANCH   6   7
ENDBRANCH   5   6
BRANCH   5  10
HETATM   10  C           1     -19.894  -5.694  -7.153  0.00  0.00     0.196 C 
HETATM   11  O           1     -19.380  -6.833  -7.113  0.00  0.00    -0.646 OA
HETATM   12  O           1     -19.305  -4.764  -7.744  0.00  0.00    -0.646 OA
ENDBRANCH   5  10
ENDBRANCH   3   5
BRANCH   4  13
HETATM   13  C           1     -21.298  -6.540  -2.819  0.00  0.00     0.274 C 
BRANCH  13  14
HETATM   14  C           1     -21.282  -7.978  -2.318  0.00  0.00     0.045 C 
BRANCH  14  15
HETATM   15 Se           1     -21.955  -8.037  -0.489  0.00  0.00     0.000 Se
HETATM   16  H           1     -21.580  -9.443  -0.274  0.00  0.00     0.000 HD
ENDBRANCH  14  15
ENDBRANCH  13  14
BRANCH  13  17
HETATM   17  N           1     -22.435  -5.801  -2.180  0.00  0.00    -0.067 N 
HETATM   18  H           1     -22.139  -4.822  -1.969  0.00  0.00     0.275 HD
HETATM   19  H           1     -22.707  -6.281  -1.293  0.00  0.00     0.275 HD
HETATM   20  H           1     -23.252  -5.785  -2.832  0.00  0.00     0.275 HD
ENDBRANCH  13  17
ENDBRANCH   4  13
TORSDOF 9
ENDMDL
MODEL 4
REMARK VINA RESULT:      -4.8      2.205      7.013
REMARK  9 active torsions:
REMARK  status: ('A' for Active; 'I' for Inactive)
REMARK    1  A    between atoms: C_4  and  C_20 
REMARK    2  A    between atoms: C_4  and  Se_5 
REMARK    3  A    between atoms: N_6  and  C_20 
REMARK    4  A    between atoms: S_13  and  C_14 
REMARK    5  A    between atoms: C_14  and  C_15 
REMARK    6  A    between atoms: C_15  and  C_16 
REMARK    7  A    between atoms: C_16  and  C_17 
REMARK    8  A    between atoms: C_16  and  N_18 
REMARK       I    between atoms: N_18  and  C_19 
REMARK    9  A    between atoms: C_19  and  C_20 
ROOT
HETATM    1  O           1     -21.881  -3.155  -7.658  0.00  0.00    -0.271 OA
HETATM    2  H           1     -22.598  -6.209  -7.662  0.00  0.00     0.163 HD
HETATM    3  N           1     -22.167  -5.348  -7.350  0.00  0.00    -0.345 N 
HETATM    4  C           1     -22.395  -4.182  -8.031  0.00  0.00     0.249 C 
ENDROOT
BRANCH   3   5
HETATM    5  C           1     -21.309  -5.350  -6.181  0.00  0.00     0.186 C 
BRANCH   5   6
HETATM    6  C           1     -21.827  -6.369  -5.174  0.00  0.00     0.046 C 
BRANCH   6   7
HETATM    7  C           1     -21.329  -6.003  -3.782  0.00  0.00     0.076 C 
BRANCH   7   8
HETATM    8  S           1     -21.303  -7.489  -2.739  0.00  0.00    -0.173 SA
HETATM    9  C           1     -22.242  -6.779  -1.357  0.00  0.00     0.089 C 
ENDBRANCH   7   8
ENDBRANCH   6   7
ENDBRANCH   5   6
BRANCH   5  10
HETATM   10  C           1     -19.904  -5.716  -6.591  0.00  0.00     0.196 C 
HETATM   11  O           1     -19.586  -6.917  -6.730  0.00  0.00    -0.646 OA
HETATM   12  O           1     -19.058  -4.818  -6.794  0.00  0.00    -0.646 OA
ENDBRANCH   5  10
ENDBRANCH   3   5
BRANCH   4  13
HETATM   13  C           1     -23.289  -4.181  -9.247  0.00  0.00     0.274 C 
BRANCH  13  14
HETATM   14  C           1     -22.545  -3.562 -10.423  0.00  0.00     0.045 C 
BRANCH  14  15
HETATM   15 Se           1     -23.807  -3.160 -11.853  0.00  0.00     0.000 Se
HETATM   16  H           1     -24.309  -1.929 -11.220  0.00  0.00     0.000 HD
ENDBRANCH  14  15
ENDBRANCH  13  14
BRANCH  13  17
HETATM   17  N           1     -24.523  -3.381  -8.959  0.00  0.00    -0.067 N 
HETATM   18  H           1     -24.271  -2.371  -8.872  0.00  0.00     0.275 HD
HETATM   19  H           1     -24.952  -3.712  -8.066  0.00  0.00     0.275 HD
HETATM   20  H           1     -25.208  -3.503  -9.740  0.00  0.00     0.275 HD
ENDBRANCH  13  17
ENDBRANCH   4  13
TORSDOF 9
ENDMDL
MODEL 5
REMARK VINA RESULT:      -4.5      3.674      7.569
REMARK  9 active torsions:
REMARK  status: ('A' for Active; 'I' for Inactive)
REMARK    1  A    between atoms: C_4  and  C_20 
REMARK    2  A    between atoms: C_4  and  Se_5 
REMARK    3  A    between atoms: N_6  and  C_20 
REMARK    4  A    between atoms: S_13  and  C_14 
REMARK    5  A    between atoms: C_14  and  C_15 
REMARK    6  A    between atoms: C_15  and  C_16 
REMARK    7  A    between atoms: C_16  and  C_17 
REMARK    8  A    between atoms: C_16  and  N_18 
REMARK       I    between atoms: N_18  and  C_19 
REMARK    9  A    between atoms: C_19  and  C_20 
ROOT
HETATM    1  O           1     -19.929  -4.635  -6.190  0.00  0.00    -0.271 OA
HETATM    2  H           1     -22.073  -6.864  -6.714  0.00  0.00     0.163 HD
HETATM    3  N           1     -21.341  -6.364  -6.225  0.00  0.00    -0.345 N 
HETATM    4  C           1     -20.802  -5.231  -6.773  0.00  0.00     0.249 C 
ENDROOT
BRANCH   3   5
HETATM    5  C           1     -20.866  -6.847  -4.942  0.00  0.00     0.186 C 
BRANCH   5   6
HETATM    6  C           1     -21.999  -6.785  -3.926  0.00  0.00     0.046 C 
BRANCH   6   7
HETATM    7  C           1     -21.517  -6.066  -2.673  0.00  0.00     0.076 C 
BRANCH   7   8
HETATM    8  S           1     -22.156  -6.918  -1.203  0.00  0.00    -0.173 SA
HETATM    9  C           1     -20.878  -8.205  -1.147  0.00  0.00     0.089 C 
ENDBRANCH   7   8
ENDBRANCH   6   7
ENDBRANCH   5   6
BRANCH   5  10
HETATM   10  C           1     -20.396  -8.274  -5.087  0.00  0.00     0.196 C 
HETATM   11  O           1     -21.070  -9.206  -4.596  0.00  0.00    -0.646 OA
HETATM   12  O           1     -19.335  -8.523  -5.699  0.00  0.00    -0.646 OA
ENDBRANCH   5  10
ENDBRANCH   3   5
BRANCH   4  13
HETATM   13  C           1     -21.297  -4.730  -8.108  0.00  0.00     0.274 C 
BRANCH  13  14
HETATM   14  C           1     -20.111  -4.296  -8.959  0.00  0.00     0.045 C 
BRANCH  14  15
HETATM   15 Se           1     -20.681  -4.089 -10.811  0.00  0.00     0.000 Se
HETATM   16  H           1     -19.452  -4.670 -11.375  0.00  0.00     0.000 HD
ENDBRANCH  14  15
ENDBRANCH  13  14
BRANCH  13  17
HETATM   17  N           1     -22.212  -3.562  -7.893  0.00  0.00    -0.067 N 
HETATM   18  H           1     -23.160  -3.907  -7.622  0.00  0.00     0.275 HD
HETATM   19  H           1     -22.283  -3.008  -8.776  0.00  0.00     0.275 HD
HETATM   20  H           1     -21.831  -2.955  -7.132  0.00  0.00     0.275 HD
ENDBRANCH  13  17
ENDBRANCH   4  13
TORSDOF 9
ENDMDL
MODEL 6
REMARK VINA RESULT:      -4.4      5.218      8.891
REMARK  9 active torsions:
REMARK  status: ('A' for Active; 'I' for Inactive)
REMARK    1  A    between atoms: C_4  and  C_20 
REMARK    2  A    between atoms: C_4  and  Se_5 
REMARK    3  A    between atoms: N_6  and  C_20 
REMARK    4  A    between atoms: S_13  and  C_14 
REMARK    5  A    between atoms: C_14  and  C_15 
REMARK    6  A    between atoms: C_15  and  C_16 
REMARK    7  A    between atoms: C_16  and  C_17 
REMARK    8  A    between atoms: C_16  and  N_18 
REMARK       I    between atoms: N_18  and  C_19 
REMARK    9  A    between atoms: C_19  and  C_20 
ROOT
HETATM    1  O           1     -22.371  -7.095  -5.037  0.00  0.00    -0.271 OA
HETATM    2  H           1     -19.787  -6.989  -3.263  0.00  0.00     0.163 HD
HETATM    3  N           1     -20.751  -7.179  -3.504  0.00  0.00    -0.345 N 
HETATM    4  C           1     -21.221  -6.867  -4.751  0.00  0.00     0.249 C 
ENDROOT
BRANCH   3   5
HETATM    5  C           1     -21.635  -7.784  -2.526  0.00  0.00     0.186 C 
BRANCH   5   6
HETATM    6  C           1     -20.855  -8.791  -1.691  0.00  0.00     0.046 C 
BRANCH   6   7
HETATM    7  C           1     -21.578 -10.131  -1.706  0.00  0.00     0.076 C 
BRANCH   7   8
HETATM    8  S           1     -22.001 -10.610  -0.007  0.00  0.00    -0.173 SA
HETATM    9  C           1     -23.793 -10.727  -0.274  0.00  0.00     0.089 C 
ENDBRANCH   7   8
ENDBRANCH   6   7
ENDBRANCH   5   6
BRANCH   5  10
HETATM   10  C           1     -22.197  -6.710  -1.626  0.00  0.00     0.196 C 
HETATM   11  O           1     -22.064  -5.506  -1.932  0.00  0.00    -0.646 OA
HETATM   12  O           1     -22.797  -7.026  -0.576  0.00  0.00    -0.646 OA
ENDBRANCH   5  10
ENDBRANCH   3   5
BRANCH   4  13
HETATM   13  C           1     -20.300  -6.238  -5.768  0.00  0.00     0.274 C 
BRANCH  13  14
HETATM   14  C           1     -20.289  -4.727  -5.577  0.00  0.00     0.045 C 
BRANCH  14  15
HETATM   15 Se           1     -21.089  -3.869  -7.133  0.00  0.00     0.000 Se
HETATM   16  H           1     -22.468  -4.228  -6.766  0.00  0.00     0.000 HD
ENDBRANCH  14  15
ENDBRANCH  13  14
BRANCH  13  17
HETATM   17  N           1     -20.785  -6.563  -7.149  0.00  0.00    -0.067 N 
HETATM   18  H           1     -20.493  -5.807  -7.808  0.00  0.00     0.275 HD
HETATM   19  H           1     -21.827  -6.638  -7.143  0.00  0.00     0.275 HD
HETATM   20  H           1     -20.372  -7.473  -7.458  0.00  0.00     0.275 HD
ENDBRANCH  13  17
ENDBRANCH   4  13
TORSDOF 9
ENDMDL
MODEL 7
REMARK VINA RESULT:      -4.3      3.882      7.541
REMARK  9 active torsions:
REMARK  status: ('A' for Active; 'I' for Inactive)
REMARK    1  A    between atoms: C_4  and  C_20 
REMARK    2  A    between atoms: C_4  and  Se_5 
REMARK    3  A    between atoms: N_6  and  C_20 
REMARK    4  A    between atoms: S_13  and  C_14 
REMARK    5  A    between atoms: C_14  and  C_15 
REMARK    6  A    between atoms: C_15  and  C_16 
REMARK    7  A    between atoms: C_16  and  C_17 
REMARK    8  A    between atoms: C_16  and  N_18 
REMARK       I    between atoms: N_18  and  C_19 
REMARK    9  A    between atoms: C_19  and  C_20 
ROOT
HETATM    1  O           1     -22.591  -5.542  -5.789  0.00  0.00    -0.271 OA
HETATM    2  H           1     -19.779  -6.477  -4.761  0.00  0.00     0.163 HD
HETATM    3  N           1     -20.787  -6.455  -4.840  0.00  0.00    -0.345 N 
HETATM    4  C           1     -21.387  -5.569  -5.694  0.00  0.00     0.249 C 
ENDROOT
BRANCH   3   5
HETATM    5  C           1     -21.596  -7.362  -4.050  0.00  0.00     0.186 C 
BRANCH   5   6
HETATM    6  C           1     -20.989  -8.758  -4.100  0.00  0.00     0.046 C 
BRANCH   6   7
HETATM    7  C           1     -19.621  -8.693  -4.765  0.00  0.00     0.076 C 
BRANCH   7   8
HETATM    8  S           1     -18.377  -9.426  -3.666  0.00  0.00    -0.173 SA
HETATM    9  C           1     -17.266 -10.005  -4.979  0.00  0.00     0.089 C 
ENDBRANCH   7   8
ENDBRANCH   6   7
ENDBRANCH   5   6
BRANCH   5  10
HETATM   10  C           1     -21.637  -6.881  -2.620  0.00  0.00     0.196 C 
HETATM   11  O           1     -22.393  -5.939  -2.299  0.00  0.00    -0.646 OA
HETATM   12  O           1     -20.916  -7.426  -1.756  0.00  0.00    -0.646 OA
ENDBRANCH   5  10
ENDBRANCH   3   5
BRANCH   4  13
HETATM   13  C           1     -20.544  -4.625  -6.517  0.00  0.00     0.274 C 
BRANCH  13  14
HETATM   14  C           1     -21.452  -3.690  -7.306  0.00  0.00     0.045 C 
BRANCH  14  15
HETATM   15 Se           1     -21.631  -4.346  -9.132  0.00  0.00     0.000 Se
HETATM   16  H           1     -22.792  -3.497  -9.446  0.00  0.00     0.000 HD
ENDBRANCH  14  15
ENDBRANCH  13  14
BRANCH  13  17
HETATM   17  N           1     -19.694  -5.415  -7.466  0.00  0.00    -0.067 N 
HETATM   18  H           1     -19.686  -4.946  -8.399  0.00  0.00     0.275 HD
HETATM   19  H           1     -20.084  -6.379  -7.564  0.00  0.00     0.275 HD
HETATM   20  H           1     -18.718  -5.470  -7.096  0.00  0.00     0.275 HD
ENDBRANCH  13  17
ENDBRANCH   4  13
TORSDOF 9
ENDMDL
MODEL 8
REMARK VINA RESULT:      -4.2      4.148      7.960
REMARK  9 active torsions:
REMARK  status: ('A' for Active; 'I' for Inactive)
REMARK    1  A    between atoms: C_4  and  C_20 
REMARK    2  A    between atoms: C_4  and  Se_5 
REMARK    3  A    between atoms: N_6  and  C_20 
REMARK    4  A    between atoms: S_13  and  C_14 
REMARK    5  A    between atoms: C_14  and  C_15 
REMARK    6  A    between atoms: C_15  and  C_16 
REMARK    7  A    between atoms: C_16  and  C_17 
REMARK    8  A    between atoms: C_16  and  N_18 
REMARK       I    between atoms: N_18  and  C_19 
REMARK    9  A    between atoms: C_19  and  C_20 
ROOT
HETATM    1  O           1     -22.918  -5.708  -5.693  0.00  0.00    -0.271 OA
HETATM    2  H           1     -19.935  -6.378  -4.991  0.00  0.00     0.163 HD
HETATM    3  N           1     -20.944  -6.442  -4.951  0.00  0.00    -0.345 N 
HETATM    4  C           1     -21.714  -5.631  -5.742  0.00  0.00     0.249 C 
ENDROOT
BRANCH   3   5
HETATM    5  C           1     -21.574  -7.394  -4.057  0.00  0.00     0.186 C 
BRANCH   5   6
HETATM    6  C           1     -20.810  -8.711  -4.098  0.00  0.00     0.046 C 
BRANCH   6   7
HETATM    7  C           1     -21.785  -9.869  -3.931  0.00  0.00     0.076 C 
BRANCH   7   8
HETATM    8  S           1     -21.273 -10.894  -2.523  0.00  0.00    -0.173 SA
HETATM    9  C           1     -22.563 -10.323  -1.381  0.00  0.00     0.089 C 
ENDBRANCH   7   8
ENDBRANCH   6   7
ENDBRANCH   5   6
BRANCH   5  10
HETATM   10  C           1     -21.559  -6.846  -2.650  0.00  0.00     0.196 C 
HETATM   11  O           1     -20.741  -7.289  -1.816  0.00  0.00    -0.646 OA
HETATM   12  O           1     -22.364  -5.948  -2.321  0.00  0.00    -0.646 OA
ENDBRANCH   5  10
ENDBRANCH   3   5
BRANCH   4  13
HETATM   13  C           1     -21.057  -4.641  -6.672  0.00  0.00     0.274 C 
BRANCH  13  14
HETATM   14  C           1     -21.710  -4.724  -8.045  0.00  0.00     0.045 C 
BRANCH  14  15
HETATM   15 Se           1     -20.377  -4.369  -9.422  0.00  0.00     0.000 Se
HETATM   16  H           1     -19.512  -3.568  -8.541  0.00  0.00     0.000 HD
ENDBRANCH  14  15
ENDBRANCH  13  14
BRANCH  13  17
HETATM   17  N           1     -19.597  -4.963  -6.793  0.00  0.00    -0.067 N 
HETATM   18  H           1     -19.319  -5.613  -6.025  0.00  0.00     0.275 HD
HETATM   19  H           1     -19.039  -4.082  -6.724  0.00  0.00     0.275 HD
HETATM   20  H           1     -19.416  -5.417  -7.717  0.00  0.00     0.275 HD
ENDBRANCH  13  17
ENDBRANCH   4  13
TORSDOF 9
ENDMDL
MODEL 9
REMARK VINA RESULT:      -4.1     12.287     13.997
REMARK  9 active torsions:
REMARK  status: ('A' for Active; 'I' for Inactive)
REMARK    1  A    between atoms: C_4  and  C_20 
REMARK    2  A    between atoms: C_4  and  Se_5 
REMARK    3  A    between atoms: N_6  and  C_20 
REMARK    4  A    between atoms: S_13  and  C_14 
REMARK    5  A    between atoms: C_14  and  C_15 
REMARK    6  A    between atoms: C_15  and  C_16 
REMARK    7  A    between atoms: C_16  and  C_17 
REMARK    8  A    between atoms: C_16  and  N_18 
REMARK       I    between atoms: N_18  and  C_19 
REMARK    9  A    between atoms: C_19  and  C_20 
ROOT
HETATM    1  O           1     -34.212  -1.320 -11.439  0.00  0.00    -0.271 OA
HETATM    2  H           1     -35.762  -2.404 -13.941  0.00  0.00     0.163 HD
HETATM    3  N           1     -35.454  -1.735 -13.247  0.00  0.00    -0.345 N 
HETATM    4  C           1     -34.578  -2.118 -12.267  0.00  0.00     0.249 C 
ENDROOT
BRANCH   3   5
HETATM    5  C           1     -35.942  -0.370 -13.291  0.00  0.00     0.186 C 
BRANCH   5   6
HETATM    6  C           1     -36.243   0.108 -11.877  0.00  0.00     0.046 C 
BRANCH   6   7
HETATM    7  C           1     -37.710  -0.147 -11.557  0.00  0.00     0.076 C 
BRANCH   7   8
HETATM    8  S           1     -38.075   0.443  -9.880  0.00  0.00    -0.173 SA
HETATM    9  C           1     -36.671  -0.376  -9.071  0.00  0.00     0.089 C 
ENDBRANCH   7   8
ENDBRANCH   6   7
ENDBRANCH   5   6
BRANCH   5  10
HETATM   10  C           1     -34.889   0.518 -13.910  0.00  0.00     0.196 C 
HETATM   11  O           1     -34.452   0.266 -15.053  0.00  0.00    -0.646 OA
HETATM   12  O           1     -34.456   1.507 -13.279  0.00  0.00    -0.646 OA
ENDBRANCH   5  10
ENDBRANCH   3   5
BRANCH   4  13
HETATM   13  C           1     -34.072  -3.539 -12.223  0.00  0.00     0.274 C 
BRANCH  13  14
HETATM   14  C           1     -35.030  -4.394 -11.403  0.00  0.00     0.045 C 
BRANCH  14  15
HETATM   15 Se           1     -34.125  -6.024 -10.837  0.00  0.00     0.000 Se
HETATM   16  H           1     -33.638  -5.452  -9.571  0.00  0.00     0.000 HD
ENDBRANCH  14  15
ENDBRANCH  13  14
BRANCH  13  17
HETATM   17  N           1     -32.713  -3.565 -11.589  0.00  0.00    -0.067 N 
HETATM   18  H           1     -32.784  -3.969 -10.629  0.00  0.00     0.275 HD
HETATM   19  H           1     -32.338  -2.591 -11.531  0.00  0.00     0.275 HD
HETATM   20  H           1     -32.069  -4.151 -12.168  0.00  0.00     0.275 HD
ENDBRANCH  13  17
ENDBRANCH   4  13
TORSDOF 9
ENDMDL
