MODEL 1
REMARK VINA RESULT:      -8.0      0.000      0.000
REMARK  11 active torsions:
REMARK  status: ('A' for Active; 'I' for Inactive)
REMARK    1  A    between atoms: C_2  and  C_4 
REMARK    2  A    between atoms: C_4  and  C_5 
REMARK    3  A    between atoms: C_5  and  C_28 
REMARK    4  A    between atoms: C_5  and  N_25 
REMARK    5  A    between atoms: N_10  and  C_23 
REMARK    6  A    between atoms: O_15  and  P_16 
REMARK    7  A    between atoms: P_16  and  O_17 
REMARK    8  A    between atoms: O_17  and  C_18 
REMARK    9  A    between atoms: C_21  and  C_22 
REMARK   10  A    between atoms: C_22  and  C_23 
REMARK   11  A    between atoms: C_23  and  C_24 
REMARK       I    between atoms: C_24  and  N_25 
ROOT
HETATM    1  C           1     -20.950  -4.886  -6.387  0.00  0.00     0.260 C 
ENDROOT
BRANCH   1   2
HETATM    2  N           1     -19.666  -4.452  -5.742  0.00  0.00    -0.067 N 
HETATM    3  H           1     -19.277  -5.241  -5.176  0.00  0.00     0.275 HD
HETATM    4  H           1     -18.980  -4.183  -6.482  0.00  0.00     0.275 HD
HETATM    5  H           1     -19.850  -3.634  -5.119  0.00  0.00     0.275 HD
ENDBRANCH   1   2
BRANCH   1   6
HETATM    6  C           1     -20.646  -5.567  -7.714  0.00  0.00     0.079 C 
BRANCH   6   7
HETATM    7  C           1     -21.228  -4.762  -8.834  0.00  0.00    -0.056 A 
HETATM    8  C           1     -22.559  -4.348  -8.777  0.00  0.00     0.010 A 
HETATM    9  C           1     -23.101  -3.598  -9.821  0.00  0.00     0.038 A 
HETATM   10  C           1     -22.313  -3.261 -10.921  0.00  0.00     0.081 A 
HETATM   11  C           1     -20.982  -3.675 -10.977  0.00  0.00     0.038 A 
HETATM   12  C           1     -20.439  -4.425  -9.934  0.00  0.00     0.010 A 
BRANCH  10  13
HETATM   13  O           1     -22.839  -2.532 -11.934  0.00  0.00    -0.247 OA
BRANCH  13  14
HETATM   14  P           1     -23.905  -3.252 -12.911  0.00  0.00     0.411 P 
HETATM   15  O           1     -23.687  -2.794 -14.301  0.00  0.00    -0.624 OA
HETATM   16  O           1     -25.279  -2.903 -12.484  0.00  0.00    -0.624 OA
BRANCH  14  17
HETATM   17  O           1     -23.710  -4.853 -12.834  0.00  0.00    -0.300 OA
HETATM   18  H           1     -24.408  -5.157 -12.279  0.00  0.00     0.223 HD
ENDBRANCH  14  17
ENDBRANCH  13  14
ENDBRANCH  10  13
ENDBRANCH   6   7
ENDBRANCH   1   6
BRANCH   1  19
HETATM   19  C           1     -21.665  -5.855  -5.477  0.00  0.00     0.130 C 
HETATM   20  O           1     -22.869  -5.944  -5.517  0.00  0.00    -0.397 OA
HETATM   21  N           1     -20.948  -6.632  -4.606  0.00  0.00    -0.359 N 
HETATM   22  H           1     -19.940  -6.557  -4.572  0.00  0.00     0.162 HD
BRANCH  21  23
HETATM   23  C           1     -21.637  -7.562  -3.732  0.00  0.00     0.184 C 
BRANCH  23  24
HETATM   24  C           1     -20.904  -8.897  -3.732  0.00  0.00     0.040 C 
BRANCH  24  25
HETATM   25  C           1     -21.908 -10.028  -3.914  0.00  0.00    -0.018 C 
HETATM   26  C           1     -22.088 -10.767  -2.594  0.00  0.00     0.289 C 
HETATM   27  C           1     -21.395 -10.997  -4.971  0.00  0.00     0.009 C 
ENDBRANCH  24  25
ENDBRANCH  23  24
BRANCH  23  28
HETATM   28  C           1     -21.666  -7.005  -2.330  0.00  0.00     0.196 C 
HETATM   29  O           1     -22.358  -5.997  -2.072  0.00  0.00    -0.646 OA
HETATM   30  O           1     -20.999  -7.552  -1.426  0.00  0.00    -0.646 OA
ENDBRANCH  23  28
ENDBRANCH  21  23
ENDBRANCH   1  19
TORSDOF 11
ENDMDL
MODEL 2
REMARK VINA RESULT:      -7.8      1.812      2.845
REMARK  11 active torsions:
REMARK  status: ('A' for Active; 'I' for Inactive)
REMARK    1  A    between atoms: C_2  and  C_4 
REMARK    2  A    between atoms: C_4  and  C_5 
REMARK    3  A    between atoms: C_5  and  C_28 
REMARK    4  A    between atoms: C_5  and  N_25 
REMARK    5  A    between atoms: N_10  and  C_23 
REMARK    6  A    between atoms: O_15  and  P_16 
REMARK    7  A    between atoms: P_16  and  O_17 
REMARK    8  A    between atoms: O_17  and  C_18 
REMARK    9  A    between atoms: C_21  and  C_22 
REMARK   10  A    between atoms: C_22  and  C_23 
REMARK   11  A    between atoms: C_23  and  C_24 
REMARK       I    between atoms: C_24  and  N_25 
ROOT
HETATM    1  C           1     -22.422  -5.554  -6.556  0.00  0.00     0.260 C 
ENDROOT
BRANCH   1   2
HETATM    2  N           1     -23.774  -5.303  -5.955  0.00  0.00    -0.067 N 
HETATM    3  H           1     -23.978  -4.278  -5.973  0.00  0.00     0.275 HD
HETATM    4  H           1     -24.500  -5.812  -6.507  0.00  0.00     0.275 HD
HETATM    5  H           1     -23.784  -5.643  -4.967  0.00  0.00     0.275 HD
ENDBRANCH   1   2
BRANCH   1   6
HETATM    6  C           1     -21.919  -4.281  -7.222  0.00  0.00     0.079 C 
BRANCH   6   7
HETATM    7  C           1     -22.329  -4.275  -8.662  0.00  0.00    -0.056 A 
HETATM    8  C           1     -21.366  -4.408  -9.662  0.00  0.00     0.010 A 
HETATM    9  C           1     -21.748  -4.402 -11.003  0.00  0.00     0.038 A 
HETATM   10  C           1     -23.094  -4.263 -11.345  0.00  0.00     0.081 A 
HETATM   11  C           1     -24.056  -4.130 -10.345  0.00  0.00     0.038 A 
HETATM   12  C           1     -23.674  -4.136  -9.003  0.00  0.00     0.010 A 
BRANCH  10  13
HETATM   13  O           1     -23.465  -4.257 -12.648  0.00  0.00    -0.247 OA
BRANCH  13  14
HETATM   14  P           1     -23.842  -2.839 -13.322  0.00  0.00     0.411 P 
HETATM   15  O           1     -25.278  -2.556 -13.105  0.00  0.00    -0.624 OA
HETATM   16  O           1     -23.562  -2.894 -14.775  0.00  0.00    -0.624 OA
BRANCH  14  17
HETATM   17  O           1     -22.954  -1.670 -12.648  0.00  0.00    -0.300 OA
HETATM   18  H           1     -22.452  -2.101 -11.978  0.00  0.00     0.223 HD
ENDBRANCH  14  17
ENDBRANCH  13  14
ENDBRANCH  10  13
ENDBRANCH   6   7
ENDBRANCH   1   6
BRANCH   1  19
HETATM   19  C           1     -21.460  -5.969  -5.470  0.00  0.00     0.130 C 
HETATM   20  O           1     -20.656  -5.177  -5.042  0.00  0.00    -0.397 OA
HETATM   21  N           1     -21.499  -7.244  -4.972  0.00  0.00    -0.359 N 
HETATM   22  H           1     -22.173  -7.908  -5.331  0.00  0.00     0.162 HD
BRANCH  21  23
HETATM   23  C           1     -20.574  -7.642  -3.928  0.00  0.00     0.184 C 
BRANCH  23  24
HETATM   24  C           1     -21.337  -8.336  -2.808  0.00  0.00     0.040 C 
BRANCH  24  25
HETATM   25  C           1     -21.251  -7.498  -1.539  0.00  0.00    -0.018 C 
HETATM   26  C           1     -21.599  -8.362  -0.333  0.00  0.00     0.289 C 
HETATM   27  C           1     -22.232  -6.337  -1.630  0.00  0.00     0.009 C 
ENDBRANCH  24  25
ENDBRANCH  23  24
BRANCH  23  28
HETATM   28  C           1     -19.550  -8.591  -4.501  0.00  0.00     0.196 C 
HETATM   29  O           1     -19.588  -8.893  -5.713  0.00  0.00    -0.646 OA
HETATM   30  O           1     -18.664  -9.074  -3.764  0.00  0.00    -0.646 OA
ENDBRANCH  23  28
ENDBRANCH  21  23
ENDBRANCH   1  19
TORSDOF 11
ENDMDL
MODEL 3
REMARK VINA RESULT:      -7.8      3.408      9.120
REMARK  11 active torsions:
REMARK  status: ('A' for Active; 'I' for Inactive)
REMARK    1  A    between atoms: C_2  and  C_4 
REMARK    2  A    between atoms: C_4  and  C_5 
REMARK    3  A    between atoms: C_5  and  C_28 
REMARK    4  A    between atoms: C_5  and  N_25 
REMARK    5  A    between atoms: N_10  and  C_23 
REMARK    6  A    between atoms: O_15  and  P_16 
REMARK    7  A    between atoms: P_16  and  O_17 
REMARK    8  A    between atoms: O_17  and  C_18 
REMARK    9  A    between atoms: C_21  and  C_22 
REMARK   10  A    between atoms: C_22  and  C_23 
REMARK   11  A    between atoms: C_23  and  C_24 
REMARK       I    between atoms: C_24  and  N_25 
ROOT
HETATM    1  C           1     -22.494  -4.915  -6.417  0.00  0.00     0.260 C 
ENDROOT
BRANCH   1   2
HETATM    2  N           1     -23.932  -5.249  -6.148  0.00  0.00    -0.067 N 
HETATM    3  H           1     -24.210  -4.864  -5.217  0.00  0.00     0.275 HD
HETATM    4  H           1     -24.531  -4.828  -6.892  0.00  0.00     0.275 HD
HETATM    5  H           1     -24.053  -6.287  -6.147  0.00  0.00     0.275 HD
ENDBRANCH   1   2
BRANCH   1   6
HETATM    6  C           1     -21.681  -6.200  -6.498  0.00  0.00     0.079 C 
BRANCH   6   7
HETATM    7  C           1     -21.463  -6.742  -5.120  0.00  0.00    -0.056 A 
HETATM    8  C           1     -21.494  -8.119  -4.899  0.00  0.00     0.010 A 
HETATM    9  C           1     -21.291  -8.624  -3.615  0.00  0.00     0.038 A 
HETATM   10  C           1     -21.055  -7.752  -2.551  0.00  0.00     0.081 A 
HETATM   11  C           1     -21.025  -6.375  -2.773  0.00  0.00     0.038 A 
HETATM   12  C           1     -21.228  -5.870  -4.057  0.00  0.00     0.010 A 
BRANCH  10  13
HETATM   13  O           1     -20.858  -8.243  -1.304  0.00  0.00    -0.247 OA
BRANCH  13  14
HETATM   14  P           1     -22.124  -8.299  -0.302  0.00  0.00     0.411 P 
HETATM   15  O           1     -22.952  -7.087  -0.486  0.00  0.00    -0.624 OA
HETATM   16  O           1     -21.642  -8.364   1.096  0.00  0.00    -0.624 OA
BRANCH  14  17
HETATM   17  O           1     -23.008  -9.611  -0.627  0.00  0.00    -0.300 OA
HETATM   18  H           1     -23.552  -9.364  -1.356  0.00  0.00     0.223 HD
ENDBRANCH  14  17
ENDBRANCH  13  14
ENDBRANCH  10  13
ENDBRANCH   6   7
ENDBRANCH   1   6
BRANCH   1  19
HETATM   19  C           1     -22.388  -4.169  -7.725  0.00  0.00     0.130 C 
HETATM   20  O           1     -21.534  -3.329  -7.873  0.00  0.00    -0.397 OA
HETATM   21  N           1     -23.262  -4.446  -8.742  0.00  0.00    -0.359 N 
HETATM   22  H           1     -23.978  -5.149  -8.618  0.00  0.00     0.162 HD
BRANCH  21  23
HETATM   23  C           1     -23.160  -3.729  -9.999  0.00  0.00     0.184 C 
BRANCH  23  24
HETATM   24  C           1     -22.615  -4.659 -11.074  0.00  0.00     0.040 C 
BRANCH  24  25
HETATM   25  C           1     -21.250  -4.163 -11.531  0.00  0.00    -0.018 C 
HETATM   26  C           1     -20.167  -4.760 -10.642  0.00  0.00     0.289 C 
HETATM   27  C           1     -21.204  -2.644 -11.434  0.00  0.00     0.009 C 
ENDBRANCH  24  25
ENDBRANCH  23  24
BRANCH  23  28
HETATM   28  C           1     -24.526  -3.235 -10.407  0.00  0.00     0.196 C 
HETATM   29  O           1     -25.347  -2.877  -9.535  0.00  0.00    -0.646 OA
HETATM   30  O           1     -24.837  -3.184 -11.616  0.00  0.00    -0.646 OA
ENDBRANCH  23  28
ENDBRANCH  21  23
ENDBRANCH   1  19
TORSDOF 11
ENDMDL
MODEL 4
REMARK VINA RESULT:      -7.5      1.687      2.175
REMARK  11 active torsions:
REMARK  status: ('A' for Active; 'I' for Inactive)
REMARK    1  A    between atoms: C_2  and  C_4 
REMARK    2  A    between atoms: C_4  and  C_5 
REMARK    3  A    between atoms: C_5  and  C_28 
REMARK    4  A    between atoms: C_5  and  N_25 
REMARK    5  A    between atoms: N_10  and  C_23 
REMARK    6  A    between atoms: O_15  and  P_16 
REMARK    7  A    between atoms: P_16  and  O_17 
REMARK    8  A    between atoms: O_17  and  C_18 
REMARK    9  A    between atoms: C_21  and  C_22 
REMARK   10  A    between atoms: C_22  and  C_23 
REMARK   11  A    between atoms: C_23  and  C_24 
REMARK       I    between atoms: C_24  and  N_25 
ROOT
HETATM    1  C           1     -21.473  -5.126  -6.728  0.00  0.00     0.260 C 
ENDROOT
BRANCH   1   2
HETATM    2  N           1     -21.134  -3.690  -6.460  0.00  0.00    -0.067 N 
HETATM    3  H           1     -21.053  -3.538  -5.428  0.00  0.00     0.275 HD
HETATM    4  H           1     -20.224  -3.457  -6.918  0.00  0.00     0.275 HD
HETATM    5  H           1     -21.887  -3.076  -6.844  0.00  0.00     0.275 HD
ENDBRANCH   1   2
BRANCH   1   6
HETATM    6  C           1     -20.799  -5.575  -8.017  0.00  0.00     0.079 C 
BRANCH   6   7
HETATM    7  C           1     -21.303  -4.749  -9.159  0.00  0.00    -0.056 A 
HETATM    8  C           1     -22.647  -4.378  -9.213  0.00  0.00     0.010 A 
HETATM    9  C           1     -23.115  -3.608 -10.277  0.00  0.00     0.038 A 
HETATM   10  C           1     -22.241  -3.208 -11.288  0.00  0.00     0.081 A 
HETATM   11  C           1     -20.898  -3.580 -11.234  0.00  0.00     0.038 A 
HETATM   12  C           1     -20.428  -4.350 -10.170  0.00  0.00     0.010 A 
BRANCH  10  13
HETATM   13  O           1     -22.697  -2.461 -12.321  0.00  0.00    -0.247 OA
BRANCH  13  14
HETATM   14  P           1     -23.813  -3.109 -13.292  0.00  0.00     0.411 P 
HETATM   15  O           1     -23.496  -2.778 -14.698  0.00  0.00    -0.624 OA
HETATM   16  O           1     -25.145  -2.566 -12.943  0.00  0.00    -0.624 OA
BRANCH  14  17
HETATM   17  O           1     -23.822  -4.713 -13.105  0.00  0.00    -0.300 OA
HETATM   18  H           1     -23.175  -4.885 -12.442  0.00  0.00     0.223 HD
ENDBRANCH  14  17
ENDBRANCH  13  14
ENDBRANCH  10  13
ENDBRANCH   6   7
ENDBRANCH   1   6
BRANCH   1  19
HETATM   19  C           1     -20.987  -5.979  -5.582  0.00  0.00     0.130 C 
HETATM   20  O           1     -20.826  -5.489  -4.490  0.00  0.00    -0.397 OA
HETATM   21  N           1     -20.728  -7.309  -5.781  0.00  0.00    -0.359 N 
HETATM   22  H           1     -20.862  -7.720  -6.696  0.00  0.00     0.162 HD
BRANCH  21  23
HETATM   23  C           1     -20.260  -8.129  -4.680  0.00  0.00     0.184 C 
BRANCH  23  24
HETATM   24  C           1     -21.315  -9.172  -4.337  0.00  0.00     0.040 C 
BRANCH  24  25
HETATM   25  C           1     -21.575  -9.158  -2.837  0.00  0.00    -0.018 C 
HETATM   26  C           1     -20.888  -7.950  -2.212  0.00  0.00     0.289 C 
HETATM   27  C           1     -21.021 -10.433  -2.214  0.00  0.00     0.009 C 
ENDBRANCH  24  25
ENDBRANCH  23  24
BRANCH  23  28
HETATM   28  C           1     -18.979  -8.821  -5.078  0.00  0.00     0.196 C 
HETATM   29  O           1     -18.271  -9.373  -4.208  0.00  0.00    -0.646 OA
HETATM   30  O           1     -18.627  -8.843  -6.276  0.00  0.00    -0.646 OA
ENDBRANCH  23  28
ENDBRANCH  21  23
ENDBRANCH   1  19
TORSDOF 11
ENDMDL
MODEL 5
REMARK VINA RESULT:      -7.4      1.663      2.557
REMARK  11 active torsions:
REMARK  status: ('A' for Active; 'I' for Inactive)
REMARK    1  A    between atoms: C_2  and  C_4 
REMARK    2  A    between atoms: C_4  and  C_5 
REMARK    3  A    between atoms: C_5  and  C_28 
REMARK    4  A    between atoms: C_5  and  N_25 
REMARK    5  A    between atoms: N_10  and  C_23 
REMARK    6  A    between atoms: O_15  and  P_16 
REMARK    7  A    between atoms: P_16  and  O_17 
REMARK    8  A    between atoms: O_17  and  C_18 
REMARK    9  A    between atoms: C_21  and  C_22 
REMARK   10  A    between atoms: C_22  and  C_23 
REMARK   11  A    between atoms: C_23  and  C_24 
REMARK       I    between atoms: C_24  and  N_25 
ROOT
HETATM    1  C           1     -20.819  -5.894  -6.171  0.00  0.00     0.260 C 
ENDROOT
BRANCH   1   2
HETATM    2  N           1     -20.512  -4.616  -5.447  0.00  0.00    -0.067 N 
HETATM    3  H           1     -20.903  -3.809  -5.986  0.00  0.00     0.275 HD
HETATM    4  H           1     -20.945  -4.643  -4.497  0.00  0.00     0.275 HD
HETATM    5  H           1     -19.477  -4.507  -5.358  0.00  0.00     0.275 HD
ENDBRANCH   1   2
BRANCH   1   6
HETATM    6  C           1     -20.134  -5.885  -7.530  0.00  0.00     0.079 C 
BRANCH   6   7
HETATM    7  C           1     -20.935  -5.058  -8.488  0.00  0.00    -0.056 A 
HETATM    8  C           1     -20.326  -4.516  -9.620  0.00  0.00     0.010 A 
HETATM    9  C           1     -21.072  -3.745 -10.511  0.00  0.00     0.038 A 
HETATM   10  C           1     -22.427  -3.517 -10.272  0.00  0.00     0.081 A 
HETATM   11  C           1     -23.036  -4.059  -9.140  0.00  0.00     0.038 A 
HETATM   12  C           1     -22.290  -4.830  -8.248  0.00  0.00     0.010 A 
BRANCH  10  13
HETATM   13  O           1     -23.152  -2.769 -11.138  0.00  0.00    -0.247 OA
BRANCH  13  14
HETATM   14  P           1     -23.645  -3.463 -12.511  0.00  0.00     0.411 P 
HETATM   15  O           1     -22.793  -3.003 -13.630  0.00  0.00    -0.624 OA
HETATM   16  O           1     -25.053  -3.087 -12.774  0.00  0.00    -0.624 OA
BRANCH  14  17
HETATM   17  O           1     -23.534  -5.068 -12.373  0.00  0.00    -0.300 OA
HETATM   18  H           1     -22.858  -5.211 -11.732  0.00  0.00     0.223 HD
ENDBRANCH  14  17
ENDBRANCH  13  14
ENDBRANCH  10  13
ENDBRANCH   6   7
ENDBRANCH   1   6
BRANCH   1  19
HETATM   19  C           1     -20.314  -7.063  -5.361  0.00  0.00     0.130 C 
HETATM   20  O           1     -19.490  -7.811  -5.829  0.00  0.00    -0.397 OA
HETATM   21  N           1     -20.791  -7.275  -4.094  0.00  0.00    -0.359 N 
HETATM   22  H           1     -21.481  -6.648  -3.702  0.00  0.00     0.162 HD
BRANCH  21  23
HETATM   23  C           1     -20.305  -8.398  -3.316  0.00  0.00     0.184 C 
BRANCH  23  24
HETATM   24  C           1     -20.297  -8.029  -1.839  0.00  0.00     0.040 C 
BRANCH  24  25
HETATM   25  C           1     -21.718  -8.081  -1.295  0.00  0.00    -0.018 C 
HETATM   26  C           1     -22.268  -6.666  -1.168  0.00  0.00     0.289 C 
HETATM   27  C           1     -21.712  -8.746   0.075  0.00  0.00     0.009 C 
ENDBRANCH  24  25
ENDBRANCH  23  24
BRANCH  23  28
HETATM   28  C           1     -21.209  -9.586  -3.532  0.00  0.00     0.196 C 
HETATM   29  O           1     -20.884 -10.708  -3.087  0.00  0.00    -0.646 OA
HETATM   30  O           1     -22.283  -9.449  -4.156  0.00  0.00    -0.646 OA
ENDBRANCH  23  28
ENDBRANCH  21  23
ENDBRANCH   1  19
TORSDOF 11
ENDMDL
MODEL 6
REMARK VINA RESULT:      -7.3      1.947      3.080
REMARK  11 active torsions:
REMARK  status: ('A' for Active; 'I' for Inactive)
REMARK    1  A    between atoms: C_2  and  C_4 
REMARK    2  A    between atoms: C_4  and  C_5 
REMARK    3  A    between atoms: C_5  and  C_28 
REMARK    4  A    between atoms: C_5  and  N_25 
REMARK    5  A    between atoms: N_10  and  C_23 
REMARK    6  A    between atoms: O_15  and  P_16 
REMARK    7  A    between atoms: P_16  and  O_17 
REMARK    8  A    between atoms: O_17  and  C_18 
REMARK    9  A    between atoms: C_21  and  C_22 
REMARK   10  A    between atoms: C_22  and  C_23 
REMARK   11  A    between atoms: C_23  and  C_24 
REMARK       I    between atoms: C_24  and  N_25 
ROOT
HETATM    1  C           1     -21.555  -6.456  -5.153  0.00  0.00     0.260 C 
ENDROOT
BRANCH   1   2
HETATM    2  N           1     -23.010  -6.090  -5.165  0.00  0.00    -0.067 N 
HETATM    3  H           1     -23.587  -6.960  -5.228  0.00  0.00     0.275 HD
HETATM    4  H           1     -23.246  -5.579  -4.285  0.00  0.00     0.275 HD
HETATM    5  H           1     -23.208  -5.480  -5.989  0.00  0.00     0.275 HD
ENDBRANCH   1   2
BRANCH   1   6
HETATM    6  C           1     -20.720  -5.231  -5.498  0.00  0.00     0.079 C 
BRANCH   6   7
HETATM    7  C           1     -21.013  -4.805  -6.903  0.00  0.00    -0.056 A 
HETATM    8  C           1     -20.194  -5.233  -7.948  0.00  0.00     0.010 A 
HETATM    9  C           1     -20.467  -4.836  -9.256  0.00  0.00     0.038 A 
HETATM   10  C           1     -21.562  -4.013  -9.522  0.00  0.00     0.081 A 
HETATM   11  C           1     -22.381  -3.586  -8.478  0.00  0.00     0.038 A 
HETATM   12  C           1     -22.108  -3.982  -7.168  0.00  0.00     0.010 A 
BRANCH  10  13
HETATM   13  O           1     -21.827  -3.628 -10.793  0.00  0.00    -0.247 OA
BRANCH  13  14
HETATM   14  P           1     -23.284  -3.969 -11.400  0.00  0.00     0.411 P 
HETATM   15  O           1     -24.240  -2.907 -11.015  0.00  0.00    -0.624 OA
HETATM   16  O           1     -23.747  -5.270 -10.867  0.00  0.00    -0.624 OA
BRANCH  14  17
HETATM   17  O           1     -23.190  -4.052 -13.010  0.00  0.00    -0.300 OA
HETATM   18  H           1     -23.974  -3.632 -13.322  0.00  0.00     0.223 HD
ENDBRANCH  14  17
ENDBRANCH  13  14
ENDBRANCH  10  13
ENDBRANCH   6   7
ENDBRANCH   1   6
BRANCH   1  19
HETATM   19  C           1     -21.174  -6.954  -3.780  0.00  0.00     0.130 C 
HETATM   20  O           1     -21.181  -6.198  -2.840  0.00  0.00    -0.397 OA
HETATM   21  N           1     -20.819  -8.266  -3.603  0.00  0.00    -0.359 N 
HETATM   22  H           1     -20.813  -8.900  -4.391  0.00  0.00     0.162 HD
BRANCH  21  23
HETATM   23  C           1     -20.454  -8.744  -2.283  0.00  0.00     0.184 C 
BRANCH  23  24
HETATM   24  C           1     -21.569  -9.623  -1.733  0.00  0.00     0.040 C 
BRANCH  24  25
HETATM   25  C           1     -22.339  -8.857  -0.665  0.00  0.00    -0.018 C 
HETATM   26  C           1     -21.386  -8.434   0.446  0.00  0.00     0.289 C 
HETATM   27  C           1     -23.427  -9.751  -0.086  0.00  0.00     0.009 C 
ENDBRANCH  24  25
ENDBRANCH  23  24
BRANCH  23  28
HETATM   28  C           1     -19.180  -9.548  -2.377  0.00  0.00     0.196 C 
HETATM   29  O           1     -19.086 -10.641  -1.778  0.00  0.00    -0.646 OA
HETATM   30  O           1     -18.220  -9.122  -3.053  0.00  0.00    -0.646 OA
ENDBRANCH  23  28
ENDBRANCH  21  23
ENDBRANCH   1  19
TORSDOF 11
ENDMDL
MODEL 7
REMARK VINA RESULT:      -7.2      2.284      2.966
REMARK  11 active torsions:
REMARK  status: ('A' for Active; 'I' for Inactive)
REMARK    1  A    between atoms: C_2  and  C_4 
REMARK    2  A    between atoms: C_4  and  C_5 
REMARK    3  A    between atoms: C_5  and  C_28 
REMARK    4  A    between atoms: C_5  and  N_25 
REMARK    5  A    between atoms: N_10  and  C_23 
REMARK    6  A    between atoms: O_15  and  P_16 
REMARK    7  A    between atoms: P_16  and  O_17 
REMARK    8  A    between atoms: O_17  and  C_18 
REMARK    9  A    between atoms: C_21  and  C_22 
REMARK   10  A    between atoms: C_22  and  C_23 
REMARK   11  A    between atoms: C_23  and  C_24 
REMARK       I    between atoms: C_24  and  N_25 
ROOT
HETATM    1  C           1     -21.455  -6.652  -5.590  0.00  0.00     0.260 C 
ENDROOT
BRANCH   1   2
HETATM    2  N           1     -21.979  -6.012  -4.338  0.00  0.00    -0.067 N 
HETATM    3  H           1     -22.836  -5.456  -4.565  0.00  0.00     0.275 HD
HETATM    4  H           1     -22.219  -6.753  -3.643  0.00  0.00     0.275 HD
HETATM    5  H           1     -21.250  -5.379  -3.940  0.00  0.00     0.275 HD
ENDBRANCH   1   2
BRANCH   1   6
HETATM    6  C           1     -20.374  -5.769  -6.197  0.00  0.00     0.079 C 
BRANCH   6   7
HETATM    7  C           1     -20.914  -5.079  -7.411  0.00  0.00    -0.056 A 
HETATM    8  C           1     -22.185  -4.506  -7.380  0.00  0.00     0.010 A 
HETATM    9  C           1     -22.688  -3.863  -8.511  0.00  0.00     0.038 A 
HETATM   10  C           1     -21.920  -3.792  -9.673  0.00  0.00     0.081 A 
HETATM   11  C           1     -20.649  -4.366  -9.704  0.00  0.00     0.038 A 
HETATM   12  C           1     -20.145  -5.009  -8.573  0.00  0.00     0.010 A 
BRANCH  10  13
HETATM   13  O           1     -22.409  -3.168 -10.771  0.00  0.00    -0.247 OA
BRANCH  13  14
HETATM   14  P           1     -23.723  -3.790 -11.475  0.00  0.00     0.411 P 
HETATM   15  O           1     -23.716  -5.261 -11.319  0.00  0.00    -0.624 OA
HETATM   16  O           1     -23.720  -3.444 -12.914  0.00  0.00    -0.624 OA
BRANCH  14  17
HETATM   17  O           1     -25.045  -3.179 -10.778  0.00  0.00    -0.300 OA
HETATM   18  H           1     -25.627  -2.979 -11.493  0.00  0.00     0.223 HD
ENDBRANCH  14  17
ENDBRANCH  13  14
ENDBRANCH  10  13
ENDBRANCH   6   7
ENDBRANCH   1   6
BRANCH   1  19
HETATM   19  C           1     -20.872  -8.004  -5.255  0.00  0.00     0.130 C 
HETATM   20  O           1     -21.035  -8.934  -6.007  0.00  0.00    -0.397 OA
HETATM   21  N           1     -20.159  -8.173  -4.098  0.00  0.00    -0.359 N 
HETATM   22  H           1     -20.023  -7.394  -3.468  0.00  0.00     0.162 HD
BRANCH  21  23
HETATM   23  C           1     -19.599  -9.472  -3.777  0.00  0.00     0.184 C 
BRANCH  23  24
HETATM   24  C           1     -18.114  -9.326  -3.476  0.00  0.00     0.040 C 
BRANCH  24  25
HETATM   25  C           1     -17.314 -10.222  -4.413  0.00  0.00    -0.018 C 
HETATM   26  C           1     -15.838 -10.160  -4.040  0.00  0.00     0.289 C 
HETATM   27  C           1     -17.495  -9.745  -5.847  0.00  0.00     0.009 C 
ENDBRANCH  24  25
ENDBRANCH  23  24
BRANCH  23  28
HETATM   28  C           1     -20.304 -10.037  -2.568  0.00  0.00     0.196 C 
HETATM   29  O           1     -20.132  -9.515  -1.445  0.00  0.00    -0.646 OA
HETATM   30  O           1     -21.059 -11.025  -2.690  0.00  0.00    -0.646 OA
ENDBRANCH  23  28
ENDBRANCH  21  23
ENDBRANCH   1  19
TORSDOF 11
ENDMDL
MODEL 8
REMARK VINA RESULT:      -7.2      2.361      3.211
REMARK  11 active torsions:
REMARK  status: ('A' for Active; 'I' for Inactive)
REMARK    1  A    between atoms: C_2  and  C_4 
REMARK    2  A    between atoms: C_4  and  C_5 
REMARK    3  A    between atoms: C_5  and  C_28 
REMARK    4  A    between atoms: C_5  and  N_25 
REMARK    5  A    between atoms: N_10  and  C_23 
REMARK    6  A    between atoms: O_15  and  P_16 
REMARK    7  A    between atoms: P_16  and  O_17 
REMARK    8  A    between atoms: O_17  and  C_18 
REMARK    9  A    between atoms: C_21  and  C_22 
REMARK   10  A    between atoms: C_22  and  C_23 
REMARK   11  A    between atoms: C_23  and  C_24 
REMARK       I    between atoms: C_24  and  N_25 
ROOT
HETATM    1  C           1     -21.367  -6.384  -5.493  0.00  0.00     0.260 C 
ENDROOT
BRANCH   1   2
HETATM    2  N           1     -21.865  -5.994  -4.132  0.00  0.00    -0.067 N 
HETATM    3  H           1     -21.089  -6.090  -3.437  0.00  0.00     0.275 HD
HETATM    4  H           1     -22.193  -5.003  -4.153  0.00  0.00     0.275 HD
HETATM    5  H           1     -22.656  -6.620  -3.859  0.00  0.00     0.275 HD
ENDBRANCH   1   2
BRANCH   1   6
HETATM    6  C           1     -20.412  -5.317  -6.008  0.00  0.00     0.079 C 
BRANCH   6   7
HETATM    7  C           1     -20.922  -4.774  -7.306  0.00  0.00    -0.056 A 
HETATM    8  C           1     -20.143  -4.873  -8.459  0.00  0.00     0.010 A 
HETATM    9  C           1     -20.618  -4.366  -9.668  0.00  0.00     0.038 A 
HETATM   10  C           1     -21.874  -3.762  -9.726  0.00  0.00     0.081 A 
HETATM   11  C           1     -22.653  -3.663  -8.573  0.00  0.00     0.038 A 
HETATM   12  C           1     -22.178  -4.169  -7.363  0.00  0.00     0.010 A 
BRANCH  10  13
HETATM   13  O           1     -22.336  -3.270 -10.900  0.00  0.00    -0.247 OA
BRANCH  13  14
HETATM   14  P           1     -23.652  -3.950 -11.542  0.00  0.00     0.411 P 
HETATM   15  O           1     -24.849  -3.173 -11.152  0.00  0.00    -0.624 OA
HETATM   16  O           1     -23.780  -5.339 -11.047  0.00  0.00    -0.624 OA
BRANCH  14  17
HETATM   17  O           1     -23.520  -3.964 -13.152  0.00  0.00    -0.300 OA
HETATM   18  H           1     -22.593  -3.943 -13.320  0.00  0.00     0.223 HD
ENDBRANCH  14  17
ENDBRANCH  13  14
ENDBRANCH  10  13
ENDBRANCH   6   7
ENDBRANCH   1   6
BRANCH   1  19
HETATM   19  C           1     -20.644  -7.706  -5.402  0.00  0.00     0.130 C 
HETATM   20  O           1     -19.602  -7.866  -5.990  0.00  0.00    -0.397 OA
HETATM   21  N           1     -21.172  -8.724  -4.653  0.00  0.00    -0.359 N 
HETATM   22  H           1     -22.046  -8.591  -4.161  0.00  0.00     0.162 HD
BRANCH  21  23
HETATM   23  C           1     -20.477  -9.994  -4.567  0.00  0.00     0.184 C 
BRANCH  23  24
HETATM   24  C           1     -20.489 -10.484  -3.125  0.00  0.00     0.040 C 
BRANCH  24  25
HETATM   25  C           1     -19.070 -10.835  -2.696  0.00  0.00    -0.018 C 
HETATM   26  C           1     -19.064 -11.217  -1.221  0.00  0.00     0.289 C 
HETATM   27  C           1     -18.163  -9.630  -2.910  0.00  0.00     0.009 C 
ENDBRANCH  24  25
ENDBRANCH  23  24
BRANCH  23  28
HETATM   28  C           1     -21.170 -11.006  -5.447  0.00  0.00     0.196 C 
HETATM   29  O           1     -20.814 -11.146  -6.637  0.00  0.00    -0.646 OA
HETATM   30  O           1     -22.098 -11.704  -4.986  0.00  0.00    -0.646 OA
ENDBRANCH  23  28
ENDBRANCH  21  23
ENDBRANCH   1  19
TORSDOF 11
ENDMDL
MODEL 9
REMARK VINA RESULT:      -7.1      2.505      3.764
REMARK  11 active torsions:
REMARK  status: ('A' for Active; 'I' for Inactive)
REMARK    1  A    between atoms: C_2  and  C_4 
REMARK    2  A    between atoms: C_4  and  C_5 
REMARK    3  A    between atoms: C_5  and  C_28 
REMARK    4  A    between atoms: C_5  and  N_25 
REMARK    5  A    between atoms: N_10  and  C_23 
REMARK    6  A    between atoms: O_15  and  P_16 
REMARK    7  A    between atoms: P_16  and  O_17 
REMARK    8  A    between atoms: O_17  and  C_18 
REMARK    9  A    between atoms: C_21  and  C_22 
REMARK   10  A    between atoms: C_22  and  C_23 
REMARK   11  A    between atoms: C_23  and  C_24 
REMARK       I    between atoms: C_24  and  N_25 
ROOT
HETATM    1  C           1     -20.164  -7.761  -5.304  0.00  0.00     0.260 C 
ENDROOT
BRANCH   1   2
HETATM    2  N           1     -21.259  -8.456  -6.058  0.00  0.00    -0.067 N 
HETATM    3  H           1     -22.024  -8.719  -5.396  0.00  0.00     0.275 HD
HETATM    4  H           1     -21.637  -7.816  -6.791  0.00  0.00     0.275 HD
HETATM    5  H           1     -20.877  -9.318  -6.510  0.00  0.00     0.275 HD
ENDBRANCH   1   2
BRANCH   1   6
HETATM    6  C           1     -20.603  -6.343  -4.966  0.00  0.00     0.079 C 
BRANCH   6   7
HETATM    7  C           1     -20.994  -5.627  -6.221  0.00  0.00    -0.056 A 
HETATM    8  C           1     -20.085  -5.513  -7.272  0.00  0.00     0.010 A 
HETATM    9  C           1     -20.450  -4.847  -8.441  0.00  0.00     0.038 A 
HETATM   10  C           1     -21.725  -4.295  -8.561  0.00  0.00     0.081 A 
HETATM   11  C           1     -22.635  -4.409  -7.510  0.00  0.00     0.038 A 
HETATM   12  C           1     -22.270  -5.076  -6.340  0.00  0.00     0.010 A 
BRANCH  10  13
HETATM   13  O           1     -22.080  -3.647  -9.696  0.00  0.00    -0.247 OA
BRANCH  13  14
HETATM   14  P           1     -23.601  -3.802 -10.215  0.00  0.00     0.411 P 
HETATM   15  O           1     -23.891  -5.230 -10.472  0.00  0.00    -0.624 OA
HETATM   16  O           1     -23.778  -3.028 -11.464  0.00  0.00    -0.624 OA
BRANCH  14  17
HETATM   17  O           1     -24.613  -3.241  -9.088  0.00  0.00    -0.300 OA
HETATM   18  H           1     -24.648  -2.311  -9.233  0.00  0.00     0.223 HD
ENDBRANCH  14  17
ENDBRANCH  13  14
ENDBRANCH  10  13
ENDBRANCH   6   7
ENDBRANCH   1   6
BRANCH   1  19
HETATM   19  C           1     -19.875  -8.516  -4.030  0.00  0.00     0.130 C 
HETATM   20  O           1     -18.775  -8.975  -3.836  0.00  0.00    -0.397 OA
HETATM   21  N           1     -20.861  -8.679  -3.093  0.00  0.00    -0.359 N 
HETATM   22  H           1     -21.782  -8.295  -3.255  0.00  0.00     0.162 HD
BRANCH  21  23
HETATM   23  C           1     -20.582  -9.405  -1.869  0.00  0.00     0.184 C 
BRANCH  23  24
HETATM   24  C           1     -20.899  -8.521  -0.670  0.00  0.00     0.040 C 
BRANCH  24  25
HETATM   25  C           1     -22.300  -7.944  -0.819  0.00  0.00    -0.018 C 
HETATM   26  C           1     -22.208  -6.465  -1.171  0.00  0.00     0.289 C 
HETATM   27  C           1     -23.057  -8.106   0.492  0.00  0.00     0.009 C 
ENDBRANCH  24  25
ENDBRANCH  23  24
BRANCH  23  28
HETATM   28  C           1     -21.437 -10.647  -1.816  0.00  0.00     0.196 C 
HETATM   29  O           1     -22.162 -10.948  -2.789  0.00  0.00    -0.646 OA
HETATM   30  O           1     -21.421 -11.375  -0.801  0.00  0.00    -0.646 OA
ENDBRANCH  23  28
ENDBRANCH  21  23
ENDBRANCH   1  19
TORSDOF 11
ENDMDL
