MODEL 1
REMARK VINA RESULT:      -6.5      0.000      0.000
REMARK  10 active torsions:
REMARK  status: ('A' for Active; 'I' for Inactive)
REMARK    1  A    between atoms: C_1  and  C_21 
REMARK    2  A    between atoms: C_1  and  C_2 
REMARK    3  A    between atoms: C_1  and  N_6 
REMARK    4  A    between atoms: C_2  and  C_3 
REMARK    5  A    between atoms: C_3  and  Se_4 
REMARK       I    between atoms: C_10  and  N_11 
REMARK    6  A    between atoms: C_10  and  C_12 
REMARK    7  A    between atoms: C_12  and  C_13 
REMARK    8  A    between atoms: C_13  and  C_14 
REMARK    9  A    between atoms: C_14  and  C_15 
REMARK   10  A    between atoms: C_14  and  N_20 
REMARK       I    between atoms: N_20  and  C_21 
ROOT
HETATM    1  O           1     -33.907  -1.707 -11.316  0.00  0.00    -0.271 OA
HETATM    2  N           1     -35.452  -1.671 -12.927  0.00  0.00    -0.345 N 
HETATM    3  C           1     -34.494  -2.307 -12.184  0.00  0.00     0.249 C 
HETATM    4  H           1     -35.944  -2.173 -13.655  0.00  0.00     0.163 HD
ENDROOT
BRANCH   2   5
HETATM    5  C           1     -35.761  -0.277 -12.671  0.00  0.00     0.186 C 
BRANCH   5   6
HETATM    6  C           1     -36.325   0.358 -13.936  0.00  0.00     0.045 C 
BRANCH   6   7
HETATM    7  C           1     -35.275   0.315 -15.038  0.00  0.00     0.105 C 
BRANCH   7   8
HETATM    8  C           1     -35.601  -0.800 -16.002  0.00  0.00     0.215 C 
HETATM    9  O           1     -35.115  -1.895 -15.846  0.00  0.00    -0.274 OA
HETATM   10  N           1     -36.447  -0.569 -17.052  0.00  0.00    -0.370 N 
HETATM   11  H           1     -36.854   0.348 -17.183  0.00  0.00     0.159 HD
HETATM   12  H           1     -36.666  -1.316 -17.699  0.00  0.00     0.159 HD
ENDBRANCH   7   8
ENDBRANCH   6   7
ENDBRANCH   5   6
BRANCH   5  13
HETATM   13  C           1     -36.781  -0.185 -11.563  0.00  0.00     0.196 C 
HETATM   14  O           1     -36.529   0.482 -10.536  0.00  0.00    -0.646 OA
HETATM   15  O           1     -37.878  -0.775 -11.672  0.00  0.00    -0.646 OA
ENDBRANCH   5  13
ENDBRANCH   2   5
BRANCH   3  16
HETATM   16  C           1     -34.172  -3.757 -12.451  0.00  0.00     0.274 C 
BRANCH  16  17
HETATM   17  C           1     -32.946  -4.162 -11.644  0.00  0.00     0.042 C 
BRANCH  17  18
HETATM   18  C           1     -33.073  -5.621 -11.226  0.00  0.00     0.003 C 
BRANCH  18  19
HETATM   19 Se           1     -34.786  -5.896 -10.338  0.00  0.00     0.000 Se
HETATM   20  C           1     -34.553  -7.820 -10.126  0.00  0.00     0.000 C 
ENDBRANCH  18  19
ENDBRANCH  17  18
ENDBRANCH  16  17
BRANCH  16  21
HETATM   21  N           1     -33.894  -3.947 -13.913  0.00  0.00    -0.067 N 
HETATM   22  H           1     -32.966  -3.528 -14.148  0.00  0.00     0.275 HD
HETATM   23  H           1     -33.882  -4.968 -14.134  0.00  0.00     0.275 HD
HETATM   24  H           1     -34.641  -3.477 -14.472  0.00  0.00     0.275 HD
ENDBRANCH  16  21
ENDBRANCH   3  16
TORSDOF 10
ENDMDL
MODEL 2
REMARK VINA RESULT:      -5.7      1.991      3.776
REMARK  10 active torsions:
REMARK  status: ('A' for Active; 'I' for Inactive)
REMARK    1  A    between atoms: C_1  and  C_21 
REMARK    2  A    between atoms: C_1  and  C_2 
REMARK    3  A    between atoms: C_1  and  N_6 
REMARK    4  A    between atoms: C_2  and  C_3 
REMARK    5  A    between atoms: C_3  and  Se_4 
REMARK       I    between atoms: C_10  and  N_11 
REMARK    6  A    between atoms: C_10  and  C_12 
REMARK    7  A    between atoms: C_12  and  C_13 
REMARK    8  A    between atoms: C_13  and  C_14 
REMARK    9  A    between atoms: C_14  and  C_15 
REMARK   10  A    between atoms: C_14  and  N_20 
REMARK       I    between atoms: N_20  and  C_21 
ROOT
HETATM    1  O           1     -35.941  -3.088 -11.308  0.00  0.00    -0.271 OA
HETATM    2  N           1     -34.748  -1.991 -12.844  0.00  0.00    -0.345 N 
HETATM    3  C           1     -34.909  -2.996 -11.929  0.00  0.00     0.249 C 
HETATM    4  H           1     -33.885  -1.913 -13.365  0.00  0.00     0.163 HD
ENDROOT
BRANCH   2   5
HETATM    5  C           1     -35.817  -1.035 -13.066  0.00  0.00     0.186 C 
BRANCH   5   6
HETATM    6  C           1     -35.721   0.082 -12.036  0.00  0.00     0.045 C 
BRANCH   6   7
HETATM    7  C           1     -37.035   0.185 -11.273  0.00  0.00     0.105 C 
BRANCH   7   8
HETATM    8  C           1     -36.751   0.401  -9.807  0.00  0.00     0.215 C 
HETATM    9  O           1     -36.082  -0.398  -9.196  0.00  0.00    -0.274 OA
HETATM   10  N           1     -37.252   1.504  -9.169  0.00  0.00    -0.370 N 
HETATM   11  H           1     -37.812   2.174  -9.680  0.00  0.00     0.159 HD
HETATM   12  H           1     -37.061   1.650  -8.185  0.00  0.00     0.159 HD
ENDBRANCH   7   8
ENDBRANCH   6   7
ENDBRANCH   5   6
BRANCH   5  13
HETATM   13  C           1     -35.690  -0.455 -14.453  0.00  0.00     0.196 C 
HETATM   14  O           1     -35.411  -1.198 -15.418  0.00  0.00    -0.646 OA
HETATM   15  O           1     -35.865   0.769 -14.636  0.00  0.00    -0.646 OA
ENDBRANCH   5  13
ENDBRANCH   2   5
BRANCH   3  16
HETATM   16  C           1     -33.797  -3.990 -11.697  0.00  0.00     0.274 C 
BRANCH  16  17
HETATM   17  C           1     -34.141  -4.867 -10.500  0.00  0.00     0.042 C 
BRANCH  17  18
HETATM   18  C           1     -33.857  -6.324 -10.841  0.00  0.00     0.003 C 
BRANCH  18  19
HETATM   19 Se           1     -34.977  -7.479  -9.739  0.00  0.00     0.000 Se
HETATM   20  C           1     -33.801  -9.027  -9.881  0.00  0.00     0.000 C 
ENDBRANCH  18  19
ENDBRANCH  17  18
ENDBRANCH  16  17
BRANCH  16  21
HETATM   21  N           1     -32.518  -3.254 -11.426  0.00  0.00    -0.067 N 
HETATM   22  H           1     -32.113  -3.581 -10.520  0.00  0.00     0.275 HD
HETATM   23  H           1     -31.840  -3.442 -12.199  0.00  0.00     0.275 HD
HETATM   24  H           1     -32.711  -2.229 -11.373  0.00  0.00     0.275 HD
ENDBRANCH  16  21
ENDBRANCH   3  16
TORSDOF 10
ENDMDL
MODEL 3
REMARK VINA RESULT:      -5.5      4.148      6.000
REMARK  10 active torsions:
REMARK  status: ('A' for Active; 'I' for Inactive)
REMARK    1  A    between atoms: C_1  and  C_21 
REMARK    2  A    between atoms: C_1  and  C_2 
REMARK    3  A    between atoms: C_1  and  N_6 
REMARK    4  A    between atoms: C_2  and  C_3 
REMARK    5  A    between atoms: C_3  and  Se_4 
REMARK       I    between atoms: C_10  and  N_11 
REMARK    6  A    between atoms: C_10  and  C_12 
REMARK    7  A    between atoms: C_12  and  C_13 
REMARK    8  A    between atoms: C_13  and  C_14 
REMARK    9  A    between atoms: C_14  and  C_15 
REMARK   10  A    between atoms: C_14  and  N_20 
REMARK       I    between atoms: N_20  and  C_21 
ROOT
HETATM    1  O           1     -35.009  -4.999 -15.362  0.00  0.00    -0.271 OA
HETATM    2  N           1     -33.391  -3.935 -14.251  0.00  0.00    -0.345 N 
HETATM    3  C           1     -33.903  -4.514 -15.381  0.00  0.00     0.249 C 
HETATM    4  H           1     -32.465  -3.528 -14.266  0.00  0.00     0.163 HD
ENDROOT
BRANCH   2   5
HETATM    5  C           1     -34.177  -3.902 -13.033  0.00  0.00     0.186 C 
BRANCH   5   6
HETATM    6  C           1     -33.250  -4.006 -11.828  0.00  0.00     0.045 C 
BRANCH   6   7
HETATM    7  C           1     -34.036  -4.506 -10.623  0.00  0.00     0.105 C 
BRANCH   7   8
HETATM    8  C           1     -34.031  -6.015 -10.609  0.00  0.00     0.215 C 
HETATM    9  O           1     -34.940  -6.617 -10.089  0.00  0.00    -0.274 OA
HETATM   10  N           1     -32.996  -6.700 -11.185  0.00  0.00    -0.370 N 
HETATM   11  H           1     -32.234  -6.196 -11.621  0.00  0.00     0.159 HD
HETATM   12  H           1     -32.992  -7.713 -11.176  0.00  0.00     0.159 HD
ENDBRANCH   7   8
ENDBRANCH   6   7
ENDBRANCH   5   6
BRANCH   5  13
HETATM   13  C           1     -34.947  -2.606 -12.966  0.00  0.00     0.196 C 
HETATM   14  O           1     -34.779  -1.734 -13.844  0.00  0.00    -0.646 OA
HETATM   15  O           1     -35.754  -2.407 -12.032  0.00  0.00    -0.646 OA
ENDBRANCH   5  13
ENDBRANCH   2   5
BRANCH   3  16
HETATM   16  C           1     -33.085  -4.548 -16.648  0.00  0.00     0.274 C 
BRANCH  16  17
HETATM   17  C           1     -31.625  -4.811 -16.305  0.00  0.00     0.042 C 
BRANCH  17  18
HETATM   18  C           1     -30.887  -5.283 -17.551  0.00  0.00     0.003 C 
BRANCH  18  19
HETATM   19 Se           1     -29.633  -6.696 -17.066  0.00  0.00     0.000 Se
HETATM   20  C           1     -30.104  -7.851 -18.564  0.00  0.00     0.000 C 
ENDBRANCH  18  19
ENDBRANCH  17  18
ENDBRANCH  16  17
BRANCH  16  21
HETATM   21  N           1     -33.203  -3.230 -17.355  0.00  0.00    -0.067 N 
HETATM   22  H           1     -32.892  -3.337 -18.347  0.00  0.00     0.275 HD
HETATM   23  H           1     -34.198  -2.913 -17.334  0.00  0.00     0.275 HD
HETATM   24  H           1     -32.601  -2.524 -16.875  0.00  0.00     0.275 HD
ENDBRANCH  16  21
ENDBRANCH   3  16
TORSDOF 10
ENDMDL
MODEL 4
REMARK VINA RESULT:      -5.3      9.571     11.971
REMARK  10 active torsions:
REMARK  status: ('A' for Active; 'I' for Inactive)
REMARK    1  A    between atoms: C_1  and  C_21 
REMARK    2  A    between atoms: C_1  and  C_2 
REMARK    3  A    between atoms: C_1  and  N_6 
REMARK    4  A    between atoms: C_2  and  C_3 
REMARK    5  A    between atoms: C_3  and  Se_4 
REMARK       I    between atoms: C_10  and  N_11 
REMARK    6  A    between atoms: C_10  and  C_12 
REMARK    7  A    between atoms: C_12  and  C_13 
REMARK    8  A    between atoms: C_13  and  C_14 
REMARK    9  A    between atoms: C_14  and  C_15 
REMARK   10  A    between atoms: C_14  and  N_20 
REMARK       I    between atoms: N_20  and  C_21 
ROOT
HETATM    1  O           1     -28.239  -5.241 -19.137  0.00  0.00    -0.271 OA
HETATM    2  N           1     -27.318  -7.275 -19.135  0.00  0.00    -0.345 N 
HETATM    3  C           1     -28.343  -6.411 -18.855  0.00  0.00     0.249 C 
HETATM    4  H           1     -27.405  -8.256 -18.900  0.00  0.00     0.163 HD
ENDROOT
BRANCH   2   5
HETATM    5  C           1     -26.109  -6.786 -19.769  0.00  0.00     0.186 C 
BRANCH   5   6
HETATM    6  C           1     -24.965  -6.809 -18.763  0.00  0.00     0.045 C 
BRANCH   6   7
HETATM    7  C           1     -25.483  -6.385 -17.395  0.00  0.00     0.105 C 
BRANCH   7   8
HETATM    8  C           1     -24.913  -7.296 -16.336  0.00  0.00     0.215 C 
HETATM    9  O           1     -25.421  -7.342 -15.241  0.00  0.00    -0.274 OA
HETATM   10  N           1     -23.820  -8.071 -16.617  0.00  0.00    -0.370 N 
HETATM   11  H           1     -23.394  -8.033 -17.534  0.00  0.00     0.159 HD
HETATM   12  H           1     -23.437  -8.682 -15.907  0.00  0.00     0.159 HD
ENDBRANCH   7   8
ENDBRANCH   6   7
ENDBRANCH   5   6
BRANCH   5  13
HETATM   13  C           1     -25.766  -7.668 -20.944  0.00  0.00     0.196 C 
HETATM   14  O           1     -24.650  -7.566 -21.497  0.00  0.00    -0.646 OA
HETATM   15  O           1     -26.598  -8.501 -21.364  0.00  0.00    -0.646 OA
ENDBRANCH   5  13
ENDBRANCH   2   5
BRANCH   3  16
HETATM   16  C           1     -29.601  -6.921 -18.196  0.00  0.00     0.274 C 
BRANCH  16  17
HETATM   17  C           1     -29.436  -6.875 -16.683  0.00  0.00     0.042 C 
BRANCH  17  18
HETATM   18  C           1     -30.176  -5.665 -16.127  0.00  0.00     0.003 C 
BRANCH  18  19
HETATM   19 Se           1     -31.896  -5.487 -17.026  0.00  0.00     0.000 Se
HETATM   20  C           1     -31.607  -3.636 -17.564  0.00  0.00     0.000 C 
ENDBRANCH  18  19
ENDBRANCH  17  18
ENDBRANCH  16  17
BRANCH  16  21
HETATM   21  N           1     -29.856  -8.334 -18.629  0.00  0.00    -0.067 N 
HETATM   22  H           1     -30.586  -8.343 -19.377  0.00  0.00     0.275 HD
HETATM   23  H           1     -28.971  -8.748 -19.000  0.00  0.00     0.275 HD
HETATM   24  H           1     -30.187  -8.894 -17.811  0.00  0.00     0.275 HD
ENDBRANCH  16  21
ENDBRANCH   3  16
TORSDOF 10
ENDMDL
MODEL 5
REMARK VINA RESULT:      -5.2     10.587     12.343
REMARK  10 active torsions:
REMARK  status: ('A' for Active; 'I' for Inactive)
REMARK    1  A    between atoms: C_1  and  C_21 
REMARK    2  A    between atoms: C_1  and  C_2 
REMARK    3  A    between atoms: C_1  and  N_6 
REMARK    4  A    between atoms: C_2  and  C_3 
REMARK    5  A    between atoms: C_3  and  Se_4 
REMARK       I    between atoms: C_10  and  N_11 
REMARK    6  A    between atoms: C_10  and  C_12 
REMARK    7  A    between atoms: C_12  and  C_13 
REMARK    8  A    between atoms: C_13  and  C_14 
REMARK    9  A    between atoms: C_14  and  C_15 
REMARK   10  A    between atoms: C_14  and  N_20 
REMARK       I    between atoms: N_20  and  C_21 
ROOT
HETATM    1  O           1     -27.698  -5.678 -19.191  0.00  0.00    -0.271 OA
HETATM    2  N           1     -26.047  -6.728 -18.114  0.00  0.00    -0.345 N 
HETATM    3  C           1     -26.691  -6.343 -19.259  0.00  0.00     0.249 C 
HETATM    4  H           1     -25.204  -7.284 -18.171  0.00  0.00     0.163 HD
ENDROOT
BRANCH   2   5
HETATM    5  C           1     -26.573  -6.338 -16.820  0.00  0.00     0.186 C 
BRANCH   5   6
HETATM    6  C           1     -27.709  -7.277 -16.431  0.00  0.00     0.045 C 
BRANCH   6   7
HETATM    7  C           1     -28.839  -6.473 -15.801  0.00  0.00     0.105 C 
BRANCH   7   8
HETATM    8  C           1     -29.938  -6.270 -16.816  0.00  0.00     0.215 C 
HETATM    9  O           1     -30.620  -5.274 -16.776  0.00  0.00    -0.274 OA
HETATM   10  N           1     -30.161  -7.214 -17.781  0.00  0.00    -0.370 N 
HETATM   11  H           1     -29.590  -8.049 -17.814  0.00  0.00     0.159 HD
HETATM   12  H           1     -30.898  -7.078 -18.461  0.00  0.00     0.159 HD
ENDBRANCH   7   8
ENDBRANCH   6   7
ENDBRANCH   5   6
BRANCH   5  13
HETATM   13  C           1     -25.476  -6.419 -15.787  0.00  0.00     0.196 C 
HETATM   14  O           1     -25.080  -7.532 -15.382  0.00  0.00    -0.646 OA
HETATM   15  O           1     -24.963  -5.371 -15.338  0.00  0.00    -0.646 OA
ENDBRANCH   5  13
ENDBRANCH   2   5
BRANCH   3  16
HETATM   16  C           1     -26.145  -6.748 -20.606  0.00  0.00     0.274 C 
BRANCH  16  17
HETATM   17  C           1     -25.127  -7.866 -20.425  0.00  0.00     0.042 C 
BRANCH  17  18
HETATM   18  C           1     -24.214  -7.924 -21.644  0.00  0.00     0.003 C 
BRANCH  18  19
HETATM   19 Se           1     -22.467  -8.609 -21.115  0.00  0.00     0.000 Se
HETATM   20  C           1     -22.026  -9.307 -22.880  0.00  0.00     0.000 C 
ENDBRANCH  18  19
ENDBRANCH  17  18
ENDBRANCH  16  17
BRANCH  16  21
HETATM   21  N           1     -25.482  -5.568 -21.253  0.00  0.00    -0.067 N 
HETATM   22  H           1     -25.287  -5.785 -22.256  0.00  0.00     0.275 HD
HETATM   23  H           1     -26.114  -4.739 -21.191  0.00  0.00     0.275 HD
HETATM   24  H           1     -24.585  -5.360 -20.759  0.00  0.00     0.275 HD
ENDBRANCH  16  21
ENDBRANCH   3  16
TORSDOF 10
ENDMDL
MODEL 6
REMARK VINA RESULT:      -5.2     14.771     17.716
REMARK  10 active torsions:
REMARK  status: ('A' for Active; 'I' for Inactive)
REMARK    1  A    between atoms: C_1  and  C_21 
REMARK    2  A    between atoms: C_1  and  C_2 
REMARK    3  A    between atoms: C_1  and  N_6 
REMARK    4  A    between atoms: C_2  and  C_3 
REMARK    5  A    between atoms: C_3  and  Se_4 
REMARK       I    between atoms: C_10  and  N_11 
REMARK    6  A    between atoms: C_10  and  C_12 
REMARK    7  A    between atoms: C_12  and  C_13 
REMARK    8  A    between atoms: C_13  and  C_14 
REMARK    9  A    between atoms: C_14  and  C_15 
REMARK   10  A    between atoms: C_14  and  N_20 
REMARK       I    between atoms: N_20  and  C_21 
ROOT
HETATM    1  O           1     -20.543  -5.185  -5.302  0.00  0.00    -0.271 OA
HETATM    2  N           1     -20.815  -7.296  -5.976  0.00  0.00    -0.345 N 
HETATM    3  C           1     -20.922  -5.944  -6.162  0.00  0.00     0.249 C 
HETATM    4  H           1     -21.132  -7.932  -6.696  0.00  0.00     0.163 HD
ENDROOT
BRANCH   2   5
HETATM    5  C           1     -20.247  -7.817  -4.747  0.00  0.00     0.186 C 
BRANCH   5   6
HETATM    6  C           1     -21.369  -8.152  -3.772  0.00  0.00     0.045 C 
BRANCH   6   7
HETATM    7  C           1     -20.965  -7.726  -2.367  0.00  0.00     0.105 C 
BRANCH   7   8
HETATM    8  C           1     -22.020  -6.812  -1.794  0.00  0.00     0.215 C 
HETATM    9  O           1     -22.438  -5.886  -2.449  0.00  0.00    -0.274 OA
HETATM   10  N           1     -22.504  -7.032  -0.533  0.00  0.00    -0.370 N 
HETATM   11  H           1     -22.155  -7.808   0.015  0.00  0.00     0.159 HD
HETATM   12  H           1     -23.213  -6.419  -0.149  0.00  0.00     0.159 HD
ENDBRANCH   7   8
ENDBRANCH   6   7
ENDBRANCH   5   6
BRANCH   5  13
HETATM   13  C           1     -19.453  -9.063  -5.050  0.00  0.00     0.196 C 
HETATM   14  O           1     -19.926  -9.937  -5.807  0.00  0.00    -0.646 OA
HETATM   15  O           1     -18.321  -9.221  -4.543  0.00  0.00    -0.646 OA
ENDBRANCH   5  13
ENDBRANCH   2   5
BRANCH   3  16
HETATM   16  C           1     -21.513  -5.402  -7.440  0.00  0.00     0.274 C 
BRANCH  16  17
HETATM   17  C           1     -20.392  -5.010  -8.392  0.00  0.00     0.042 C 
BRANCH  17  18
HETATM   18  C           1     -20.820  -3.797  -9.208  0.00  0.00     0.003 C 
BRANCH  18  19
HETATM   19 Se           1     -20.589  -4.176 -11.106  0.00  0.00     0.000 Se
HETATM   20  C           1     -21.933  -2.893 -11.693  0.00  0.00     0.000 C 
ENDBRANCH  18  19
ENDBRANCH  17  18
ENDBRANCH  16  17
BRANCH  16  21
HETATM   21  N           1     -22.352  -4.197  -7.132  0.00  0.00    -0.067 N 
HETATM   22  H           1     -21.867  -3.338  -7.475  0.00  0.00     0.275 HD
HETATM   23  H           1     -23.278  -4.288  -7.606  0.00  0.00     0.275 HD
HETATM   24  H           1     -22.494  -4.128  -6.098  0.00  0.00     0.275 HD
ENDBRANCH  16  21
ENDBRANCH   3  16
TORSDOF 10
ENDMDL
MODEL 7
REMARK VINA RESULT:      -5.1     14.716     17.569
REMARK  10 active torsions:
REMARK  status: ('A' for Active; 'I' for Inactive)
REMARK    1  A    between atoms: C_1  and  C_21 
REMARK    2  A    between atoms: C_1  and  C_2 
REMARK    3  A    between atoms: C_1  and  N_6 
REMARK    4  A    between atoms: C_2  and  C_3 
REMARK    5  A    between atoms: C_3  and  Se_4 
REMARK       I    between atoms: C_10  and  N_11 
REMARK    6  A    between atoms: C_10  and  C_12 
REMARK    7  A    between atoms: C_12  and  C_13 
REMARK    8  A    between atoms: C_13  and  C_14 
REMARK    9  A    between atoms: C_14  and  C_15 
REMARK   10  A    between atoms: C_14  and  N_20 
REMARK       I    between atoms: N_20  and  C_21 
ROOT
HETATM    1  O           1     -22.638  -5.579  -5.812  0.00  0.00    -0.271 OA
HETATM    2  N           1     -20.805  -6.509  -4.939  0.00  0.00    -0.345 N 
HETATM    3  C           1     -21.431  -5.630  -5.781  0.00  0.00     0.249 C 
HETATM    4  H           1     -19.795  -6.552  -4.912  0.00  0.00     0.163 HD
ENDROOT
BRANCH   2   5
HETATM    5  C           1     -21.591  -7.380  -4.085  0.00  0.00     0.186 C 
BRANCH   5   6
HETATM    6  C           1     -20.989  -8.780  -4.100  0.00  0.00     0.045 C 
BRANCH   6   7
HETATM    7  C           1     -19.690  -8.767  -4.894  0.00  0.00     0.105 C 
BRANCH   7   8
HETATM    8  C           1     -18.563  -9.269  -4.025  0.00  0.00     0.215 C 
HETATM    9  O           1     -17.527  -9.633  -4.529  0.00  0.00    -0.274 OA
HETATM   10  N           1     -18.716  -9.313  -2.665  0.00  0.00    -0.370 N 
HETATM   11  H           1     -19.584  -9.009  -2.243  0.00  0.00     0.159 HD
HETATM   12  H           1     -17.960  -9.650  -2.082  0.00  0.00     0.159 HD
ENDBRANCH   7   8
ENDBRANCH   6   7
ENDBRANCH   5   6
BRANCH   5  13
HETATM   13  C           1     -21.582  -6.842  -2.676  0.00  0.00     0.196 C 
HETATM   14  O           1     -22.330  -5.891  -2.366  0.00  0.00    -0.646 OA
HETATM   15  O           1     -20.826  -7.348  -1.818  0.00  0.00    -0.646 OA
ENDBRANCH   5  13
ENDBRANCH   2   5
BRANCH   3  16
HETATM   16  C           1     -20.615  -4.724  -6.669  0.00  0.00     0.274 C 
BRANCH  16  17
HETATM   17  C           1     -21.525  -3.686  -7.311  0.00  0.00     0.042 C 
BRANCH  17  18
HETATM   18  C           1     -21.794  -4.072  -8.760  0.00  0.00     0.003 C 
BRANCH  18  19
HETATM   19 Se           1     -23.707  -3.962  -9.117  0.00  0.00     0.000 Se
HETATM   20  C           1     -23.600  -4.852 -10.848  0.00  0.00     0.000 C 
ENDBRANCH  18  19
ENDBRANCH  17  18
ENDBRANCH  16  17
BRANCH  16  21
HETATM   21  N           1     -19.952  -5.538  -7.740  0.00  0.00    -0.067 N 
HETATM   22  H           1     -20.634  -5.722  -8.511  0.00  0.00     0.275 HD
HETATM   23  H           1     -19.132  -5.013  -8.118  0.00  0.00     0.275 HD
HETATM   24  H           1     -19.629  -6.447  -7.336  0.00  0.00     0.275 HD
ENDBRANCH  16  21
ENDBRANCH   3  16
TORSDOF 10
ENDMDL
MODEL 8
REMARK VINA RESULT:      -5.0     15.894     17.917
REMARK  10 active torsions:
REMARK  status: ('A' for Active; 'I' for Inactive)
REMARK    1  A    between atoms: C_1  and  C_21 
REMARK    2  A    between atoms: C_1  and  C_2 
REMARK    3  A    between atoms: C_1  and  N_6 
REMARK    4  A    between atoms: C_2  and  C_3 
REMARK    5  A    between atoms: C_3  and  Se_4 
REMARK       I    between atoms: C_10  and  N_11 
REMARK    6  A    between atoms: C_10  and  C_12 
REMARK    7  A    between atoms: C_12  and  C_13 
REMARK    8  A    between atoms: C_13  and  C_14 
REMARK    9  A    between atoms: C_14  and  C_15 
REMARK   10  A    between atoms: C_14  and  N_20 
REMARK       I    between atoms: N_20  and  C_21 
ROOT
HETATM    1  O           1     -19.715  -7.852  -5.807  0.00  0.00    -0.271 OA
HETATM    2  N           1     -21.499  -8.023  -4.476  0.00  0.00    -0.345 N 
HETATM    3  C           1     -20.783  -7.404  -5.465  0.00  0.00     0.249 C 
HETATM    4  H           1     -22.394  -7.649  -4.189  0.00  0.00     0.163 HD
ENDROOT
BRANCH   2   5
HETATM    5  C           1     -20.974  -9.216  -3.839  0.00  0.00     0.186 C 
BRANCH   5   6
HETATM    6  C           1     -21.114  -9.087  -2.327  0.00  0.00     0.045 C 
BRANCH   6   7
HETATM    7  C           1     -20.747  -7.671  -1.903  0.00  0.00     0.105 C 
BRANCH   7   8
HETATM    8  C           1     -22.003  -6.908  -1.557  0.00  0.00     0.215 C 
HETATM    9  O           1     -22.406  -6.041  -2.296  0.00  0.00    -0.274 OA
HETATM   10  N           1     -22.684  -7.198  -0.406  0.00  0.00    -0.370 N 
HETATM   11  H           1     -22.347  -7.923   0.213  0.00  0.00     0.159 HD
HETATM   12  H           1     -23.526  -6.686  -0.174  0.00  0.00     0.159 HD
ENDBRANCH   7   8
ENDBRANCH   6   7
ENDBRANCH   5   6
BRANCH   5  13
HETATM   13  C           1     -21.747 -10.421  -4.316  0.00  0.00     0.196 C 
HETATM   14  O           1     -21.395 -11.018  -5.355  0.00  0.00    -0.646 OA
HETATM   15  O           1     -22.740 -10.822  -3.671  0.00  0.00    -0.646 OA
ENDBRANCH   5  13
ENDBRANCH   2   5
BRANCH   3  16
HETATM   16  C           1     -21.329  -6.163  -6.127  0.00  0.00     0.274 C 
BRANCH  16  17
HETATM   17  C           1     -20.309  -5.037  -6.016  0.00  0.00     0.042 C 
BRANCH  17  18
HETATM   18  C           1     -19.828  -4.649  -7.408  0.00  0.00     0.003 C 
BRANCH  18  19
HETATM   19 Se           1     -21.366  -4.277  -8.547  0.00  0.00     0.000 Se
HETATM   20  C           1     -20.371  -4.427 -10.217  0.00  0.00     0.000 C 
ENDBRANCH  18  19
ENDBRANCH  17  18
ENDBRANCH  16  17
BRANCH  16  21
HETATM   21  N           1     -22.602  -5.753  -5.449  0.00  0.00    -0.067 N 
HETATM   22  H           1     -22.933  -6.527  -4.830  0.00  0.00     0.275 HD
HETATM   23  H           1     -22.430  -4.897  -4.875  0.00  0.00     0.275 HD
HETATM   24  H           1     -23.330  -5.548  -6.171  0.00  0.00     0.275 HD
ENDBRANCH  16  21
ENDBRANCH   3  16
TORSDOF 10
ENDMDL
MODEL 9
REMARK VINA RESULT:      -4.8     16.934     19.103
REMARK  10 active torsions:
REMARK  status: ('A' for Active; 'I' for Inactive)
REMARK    1  A    between atoms: C_1  and  C_21 
REMARK    2  A    between atoms: C_1  and  C_2 
REMARK    3  A    between atoms: C_1  and  N_6 
REMARK    4  A    between atoms: C_2  and  C_3 
REMARK    5  A    between atoms: C_3  and  Se_4 
REMARK       I    between atoms: C_10  and  N_11 
REMARK    6  A    between atoms: C_10  and  C_12 
REMARK    7  A    between atoms: C_12  and  C_13 
REMARK    8  A    between atoms: C_13  and  C_14 
REMARK    9  A    between atoms: C_14  and  C_15 
REMARK   10  A    between atoms: C_14  and  N_20 
REMARK       I    between atoms: N_20  and  C_21 
ROOT
HETATM    1  O           1     -20.488 -10.789  -4.550  0.00  0.00    -0.271 OA
HETATM    2  N           1     -19.877  -8.752  -5.229  0.00  0.00    -0.345 N 
HETATM    3  C           1     -19.694 -10.106  -5.152  0.00  0.00     0.249 C 
HETATM    4  H           1     -19.212  -8.179  -5.733  0.00  0.00     0.163 HD
ENDROOT
BRANCH   2   5
HETATM    5  C           1     -21.024  -8.137  -4.588  0.00  0.00     0.186 C 
BRANCH   5   6
HETATM    6  C           1     -20.610  -7.584  -3.230  0.00  0.00     0.045 C 
BRANCH   6   7
HETATM    7  C           1     -21.520  -8.155  -2.151  0.00  0.00     0.105 C 
BRANCH   7   8
HETATM    8  C           1     -22.200  -7.025  -1.416  0.00  0.00     0.215 C 
HETATM    9  O           1     -22.657  -7.210  -0.313  0.00  0.00    -0.274 OA
HETATM   10  N           1     -22.298  -5.791  -2.000  0.00  0.00    -0.370 N 
HETATM   11  H           1     -21.915  -5.636  -2.924  0.00  0.00     0.159 HD
HETATM   12  H           1     -22.754  -5.033  -1.507  0.00  0.00     0.159 HD
ENDBRANCH   7   8
ENDBRANCH   6   7
ENDBRANCH   5   6
BRANCH   5  13
HETATM   13  C           1     -21.541  -7.015  -5.454  0.00  0.00     0.196 C 
HETATM   14  O           1     -22.400  -6.226  -5.007  0.00  0.00    -0.646 OA
HETATM   15  O           1     -21.109  -6.875  -6.619  0.00  0.00    -0.646 OA
ENDBRANCH   5  13
ENDBRANCH   2   5
BRANCH   3  16
HETATM   16  C           1     -18.500 -10.745  -5.818  0.00  0.00     0.274 C 
BRANCH  16  17
HETATM   17  C           1     -17.444  -9.684  -6.095  0.00  0.00     0.042 C 
BRANCH  17  18
HETATM   18  C           1     -16.131 -10.091  -5.438  0.00  0.00     0.003 C 
BRANCH  18  19
HETATM   19 Se           1     -16.237  -9.767  -3.518  0.00  0.00     0.000 Se
HETATM   20  C           1     -15.527 -11.513  -3.020  0.00  0.00     0.000 C 
ENDBRANCH  18  19
ENDBRANCH  17  18
ENDBRANCH  16  17
BRANCH  16  21
HETATM   21  N           1     -18.927 -11.375  -7.111  0.00  0.00    -0.067 N 
HETATM   22  H           1     -19.221 -12.363  -6.937  0.00  0.00     0.275 HD
HETATM   23  H           1     -19.729 -10.838  -7.510  0.00  0.00     0.275 HD
HETATM   24  H           1     -18.127 -11.362  -7.784  0.00  0.00     0.275 HD
ENDBRANCH  16  21
ENDBRANCH   3  16
TORSDOF 10
ENDMDL
