MODEL 1
REMARK VINA RESULT:      -6.2      0.000      0.000
REMARK  8 active torsions:
REMARK  status: ('A' for Active; 'I' for Inactive)
REMARK    1  A    between atoms: C_4  and  S_11 
REMARK    2  A    between atoms: C_4  and  C_5 
REMARK    3  A    between atoms: C_5  and  C_13 
REMARK    4  A    between atoms: C_5  and  N_23 
REMARK    5  A    between atoms: N_8  and  C_22 
REMARK    6  A    between atoms: C_12  and  C_14 
REMARK    7  A    between atoms: C_14  and  C_22 
REMARK    8  A    between atoms: C_22  and  C_24 
REMARK       I    between atoms: N_23  and  C_24 
ROOT
HETATM    1  C           1     -34.110  -3.964 -12.614  0.00  0.00     0.280 C 
ENDROOT
BRANCH   1   2
HETATM    2  N           1     -33.677  -4.051 -14.048  0.00  0.00    -0.066 N 
HETATM    3  H           1     -34.099  -4.899 -14.488  0.00  0.00     0.275 HD
HETATM    4  H           1     -33.996  -3.198 -14.560  0.00  0.00     0.275 HD
HETATM    5  H           1     -32.634  -4.116 -14.093  0.00  0.00     0.275 HD
ENDBRANCH   1   2
BRANCH   1   6
HETATM    6  C           1     -33.068  -4.634 -11.729  0.00  0.00     0.101 C 
BRANCH   6   7
HETATM    7  C           1     -33.699  -5.774 -10.992  0.00  0.00     0.028 A 
HETATM    8  N           1     -33.191  -7.047 -10.942  0.00  0.00    -0.355 N 
HETATM    9  C           1     -34.035  -7.728 -10.202  0.00  0.00     0.180 A 
ATOM     10  HN          1     -32.339  -7.391 -11.385  1.00  0.00     0.166 HD
HETATM   11  N           1     -35.068  -6.945  -9.772  0.00  0.00    -0.360 N 
HETATM   12  C           1     -34.865  -5.688 -10.269  0.00  0.00     0.114 A 
HETATM   13  H           1     -35.870  -7.253  -9.167  0.00  0.00     0.166 HD
ENDBRANCH   6   7
ENDBRANCH   1   6
BRANCH   1  14
HETATM   14  C           1     -34.250  -2.514 -12.219  0.00  0.00     0.249 C 
HETATM   15  O           1     -33.771  -2.121 -11.183  0.00  0.00    -0.271 OA
HETATM   16  N           1     -34.921  -1.643 -13.037  0.00  0.00    -0.344 N 
HETATM   17  H           1     -35.323  -1.973 -13.905  0.00  0.00     0.163 HD
BRANCH  16  18
HETATM   18  C           1     -35.055  -0.250 -12.657  0.00  0.00     0.194 C 
BRANCH  18  19
HETATM   19  C           1     -35.146   0.612 -13.909  0.00  0.00     0.106 C 
BRANCH  19  20
HETATM   20  S           1     -35.644  -0.417 -15.318  0.00  0.00    -0.180 SA
HETATM   21  H           1     -34.915  -1.493 -14.971  0.00  0.00     0.101 HD
ENDBRANCH  19  20
ENDBRANCH  18  19
BRANCH  18  22
HETATM   22  C           1     -36.308  -0.074 -11.834  0.00  0.00     0.197 C 
HETATM   23  O           1     -37.392  -0.551 -12.235  0.00  0.00    -0.646 OA
HETATM   24  O           1     -36.262   0.548 -10.750  0.00  0.00    -0.646 OA
ENDBRANCH  18  22
ENDBRANCH  16  18
ENDBRANCH   1  14
TORSDOF 8
ENDMDL
MODEL 2
REMARK VINA RESULT:      -6.0      2.148      2.654
REMARK  8 active torsions:
REMARK  status: ('A' for Active; 'I' for Inactive)
REMARK    1  A    between atoms: C_4  and  S_11 
REMARK    2  A    between atoms: C_4  and  C_5 
REMARK    3  A    between atoms: C_5  and  C_13 
REMARK    4  A    between atoms: C_5  and  N_23 
REMARK    5  A    between atoms: N_8  and  C_22 
REMARK    6  A    between atoms: C_12  and  C_14 
REMARK    7  A    between atoms: C_14  and  C_22 
REMARK    8  A    between atoms: C_22  and  C_24 
REMARK       I    between atoms: N_23  and  C_24 
ROOT
HETATM    1  C           1     -34.026  -2.823 -11.544  0.00  0.00     0.280 C 
ENDROOT
BRANCH   1   2
HETATM    2  N           1     -33.518  -1.724 -10.658  0.00  0.00    -0.066 N 
HETATM    3  H           1     -33.169  -0.935 -11.247  0.00  0.00     0.275 HD
HETATM    4  H           1     -34.294  -1.384 -10.046  0.00  0.00     0.275 HD
HETATM    5  H           1     -32.738  -2.088 -10.064  0.00  0.00     0.275 HD
ENDBRANCH   1   2
BRANCH   1   6
HETATM    6  C           1     -35.001  -3.694 -10.763  0.00  0.00     0.101 C 
BRANCH   6   7
HETATM    7  C           1     -34.495  -5.102 -10.728  0.00  0.00     0.028 A 
HETATM    8  N           1     -35.150  -6.151 -10.135  0.00  0.00    -0.355 N 
HETATM    9  C           1     -34.377  -7.195 -10.328  0.00  0.00     0.180 A 
ATOM     10  HN          1     -36.046  -6.126  -9.648  1.00  0.00     0.166 HD
HETATM   11  N           1     -33.250  -6.861 -11.022  0.00  0.00    -0.360 N 
HETATM   12  C           1     -33.312  -5.521 -11.287  0.00  0.00     0.114 A 
HETATM   13  H           1     -32.477  -7.515 -11.303  0.00  0.00     0.166 HD
ENDBRANCH   6   7
ENDBRANCH   1   6
BRANCH   1  14
HETATM   14  C           1     -34.730  -2.223 -12.736  0.00  0.00     0.249 C 
HETATM   15  O           1     -34.647  -2.754 -13.817  0.00  0.00    -0.271 OA
HETATM   16  N           1     -35.463  -1.074 -12.592  0.00  0.00    -0.344 N 
HETATM   17  H           1     -35.532  -0.629 -11.685  0.00  0.00     0.163 HD
BRANCH  16  18
HETATM   18  C           1     -36.139  -0.497 -13.737  0.00  0.00     0.194 C 
BRANCH  18  19
HETATM   19  C           1     -37.543  -0.063 -13.334  0.00  0.00     0.106 C 
BRANCH  19  20
HETATM   20  S           1     -37.717  -0.179 -11.531  0.00  0.00    -0.180 SA
HETATM   21  H           1     -38.850  -0.904 -11.546  0.00  0.00     0.101 HD
ENDBRANCH  19  20
ENDBRANCH  18  19
BRANCH  18  22
HETATM   22  C           1     -35.363   0.701 -14.225  0.00  0.00     0.197 C 
HETATM   23  O           1     -34.515   1.243 -13.483  0.00  0.00    -0.646 OA
HETATM   24  O           1     -35.567   1.152 -15.373  0.00  0.00    -0.646 OA
ENDBRANCH  18  22
ENDBRANCH  16  18
ENDBRANCH   1  14
TORSDOF 8
ENDMDL
MODEL 3
REMARK VINA RESULT:      -5.9      2.361      3.138
REMARK  8 active torsions:
REMARK  status: ('A' for Active; 'I' for Inactive)
REMARK    1  A    between atoms: C_4  and  S_11 
REMARK    2  A    between atoms: C_4  and  C_5 
REMARK    3  A    between atoms: C_5  and  C_13 
REMARK    4  A    between atoms: C_5  and  N_23 
REMARK    5  A    between atoms: N_8  and  C_22 
REMARK    6  A    between atoms: C_12  and  C_14 
REMARK    7  A    between atoms: C_14  and  C_22 
REMARK    8  A    between atoms: C_22  and  C_24 
REMARK       I    between atoms: N_23  and  C_24 
ROOT
HETATM    1  C           1     -34.511  -2.345 -11.912  0.00  0.00     0.280 C 
ENDROOT
BRANCH   1   2
HETATM    2  N           1     -33.845  -1.343 -11.014  0.00  0.00    -0.066 N 
HETATM    3  H           1     -34.570  -0.727 -10.582  0.00  0.00     0.275 HD
HETATM    4  H           1     -33.321  -1.845 -10.262  0.00  0.00     0.275 HD
HETATM    5  H           1     -33.182  -0.760 -11.574  0.00  0.00     0.275 HD
ENDBRANCH   1   2
BRANCH   1   6
HETATM    6  C           1     -35.305  -3.332 -11.068  0.00  0.00     0.101 C 
BRANCH   6   7
HETATM    7  C           1     -34.579  -4.640 -11.015  0.00  0.00     0.028 A 
HETATM    8  N           1     -35.060  -5.775 -10.412  0.00  0.00    -0.355 N 
HETATM    9  C           1     -34.128  -6.683 -10.591  0.00  0.00     0.180 A 
ATOM     10  HN          1     -35.951  -5.889  -9.929  1.00  0.00     0.166 HD
HETATM   11  N           1     -33.066  -6.179 -11.285  0.00  0.00    -0.360 N 
HETATM   12  C           1     -33.341  -4.870 -11.565  0.00  0.00     0.114 A 
HETATM   13  H           1     -32.196  -6.703 -11.556  0.00  0.00     0.166 HD
ENDBRANCH   6   7
ENDBRANCH   1   6
BRANCH   1  14
HETATM   14  C           1     -35.442  -1.629 -12.860  0.00  0.00     0.249 C 
HETATM   15  O           1     -36.588  -1.424 -12.540  0.00  0.00    -0.271 OA
HETATM   16  N           1     -34.986  -1.213 -14.083  0.00  0.00    -0.344 N 
HETATM   17  H           1     -34.026  -1.386 -14.350  0.00  0.00     0.163 HD
BRANCH  16  18
HETATM   18  C           1     -35.881  -0.526 -14.994  0.00  0.00     0.194 C 
BRANCH  18  19
HETATM   19  C           1     -35.539   0.958 -15.020  0.00  0.00     0.106 C 
BRANCH  19  20
HETATM   20  S           1     -34.490   1.362 -13.596  0.00  0.00    -0.180 SA
HETATM   21  H           1     -35.028   2.574 -13.365  0.00  0.00     0.101 HD
ENDBRANCH  19  20
ENDBRANCH  18  19
BRANCH  18  22
HETATM   22  C           1     -35.726  -1.103 -16.379  0.00  0.00     0.197 C 
HETATM   23  O           1     -36.570  -0.843 -17.264  0.00  0.00    -0.646 OA
HETATM   24  O           1     -34.752  -1.841 -16.643  0.00  0.00    -0.646 OA
ENDBRANCH  18  22
ENDBRANCH  16  18
ENDBRANCH   1  14
TORSDOF 8
ENDMDL
MODEL 4
REMARK VINA RESULT:      -5.8     12.685     14.036
REMARK  8 active torsions:
REMARK  status: ('A' for Active; 'I' for Inactive)
REMARK    1  A    between atoms: C_4  and  S_11 
REMARK    2  A    between atoms: C_4  and  C_5 
REMARK    3  A    between atoms: C_5  and  C_13 
REMARK    4  A    between atoms: C_5  and  N_23 
REMARK    5  A    between atoms: N_8  and  C_22 
REMARK    6  A    between atoms: C_12  and  C_14 
REMARK    7  A    between atoms: C_14  and  C_22 
REMARK    8  A    between atoms: C_22  and  C_24 
REMARK       I    between atoms: N_23  and  C_24 
ROOT
HETATM    1  C           1     -21.104  -5.644  -6.813  0.00  0.00     0.280 C 
ENDROOT
BRANCH   1   2
HETATM    2  N           1     -19.903  -6.199  -7.520  0.00  0.00    -0.066 N 
HETATM    3  H           1     -20.205  -6.664  -8.406  0.00  0.00     0.275 HD
HETATM    4  H           1     -19.240  -5.423  -7.742  0.00  0.00     0.275 HD
HETATM    5  H           1     -19.429  -6.898  -6.903  0.00  0.00     0.275 HD
ENDBRANCH   1   2
BRANCH   1   6
HETATM    6  C           1     -20.692  -5.134  -5.438  0.00  0.00     0.101 C 
BRANCH   6   7
HETATM    7  C           1     -21.094  -6.130  -4.395  0.00  0.00     0.028 A 
HETATM    8  N           1     -21.480  -5.810  -3.119  0.00  0.00    -0.355 N 
HETATM    9  C           1     -21.745  -6.958  -2.539  0.00  0.00     0.180 A 
ATOM     10  HN          1     -21.546  -4.879  -2.707  1.00  0.00     0.166 HD
HETATM   11  N           1     -21.546  -8.006  -3.391  0.00  0.00    -0.360 N 
HETATM   12  C           1     -21.129  -7.491  -4.587  0.00  0.00     0.114 A 
HETATM   13  H           1     -21.689  -9.023  -3.169  0.00  0.00     0.166 HD
ENDBRANCH   6   7
ENDBRANCH   1   6
BRANCH   1  14
HETATM   14  C           1     -21.680  -4.506  -7.620  0.00  0.00     0.249 C 
HETATM   15  O           1     -21.637  -3.378  -7.190  0.00  0.00    -0.271 OA
HETATM   16  N           1     -22.252  -4.753  -8.840  0.00  0.00    -0.344 N 
HETATM   17  H           1     -22.289  -5.698  -9.199  0.00  0.00     0.163 HD
BRANCH  16  18
HETATM   18  C           1     -22.806  -3.659  -9.615  0.00  0.00     0.194 C 
BRANCH  18  19
HETATM   19  C           1     -22.240  -3.701 -11.029  0.00  0.00     0.106 C 
BRANCH  19  20
HETATM   20  S           1     -20.463  -4.062 -10.959  0.00  0.00    -0.180 SA
HETATM   21  H           1     -20.454  -4.474  -9.678  0.00  0.00     0.101 HD
ENDBRANCH  19  20
ENDBRANCH  18  19
BRANCH  18  22
HETATM   22  C           1     -24.308  -3.795  -9.671  0.00  0.00     0.197 C 
HETATM   23  O           1     -25.033  -2.790  -9.506  0.00  0.00    -0.646 OA
HETATM   24  O           1     -24.827  -4.912  -9.882  0.00  0.00    -0.646 OA
ENDBRANCH  18  22
ENDBRANCH  16  18
ENDBRANCH   1  14
TORSDOF 8
ENDMDL
MODEL 5
REMARK VINA RESULT:      -5.8      1.936      2.144
REMARK  8 active torsions:
REMARK  status: ('A' for Active; 'I' for Inactive)
REMARK    1  A    between atoms: C_4  and  S_11 
REMARK    2  A    between atoms: C_4  and  C_5 
REMARK    3  A    between atoms: C_5  and  C_13 
REMARK    4  A    between atoms: C_5  and  N_23 
REMARK    5  A    between atoms: N_8  and  C_22 
REMARK    6  A    between atoms: C_12  and  C_14 
REMARK    7  A    between atoms: C_14  and  C_22 
REMARK    8  A    between atoms: C_22  and  C_24 
REMARK       I    between atoms: N_23  and  C_24 
ROOT
HETATM    1  C           1     -34.026  -4.573 -12.316  0.00  0.00     0.280 C 
ENDROOT
BRANCH   1   2
HETATM    2  N           1     -32.828  -4.314 -13.181  0.00  0.00    -0.066 N 
HETATM    3  H           1     -32.636  -5.155 -13.771  0.00  0.00     0.275 HD
HETATM    4  H           1     -33.015  -3.492 -13.797  0.00  0.00     0.275 HD
HETATM    5  H           1     -31.998  -4.116 -12.576  0.00  0.00     0.275 HD
ENDBRANCH   1   2
BRANCH   1   6
HETATM    6  C           1     -33.572  -4.826 -10.884  0.00  0.00     0.101 C 
BRANCH   6   7
HETATM    7  C           1     -34.013  -6.191 -10.455  0.00  0.00     0.028 A 
HETATM    8  N           1     -33.337  -7.352 -10.732  0.00  0.00    -0.355 N 
HETATM    9  C           1     -34.051  -8.308 -10.183  0.00  0.00     0.180 A 
ATOM     10  HN          1     -32.466  -7.452 -11.252  1.00  0.00     0.166 HD
HETATM   11  N           1     -35.161  -7.809  -9.563  0.00  0.00    -0.360 N 
HETATM   12  C           1     -35.150  -6.452  -9.728  0.00  0.00     0.114 A 
HETATM   13  H           1     -35.890  -8.367  -9.051  0.00  0.00     0.166 HD
ENDBRANCH   6   7
ENDBRANCH   1   6
BRANCH   1  14
HETATM   14  C           1     -34.939  -3.371 -12.350  0.00  0.00     0.249 C 
HETATM   15  O           1     -35.899  -3.321 -11.620  0.00  0.00    -0.271 OA
HETATM   16  N           1     -34.677  -2.337 -13.209  0.00  0.00    -0.344 N 
HETATM   17  H           1     -33.872  -2.379 -13.821  0.00  0.00     0.163 HD
BRANCH  16  18
HETATM   18  C           1     -35.554  -1.183 -13.242  0.00  0.00     0.194 C 
BRANCH  18  19
HETATM   19  C           1     -35.125  -0.187 -12.172  0.00  0.00     0.106 C 
BRANCH  19  20
HETATM   20  S           1     -36.515   0.136 -11.052  0.00  0.00    -0.180 SA
HETATM   21  H           1     -35.790   0.757 -10.103  0.00  0.00     0.101 HD
ENDBRANCH  19  20
ENDBRANCH  18  19
BRANCH  18  22
HETATM   22  C           1     -35.472  -0.529 -14.599  0.00  0.00     0.197 C 
HETATM   23  O           1     -36.290  -0.837 -15.493  0.00  0.00    -0.646 OA
HETATM   24  O           1     -34.585   0.322 -14.830  0.00  0.00    -0.646 OA
ENDBRANCH  18  22
ENDBRANCH  16  18
ENDBRANCH   1  14
TORSDOF 8
ENDMDL
MODEL 6
REMARK VINA RESULT:      -5.7     12.325     14.279
REMARK  8 active torsions:
REMARK  status: ('A' for Active; 'I' for Inactive)
REMARK    1  A    between atoms: C_4  and  S_11 
REMARK    2  A    between atoms: C_4  and  C_5 
REMARK    3  A    between atoms: C_5  and  C_13 
REMARK    4  A    between atoms: C_5  and  N_23 
REMARK    5  A    between atoms: N_8  and  C_22 
REMARK    6  A    between atoms: C_12  and  C_14 
REMARK    7  A    between atoms: C_14  and  C_22 
REMARK    8  A    between atoms: C_22  and  C_24 
REMARK       I    between atoms: N_23  and  C_24 
ROOT
HETATM    1  C           1     -23.645  -4.186  -9.126  0.00  0.00     0.280 C 
ENDROOT
BRANCH   1   2
HETATM    2  N           1     -24.728  -3.158  -8.972  0.00  0.00    -0.066 N 
HETATM    3  H           1     -25.138  -3.226  -8.013  0.00  0.00     0.275 HD
HETATM    4  H           1     -24.324  -2.205  -9.111  0.00  0.00     0.275 HD
HETATM    5  H           1     -25.474  -3.330  -9.684  0.00  0.00     0.275 HD
ENDBRANCH   1   2
BRANCH   1   6
HETATM    6  C           1     -22.524  -3.615  -9.985  0.00  0.00     0.101 C 
BRANCH   6   7
HETATM    7  C           1     -22.996  -3.485 -11.399  0.00  0.00     0.028 A 
HETATM    8  N           1     -22.953  -2.327 -12.133  0.00  0.00    -0.355 N 
HETATM    9  C           1     -23.454  -2.640 -13.305  0.00  0.00     0.180 A 
ATOM     10  HN          1     -22.605  -1.416 -11.832  1.00  0.00     0.166 HD
HETATM   11  N           1     -23.819  -3.955 -13.358  0.00  0.00    -0.360 N 
HETATM   12  C           1     -23.530  -4.511 -12.142  0.00  0.00     0.114 A 
HETATM   13  H           1     -24.243  -4.449 -14.183  0.00  0.00     0.166 HD
ENDBRANCH   6   7
ENDBRANCH   1   6
BRANCH   1  14
HETATM   14  C           1     -23.102  -4.551  -7.766  0.00  0.00     0.249 C 
HETATM   15  O           1     -23.777  -4.379  -6.780  0.00  0.00    -0.271 OA
HETATM   16  N           1     -21.842  -5.077  -7.651  0.00  0.00    -0.344 N 
HETATM   17  H           1     -21.277  -5.221  -8.478  0.00  0.00     0.163 HD
BRANCH  16  18
HETATM   18  C           1     -21.320  -5.428  -6.344  0.00  0.00     0.194 C 
BRANCH  18  19
HETATM   19  C           1     -21.141  -6.938  -6.257  0.00  0.00     0.106 C 
BRANCH  19  20
HETATM   20  S           1     -21.637  -7.512  -4.609  0.00  0.00    -0.180 SA
HETATM   21  H           1     -22.256  -6.374  -4.244  0.00  0.00     0.101 HD
ENDBRANCH  19  20
ENDBRANCH  18  19
BRANCH  18  22
HETATM   22  C           1     -19.988  -4.751  -6.139  0.00  0.00     0.197 C 
HETATM   23  O           1     -19.659  -4.347  -5.002  0.00  0.00    -0.646 OA
HETATM   24  O           1     -19.211  -4.593  -7.106  0.00  0.00    -0.646 OA
ENDBRANCH  18  22
ENDBRANCH  16  18
ENDBRANCH   1  14
TORSDOF 8
ENDMDL
MODEL 7
REMARK VINA RESULT:      -5.6     13.415     15.435
REMARK  8 active torsions:
REMARK  status: ('A' for Active; 'I' for Inactive)
REMARK    1  A    between atoms: C_4  and  S_11 
REMARK    2  A    between atoms: C_4  and  C_5 
REMARK    3  A    between atoms: C_5  and  C_13 
REMARK    4  A    between atoms: C_5  and  N_23 
REMARK    5  A    between atoms: N_8  and  C_22 
REMARK    6  A    between atoms: C_12  and  C_14 
REMARK    7  A    between atoms: C_14  and  C_22 
REMARK    8  A    between atoms: C_22  and  C_24 
REMARK       I    between atoms: N_23  and  C_24 
ROOT
HETATM    1  C           1     -21.369  -4.690  -6.801  0.00  0.00     0.280 C 
ENDROOT
BRANCH   1   2
HETATM    2  N           1     -19.909  -4.546  -6.487  0.00  0.00    -0.066 N 
HETATM    3  H           1     -19.696  -3.546  -6.269  0.00  0.00     0.275 HD
HETATM    4  H           1     -19.670  -5.140  -5.661  0.00  0.00     0.275 HD
HETATM    5  H           1     -19.343  -4.851  -7.312  0.00  0.00     0.275 HD
ENDBRANCH   1   2
BRANCH   1   6
HETATM    6  C           1     -21.532  -5.238  -8.212  0.00  0.00     0.101 C 
BRANCH   6   7
HETATM    7  C           1     -22.582  -4.452  -8.934  0.00  0.00     0.028 A 
HETATM    8  N           1     -23.767  -4.040  -8.380  0.00  0.00    -0.355 N 
HETATM    9  C           1     -24.390  -3.390  -9.336  0.00  0.00     0.180 A 
ATOM     10  HN          1     -24.094  -4.203  -7.428  1.00  0.00     0.166 HD
HETATM   11  N           1     -23.653  -3.366 -10.485  0.00  0.00    -0.360 N 
HETATM   12  C           1     -22.490  -4.043 -10.243  0.00  0.00     0.114 A 
HETATM   13  H           1     -23.929  -2.910 -11.391  0.00  0.00     0.166 HD
ENDBRANCH   6   7
ENDBRANCH   1   6
BRANCH   1  14
HETATM   14  C           1     -22.002  -5.641  -5.815  0.00  0.00     0.249 C 
HETATM   15  O           1     -23.204  -5.685  -5.705  0.00  0.00    -0.271 OA
HETATM   16  N           1     -21.214  -6.456  -5.046  0.00  0.00    -0.344 N 
HETATM   17  H           1     -20.207  -6.418  -5.138  0.00  0.00     0.163 HD
BRANCH  16  18
HETATM   18  C           1     -21.824  -7.369  -4.098  0.00  0.00     0.194 C 
BRANCH  18  19
HETATM   19  C           1     -21.155  -8.734  -4.206  0.00  0.00     0.106 C 
BRANCH  19  20
HETATM   20  S           1     -19.562  -8.561  -5.057  0.00  0.00    -0.180 SA
HETATM   21  H           1     -19.823  -9.456  -6.027  0.00  0.00     0.101 HD
ENDBRANCH  19  20
ENDBRANCH  18  19
BRANCH  18  22
HETATM   22  C           1     -21.647  -6.832  -2.700  0.00  0.00     0.197 C 
HETATM   23  O           1     -20.788  -7.332  -1.941  0.00  0.00    -0.646 OA
HETATM   24  O           1     -22.359  -5.885  -2.299  0.00  0.00    -0.646 OA
ENDBRANCH  18  22
ENDBRANCH  16  18
ENDBRANCH   1  14
TORSDOF 8
ENDMDL
MODEL 8
REMARK VINA RESULT:      -5.5      4.465      5.697
REMARK  8 active torsions:
REMARK  status: ('A' for Active; 'I' for Inactive)
REMARK    1  A    between atoms: C_4  and  S_11 
REMARK    2  A    between atoms: C_4  and  C_5 
REMARK    3  A    between atoms: C_5  and  C_13 
REMARK    4  A    between atoms: C_5  and  N_23 
REMARK    5  A    between atoms: N_8  and  C_22 
REMARK    6  A    between atoms: C_12  and  C_14 
REMARK    7  A    between atoms: C_14  and  C_22 
REMARK    8  A    between atoms: C_22  and  C_24 
REMARK       I    between atoms: N_23  and  C_24 
ROOT
HETATM    1  C           1     -33.003  -4.506 -16.703  0.00  0.00     0.280 C 
ENDROOT
BRANCH   1   2
HETATM    2  N           1     -33.231  -3.219 -17.439  0.00  0.00    -0.066 N 
HETATM    3  H           1     -33.574  -2.492 -16.772  0.00  0.00     0.275 HD
HETATM    4  H           1     -32.333  -2.901 -17.869  0.00  0.00     0.275 HD
HETATM    5  H           1     -33.944  -3.368 -18.189  0.00  0.00     0.275 HD
ENDBRANCH   1   2
BRANCH   1   6
HETATM    6  C           1     -31.533  -4.618 -16.322  0.00  0.00     0.101 C 
BRANCH   6   7
HETATM    7  C           1     -30.960  -5.872 -16.906  0.00  0.00     0.028 A 
HETATM    8  N           1     -29.673  -6.304 -16.714  0.00  0.00    -0.355 N 
HETATM    9  C           1     -29.581  -7.427 -17.388  0.00  0.00     0.180 A 
ATOM     10  HN          1     -28.943  -5.851 -16.164  1.00  0.00     0.166 HD
HETATM   11  N           1     -30.758  -7.737 -18.007  0.00  0.00    -0.360 N 
HETATM   12  C           1     -31.653  -6.748 -17.706  0.00  0.00     0.114 A 
HETATM   13  H           1     -30.942  -8.582 -18.605  0.00  0.00     0.166 HD
ENDBRANCH   6   7
ENDBRANCH   1   6
BRANCH   1  14
HETATM   14  C           1     -33.850  -4.527 -15.454  0.00  0.00     0.249 C 
HETATM   15  O           1     -34.975  -4.963 -15.495  0.00  0.00    -0.271 OA
HETATM   16  N           1     -33.343  -4.050 -14.275  0.00  0.00    -0.344 N 
HETATM   17  H           1     -32.400  -3.683 -14.241  0.00  0.00     0.163 HD
BRANCH  16  18
HETATM   18  C           1     -34.157  -4.069 -13.075  0.00  0.00     0.194 C 
BRANCH  18  19
HETATM   19  C           1     -33.304  -4.499 -11.888  0.00  0.00     0.106 C 
BRANCH  19  20
HETATM   20  S           1     -34.136  -5.845 -11.001  0.00  0.00    -0.180 SA
HETATM   21  H           1     -33.113  -6.716 -11.075  0.00  0.00     0.101 HD
ENDBRANCH  19  20
ENDBRANCH  18  19
BRANCH  18  22
HETATM   22  C           1     -34.710  -2.688 -12.822  0.00  0.00     0.197 C 
HETATM   23  O           1     -34.896  -1.904 -13.778  0.00  0.00    -0.646 OA
HETATM   24  O           1     -34.984  -2.328 -11.657  0.00  0.00    -0.646 OA
ENDBRANCH  18  22
ENDBRANCH  16  18
ENDBRANCH   1  14
TORSDOF 8
ENDMDL
MODEL 9
REMARK VINA RESULT:      -5.4     12.460     13.814
REMARK  8 active torsions:
REMARK  status: ('A' for Active; 'I' for Inactive)
REMARK    1  A    between atoms: C_4  and  S_11 
REMARK    2  A    between atoms: C_4  and  C_5 
REMARK    3  A    between atoms: C_5  and  C_13 
REMARK    4  A    between atoms: C_5  and  N_23 
REMARK    5  A    between atoms: N_8  and  C_22 
REMARK    6  A    between atoms: C_12  and  C_14 
REMARK    7  A    between atoms: C_14  and  C_22 
REMARK    8  A    between atoms: C_22  and  C_24 
REMARK       I    between atoms: N_23  and  C_24 
ROOT
HETATM    1  C           1     -20.379  -4.964  -7.570  0.00  0.00     0.280 C 
ENDROOT
BRANCH   1   2
HETATM    2  N           1     -19.029  -4.359  -7.825  0.00  0.00    -0.066 N 
HETATM    3  H           1     -18.912  -4.189  -8.849  0.00  0.00     0.275 HD
HETATM    4  H           1     -18.952  -3.453  -7.310  0.00  0.00     0.275 HD
HETATM    5  H           1     -18.286  -5.015  -7.493  0.00  0.00     0.275 HD
ENDBRANCH   1   2
BRANCH   1   6
HETATM    6  C           1     -20.699  -4.880  -6.084  0.00  0.00     0.101 C 
BRANCH   6   7
HETATM    7  C           1     -20.930  -6.257  -5.544  0.00  0.00     0.028 A 
HETATM    8  N           1     -20.133  -7.341  -5.806  0.00  0.00    -0.355 N 
HETATM    9  C           1     -20.678  -8.339  -5.149  0.00  0.00     0.180 A 
ATOM     10  HN          1     -19.295  -7.367  -6.386  1.00  0.00     0.166 HD
HETATM   11  N           1     -21.796  -7.941  -4.473  0.00  0.00    -0.360 N 
HETATM   12  C           1     -21.971  -6.607  -4.716  0.00  0.00     0.114 A 
HETATM   13  H           1     -22.410  -8.549  -3.875  0.00  0.00     0.166 HD
ENDBRANCH   6   7
ENDBRANCH   1   6
BRANCH   1  14
HETATM   14  C           1     -21.424  -4.208  -8.354  0.00  0.00     0.249 C 
HETATM   15  O           1     -22.188  -3.467  -7.784  0.00  0.00    -0.271 OA
HETATM   16  N           1     -21.506  -4.364  -9.712  0.00  0.00    -0.344 N 
HETATM   17  H           1     -20.865  -4.986 -10.190  0.00  0.00     0.163 HD
BRANCH  16  18
HETATM   18  C           1     -22.510  -3.639 -10.466  0.00  0.00     0.194 C 
BRANCH  18  19
HETATM   19  C           1     -22.060  -3.504 -11.915  0.00  0.00     0.106 C 
BRANCH  19  20
HETATM   20  S           1     -23.351  -2.663 -12.874  0.00  0.00    -0.180 SA
HETATM   21  H           1     -22.529  -2.181 -13.823  0.00  0.00     0.101 HD
ENDBRANCH  19  20
ENDBRANCH  18  19
BRANCH  18  22
HETATM   22  C           1     -23.817  -4.392 -10.413  0.00  0.00     0.197 C 
HETATM   23  O           1     -23.861  -5.594 -10.755  0.00  0.00    -0.646 OA
HETATM   24  O           1     -24.856  -3.814 -10.027  0.00  0.00    -0.646 OA
ENDBRANCH  18  22
ENDBRANCH  16  18
ENDBRANCH   1  14
TORSDOF 8
ENDMDL
