MODEL 1
REMARK VINA RESULT:      -8.0      0.000      0.000
REMARK  8 active torsions:
REMARK  status: ('A' for Active; 'I' for Inactive)
REMARK    1  A    between atoms: C_7  and  C_10 
REMARK    2  A    between atoms: C_7  and  C_8 
REMARK    3  A    between atoms: C_7  and  N_19 
REMARK    4  A    between atoms: C_8  and  C_17 
REMARK       I    between atoms: C_10  and  N_11 
REMARK    5  A    between atoms: N_11  and  C_18 
REMARK    6  A    between atoms: C_13  and  C_21 
REMARK    7  A    between atoms: C_14  and  C_18 
REMARK    8  A    between atoms: C_18  and  C_21 
ROOT
HETATM    1  C           1     -21.927  -6.594  -5.631  0.00  0.00     0.190 C 
ENDROOT
BRANCH   1   2
HETATM    2  N           1     -22.326  -6.385  -4.253  0.00  0.00    -0.344 N 
HETATM    3  C           1     -21.410  -6.525  -3.246  0.00  0.00     0.249 C 
HETATM    4  O           1     -20.760  -5.572  -2.884  0.00  0.00    -0.271 OA
HETATM    5  H           1     -23.283  -6.137  -4.036  0.00  0.00     0.163 HD
BRANCH   3   6
HETATM    6  C           1     -21.210  -7.868  -2.588  0.00  0.00     0.278 C 
BRANCH   6   7
HETATM    7  C           1     -21.266  -7.707  -1.075  0.00  0.00     0.021 C 
HETATM    8  C           1     -22.614  -7.119  -0.677  0.00  0.00     0.012 C 
BRANCH   7   9
HETATM    9  C           1     -21.091  -9.067  -0.412  0.00  0.00     0.002 C 
HETATM   10  C           1     -21.119  -8.902   1.101  0.00  0.00     0.005 C 
ENDBRANCH   7   9
ENDBRANCH   6   7
BRANCH   6  11
HETATM   11  N           1     -19.874  -8.423  -2.982  0.00  0.00    -0.066 N 
HETATM   12  H           1     -19.140  -7.690  -2.852  0.00  0.00     0.275 HD
HETATM   13  H           1     -19.900  -8.717  -3.985  0.00  0.00     0.275 HD
HETATM   14  H           1     -19.649  -9.249  -2.384  0.00  0.00     0.275 HD
ENDBRANCH   6  11
ENDBRANCH   3   6
ENDBRANCH   1   2
BRANCH   1  15
HETATM   15  C           1     -20.970  -7.759  -5.706  0.00  0.00     0.197 C 
HETATM   16  O           1     -21.404  -8.929  -5.638  0.00  0.00    -0.646 OA
HETATM   17  O           1     -19.744  -7.553  -5.836  0.00  0.00    -0.646 OA
ENDBRANCH   1  15
BRANCH   1  18
HETATM   18  C           1     -21.243  -5.339  -6.156  0.00  0.00     0.077 C 
BRANCH  18  19
HETATM   19  C           1     -22.046  -4.765  -7.280  0.00  0.00    -0.028 A 
HETATM   20  C           1     -21.578  -4.504  -8.598  0.00  0.00    -0.002 A 
HETATM   21  C           1     -22.649  -3.973  -9.317  0.00  0.00     0.042 A 
HETATM   22  C           1     -20.341  -4.668  -9.248  0.00  0.00     0.014 A 
HETATM   23  N           1     -23.724  -3.918  -8.459  0.00  0.00    -0.365 N 
HETATM   24  C           1     -22.545  -3.597 -10.662  0.00  0.00     0.030 A 
HETATM   25  C           1     -23.371  -4.394  -7.225  0.00  0.00     0.096 A 
HETATM   26  H           1     -24.679  -3.562  -8.714  0.00  0.00     0.165 HD
HETATM   27  C           1     -21.306  -3.771 -11.286  0.00  0.00     0.002 A 
HETATM   28  C           1     -20.219  -4.298 -10.593  0.00  0.00     0.001 A 
ENDBRANCH  18  19
ENDBRANCH   1  18
TORSDOF 8
ENDMDL
MODEL 2
REMARK VINA RESULT:      -7.8      1.799      2.720
REMARK  8 active torsions:
REMARK  status: ('A' for Active; 'I' for Inactive)
REMARK    1  A    between atoms: C_7  and  C_10 
REMARK    2  A    between atoms: C_7  and  C_8 
REMARK    3  A    between atoms: C_7  and  N_19 
REMARK    4  A    between atoms: C_8  and  C_17 
REMARK       I    between atoms: C_10  and  N_11 
REMARK    5  A    between atoms: N_11  and  C_18 
REMARK    6  A    between atoms: C_13  and  C_21 
REMARK    7  A    between atoms: C_14  and  C_18 
REMARK    8  A    between atoms: C_18  and  C_21 
ROOT
HETATM    1  C           1     -21.414  -4.886  -7.534  0.00  0.00     0.190 C 
ENDROOT
BRANCH   1   2
HETATM    2  N           1     -21.791  -4.713  -6.145  0.00  0.00    -0.344 N 
HETATM    3  C           1     -21.184  -5.460  -5.172  0.00  0.00     0.249 C 
HETATM    4  O           1     -20.181  -5.052  -4.635  0.00  0.00    -0.271 OA
HETATM    5  H           1     -22.505  -4.040  -5.895  0.00  0.00     0.163 HD
BRANCH   3   6
HETATM    6  C           1     -21.765  -6.793  -4.771  0.00  0.00     0.278 C 
BRANCH   6   7
HETATM    7  C           1     -21.291  -7.153  -3.369  0.00  0.00     0.021 C 
HETATM    8  C           1     -22.118  -6.390  -2.342  0.00  0.00     0.012 C 
BRANCH   7   9
HETATM    9  C           1     -21.461  -8.650  -3.145  0.00  0.00     0.002 C 
HETATM   10  C           1     -21.555  -8.933  -1.652  0.00  0.00     0.005 C 
ENDBRANCH   7   9
ENDBRANCH   6   7
BRANCH   6  11
HETATM   11  N           1     -21.312  -7.847  -5.737  0.00  0.00    -0.066 N 
HETATM   12  H           1     -20.751  -8.567  -5.229  0.00  0.00     0.275 HD
HETATM   13  H           1     -20.723  -7.408  -6.481  0.00  0.00     0.275 HD
HETATM   14  H           1     -22.145  -8.300  -6.175  0.00  0.00     0.275 HD
ENDBRANCH   6  11
ENDBRANCH   3   6
ENDBRANCH   1   2
BRANCH   1  15
HETATM   15  C           1     -19.964  -5.299  -7.613  0.00  0.00     0.197 C 
HETATM   16  O           1     -19.660  -6.512  -7.615  0.00  0.00    -0.646 OA
HETATM   17  O           1     -19.069  -4.429  -7.677  0.00  0.00    -0.646 OA
ENDBRANCH   1  15
BRANCH   1  18
HETATM   18  C           1     -21.610  -3.573  -8.280  0.00  0.00     0.077 C 
BRANCH  18  19
HETATM   19  C           1     -22.827  -3.665  -9.144  0.00  0.00    -0.028 A 
HETATM   20  C           1     -22.888  -3.397 -10.540  0.00  0.00    -0.002 A 
HETATM   21  C           1     -24.207  -3.605 -10.942  0.00  0.00     0.042 A 
HETATM   22  C           1     -21.942  -2.994 -11.501  0.00  0.00     0.014 A 
HETATM   23  N           1     -24.915  -3.986  -9.824  0.00  0.00    -0.365 N 
HETATM   24  C           1     -24.632  -3.430 -12.264  0.00  0.00     0.030 A 
HETATM   25  C           1     -24.090  -4.026  -8.731  0.00  0.00     0.096 A 
HETATM   26  H           1     -25.941  -4.214  -9.811  0.00  0.00     0.165 HD
HETATM   27  C           1     -23.674  -3.030 -13.202  0.00  0.00     0.002 A 
HETATM   28  C           1     -22.349  -2.815 -12.829  0.00  0.00     0.001 A 
ENDBRANCH  18  19
ENDBRANCH   1  18
TORSDOF 8
ENDMDL
MODEL 3
REMARK VINA RESULT:      -7.8      2.236      3.201
REMARK  8 active torsions:
REMARK  status: ('A' for Active; 'I' for Inactive)
REMARK    1  A    between atoms: C_7  and  C_10 
REMARK    2  A    between atoms: C_7  and  C_8 
REMARK    3  A    between atoms: C_7  and  N_19 
REMARK    4  A    between atoms: C_8  and  C_17 
REMARK       I    between atoms: C_10  and  N_11 
REMARK    5  A    between atoms: N_11  and  C_18 
REMARK    6  A    between atoms: C_13  and  C_21 
REMARK    7  A    between atoms: C_14  and  C_18 
REMARK    8  A    between atoms: C_18  and  C_21 
ROOT
HETATM    1  C           1     -20.394  -9.321  -4.423  0.00  0.00     0.190 C 
ENDROOT
BRANCH   1   2
HETATM    2  N           1     -20.190  -9.431  -2.992  0.00  0.00    -0.344 N 
HETATM    3  C           1     -21.136 -10.036  -2.210  0.00  0.00     0.249 C 
HETATM    4  O           1     -21.080 -11.226  -2.004  0.00  0.00    -0.271 OA
HETATM    5  H           1     -19.347  -9.061  -2.571  0.00  0.00     0.163 HD
BRANCH   3   6
HETATM    6  C           1     -22.251  -9.218  -1.606  0.00  0.00     0.278 C 
BRANCH   6   7
HETATM    7  C           1     -21.660  -8.105  -0.751  0.00  0.00     0.021 C 
HETATM    8  C           1     -22.160  -6.758  -1.255  0.00  0.00     0.012 C 
BRANCH   7   9
HETATM    9  C           1     -22.089  -8.296   0.698  0.00  0.00     0.002 C 
HETATM   10  C           1     -20.890  -8.725   1.531  0.00  0.00     0.005 C 
ENDBRANCH   7   9
ENDBRANCH   6   7
BRANCH   6  11
HETATM   11  N           1     -23.113 -10.100  -0.753  0.00  0.00    -0.066 N 
HETATM   12  H           1     -24.115  -9.829  -0.872  0.00  0.00     0.275 HD
HETATM   13  H           1     -22.839  -9.991   0.249  0.00  0.00     0.275 HD
HETATM   14  H           1     -22.986 -11.096  -1.041  0.00  0.00     0.275 HD
ENDBRANCH   6  11
ENDBRANCH   3   6
ENDBRANCH   1   2
BRANCH   1  15
HETATM   15  C           1     -19.779 -10.515  -5.112  0.00  0.00     0.197 C 
HETATM   16  O           1     -20.248 -10.919  -6.198  0.00  0.00    -0.646 OA
HETATM   17  O           1     -18.801 -11.098  -4.598  0.00  0.00    -0.646 OA
ENDBRANCH   1  15
BRANCH   1  18
HETATM   18  C           1     -19.736  -8.045  -4.932  0.00  0.00     0.077 C 
BRANCH  18  19
HETATM   19  C           1     -20.792  -7.062  -5.329  0.00  0.00    -0.028 A 
HETATM   20  C           1     -20.653  -6.026  -6.293  0.00  0.00    -0.002 A 
HETATM   21  C           1     -21.873  -5.351  -6.350  0.00  0.00     0.042 A 
HETATM   22  C           1     -19.602  -5.596  -7.125  0.00  0.00     0.014 A 
HETATM   23  N           1     -22.716  -5.963  -5.450  0.00  0.00    -0.365 N 
HETATM   24  C           1     -22.096  -4.262  -7.202  0.00  0.00     0.030 A 
HETATM   25  C           1     -22.072  -6.999  -4.827  0.00  0.00     0.096 A 
HETATM   26  H           1     -23.709  -5.677  -5.266  0.00  0.00     0.165 HD
HETATM   27  C           1     -21.037  -3.854  -8.019  0.00  0.00     0.002 A 
HETATM   28  C           1     -19.808  -4.509  -7.983  0.00  0.00     0.001 A 
ENDBRANCH  18  19
ENDBRANCH   1  18
TORSDOF 8
ENDMDL
MODEL 4
REMARK VINA RESULT:      -7.7      1.803      7.919
REMARK  8 active torsions:
REMARK  status: ('A' for Active; 'I' for Inactive)
REMARK    1  A    between atoms: C_7  and  C_10 
REMARK    2  A    between atoms: C_7  and  C_8 
REMARK    3  A    between atoms: C_7  and  N_19 
REMARK    4  A    between atoms: C_8  and  C_17 
REMARK       I    between atoms: C_10  and  N_11 
REMARK    5  A    between atoms: N_11  and  C_18 
REMARK    6  A    between atoms: C_13  and  C_21 
REMARK    7  A    between atoms: C_14  and  C_18 
REMARK    8  A    between atoms: C_18  and  C_21 
ROOT
HETATM    1  C           1     -21.197  -7.220  -5.750  0.00  0.00     0.190 C 
ENDROOT
BRANCH   1   2
HETATM    2  N           1     -20.449  -6.484  -6.750  0.00  0.00    -0.344 N 
HETATM    3  C           1     -20.805  -5.201  -7.064  0.00  0.00     0.249 C 
HETATM    4  O           1     -20.321  -4.274  -6.459  0.00  0.00    -0.271 OA
HETATM    5  H           1     -19.663  -6.920  -7.217  0.00  0.00     0.163 HD
BRANCH   3   6
HETATM    6  C           1     -21.803  -4.943  -8.166  0.00  0.00     0.278 C 
BRANCH   6   7
HETATM    7  C           1     -21.165  -4.065  -9.235  0.00  0.00     0.021 C 
HETATM    8  C           1     -20.056  -4.842  -9.934  0.00  0.00     0.012 C 
BRANCH   7   9
HETATM    9  C           1     -22.221  -3.659 -10.255  0.00  0.00     0.002 C 
HETATM   10  C           1     -21.706  -3.944 -11.659  0.00  0.00     0.005 C 
ENDBRANCH   7   9
ENDBRANCH   6   7
BRANCH   6  11
HETATM   11  N           1     -23.004  -4.246  -7.599  0.00  0.00    -0.066 N 
HETATM   12  H           1     -23.660  -3.998  -8.374  0.00  0.00     0.275 HD
HETATM   13  H           1     -22.702  -3.376  -7.105  0.00  0.00     0.275 HD
HETATM   14  H           1     -23.488  -4.879  -6.924  0.00  0.00     0.275 HD
ENDBRANCH   6  11
ENDBRANCH   3   6
ENDBRANCH   1   2
BRANCH   1  15
HETATM   15  C           1     -21.981  -6.254  -4.897  0.00  0.00     0.197 C 
HETATM   16  O           1     -21.412  -5.630  -3.975  0.00  0.00    -0.646 OA
HETATM   17  O           1     -23.200  -6.077  -5.112  0.00  0.00    -0.646 OA
ENDBRANCH   1  15
BRANCH   1  18
HETATM   18  C           1     -20.231  -8.006  -4.872  0.00  0.00     0.077 C 
BRANCH  18  19
HETATM   19  C           1     -20.998  -8.980  -4.033  0.00  0.00    -0.028 A 
HETATM   20  C           1     -21.217  -8.888  -2.631  0.00  0.00    -0.002 A 
HETATM   21  C           1     -21.975  -9.999  -2.260  0.00  0.00     0.042 A 
HETATM   22  C           1     -20.840  -7.963  -1.639  0.00  0.00     0.014 A 
HETATM   23  N           1     -22.203 -10.732  -3.402  0.00  0.00    -0.365 N 
HETATM   24  C           1     -22.379 -10.233  -0.940  0.00  0.00     0.030 A 
HETATM   25  C           1     -21.617 -10.125  -4.481  0.00  0.00     0.096 A 
HETATM   26  H           1     -22.749 -11.629  -3.442  0.00  0.00     0.165 HD
HETATM   27  C           1     -21.993  -9.299   0.028  0.00  0.00     0.002 A 
HETATM   28  C           1     -21.236  -8.181  -0.314  0.00  0.00     0.001 A 
ENDBRANCH  18  19
ENDBRANCH   1  18
TORSDOF 8
ENDMDL
MODEL 5
REMARK VINA RESULT:      -7.5      4.256      7.512
REMARK  8 active torsions:
REMARK  status: ('A' for Active; 'I' for Inactive)
REMARK    1  A    between atoms: C_7  and  C_10 
REMARK    2  A    between atoms: C_7  and  C_8 
REMARK    3  A    between atoms: C_7  and  N_19 
REMARK    4  A    between atoms: C_8  and  C_17 
REMARK       I    between atoms: C_10  and  N_11 
REMARK    5  A    between atoms: N_11  and  C_18 
REMARK    6  A    between atoms: C_13  and  C_21 
REMARK    7  A    between atoms: C_14  and  C_18 
REMARK    8  A    between atoms: C_18  and  C_21 
ROOT
HETATM    1  C           1     -21.226  -7.665  -3.036  0.00  0.00     0.190 C 
ENDROOT
BRANCH   1   2
HETATM    2  N           1     -20.022  -7.636  -3.843  0.00  0.00    -0.344 N 
HETATM    3  C           1     -19.896  -8.478  -4.915  0.00  0.00     0.249 C 
HETATM    4  O           1     -20.273  -8.126  -6.008  0.00  0.00    -0.271 OA
HETATM    5  H           1     -19.275  -6.993  -3.614  0.00  0.00     0.163 HD
BRANCH   3   6
HETATM    6  C           1     -19.288  -9.846  -4.732  0.00  0.00     0.278 C 
BRANCH   6   7
HETATM    7  C           1     -18.335  -9.825  -3.544  0.00  0.00     0.021 C 
HETATM    8  C           1     -18.533 -11.085  -2.711  0.00  0.00     0.012 C 
BRANCH   7   9
HETATM    9  C           1     -16.898  -9.770  -4.046  0.00  0.00     0.002 C 
HETATM   10  C           1     -15.947  -9.712  -2.859  0.00  0.00     0.005 C 
ENDBRANCH   7   9
ENDBRANCH   6   7
BRANCH   6  11
HETATM   11  N           1     -18.533 -10.227  -5.971  0.00  0.00    -0.066 N 
HETATM   12  H           1     -17.553 -10.485  -5.715  0.00  0.00     0.275 HD
HETATM   13  H           1     -18.519  -9.419  -6.633  0.00  0.00     0.275 HD
HETATM   14  H           1     -19.000 -11.043  -6.427  0.00  0.00     0.275 HD
ENDBRANCH   6  11
ENDBRANCH   3   6
ENDBRANCH   1   2
BRANCH   1  15
HETATM   15  C           1     -21.988  -6.376  -3.224  0.00  0.00     0.197 C 
HETATM   16  O           1     -22.422  -6.065  -4.355  0.00  0.00    -0.646 OA
HETATM   17  O           1     -22.185  -5.619  -2.249  0.00  0.00    -0.646 OA
ENDBRANCH   1  15
BRANCH   1  18
HETATM   18  C           1     -20.849  -7.824  -1.569  0.00  0.00     0.077 C 
BRANCH  18  19
HETATM   19  C           1     -21.977  -8.473  -0.830  0.00  0.00    -0.028 A 
HETATM   20  C           1     -22.469  -9.791  -1.041  0.00  0.00    -0.002 A 
HETATM   21  C           1     -23.518  -9.987  -0.143  0.00  0.00     0.042 A 
HETATM   22  C           1     -22.120 -10.839  -1.914  0.00  0.00     0.014 A 
HETATM   23  N           1     -23.651  -8.824   0.582  0.00  0.00    -0.365 N 
HETATM   24  C           1     -24.241 -11.184  -0.073  0.00  0.00     0.030 A 
HETATM   25  C           1     -22.724  -7.902   0.175  0.00  0.00     0.096 A 
HETATM   26  H           1     -24.362  -8.666   1.340  0.00  0.00     0.165 HD
HETATM   27  C           1     -23.875 -12.210  -0.950  0.00  0.00     0.002 A 
HETATM   28  C           1     -22.831 -12.043  -1.858  0.00  0.00     0.001 A 
ENDBRANCH  18  19
ENDBRANCH   1  18
TORSDOF 8
ENDMDL
MODEL 6
REMARK VINA RESULT:      -7.3      2.486      4.044
REMARK  8 active torsions:
REMARK  status: ('A' for Active; 'I' for Inactive)
REMARK    1  A    between atoms: C_7  and  C_10 
REMARK    2  A    between atoms: C_7  and  C_8 
REMARK    3  A    between atoms: C_7  and  N_19 
REMARK    4  A    between atoms: C_8  and  C_17 
REMARK       I    between atoms: C_10  and  N_11 
REMARK    5  A    between atoms: N_11  and  C_18 
REMARK    6  A    between atoms: C_13  and  C_21 
REMARK    7  A    between atoms: C_14  and  C_18 
REMARK    8  A    between atoms: C_18  and  C_21 
ROOT
HETATM    1  C           1     -21.331  -7.262  -3.913  0.00  0.00     0.190 C 
ENDROOT
BRANCH   1   2
HETATM    2  N           1     -21.726  -8.653  -4.028  0.00  0.00    -0.344 N 
HETATM    3  C           1     -20.862  -9.643  -3.646  0.00  0.00     0.249 C 
HETATM    4  O           1     -20.874 -10.049  -2.508  0.00  0.00    -0.271 OA
HETATM    5  H           1     -22.640  -8.890  -4.392  0.00  0.00     0.163 HD
BRANCH   3   6
HETATM    6  C           1     -19.894 -10.227  -4.645  0.00  0.00     0.278 C 
BRANCH   6   7
HETATM    7  C           1     -18.618  -9.395  -4.663  0.00  0.00     0.021 C 
HETATM    8  C           1     -17.719  -9.819  -3.509  0.00  0.00     0.012 C 
BRANCH   7   9
HETATM    9  C           1     -17.888  -9.614  -5.982  0.00  0.00     0.002 C 
HETATM   10  C           1     -16.432  -9.961  -5.705  0.00  0.00     0.005 C 
ENDBRANCH   7   9
ENDBRANCH   6   7
BRANCH   6  11
HETATM   11  N           1     -20.517 -10.217  -6.009  0.00  0.00    -0.066 N 
HETATM   12  H           1     -20.505 -11.184  -6.404  0.00  0.00     0.275 HD
HETATM   13  H           1     -19.976  -9.579  -6.635  0.00  0.00     0.275 HD
HETATM   14  H           1     -21.503  -9.882  -5.939  0.00  0.00     0.275 HD
ENDBRANCH   6  11
ENDBRANCH   3   6
ENDBRANCH   1   2
BRANCH   1  15
HETATM   15  C           1     -21.603  -6.777  -2.510  0.00  0.00     0.197 C 
HETATM   16  O           1     -22.541  -5.978  -2.296  0.00  0.00    -0.646 OA
HETATM   17  O           1     -20.891  -7.174  -1.563  0.00  0.00    -0.646 OA
ENDBRANCH   1  15
BRANCH   1  18
HETATM   18  C           1     -22.129  -6.425  -4.904  0.00  0.00     0.077 C 
BRANCH  18  19
HETATM   19  C           1     -21.271  -6.094  -6.084  0.00  0.00    -0.028 A 
HETATM   20  C           1     -21.640  -5.273  -7.186  0.00  0.00    -0.002 A 
HETATM   21  C           1     -20.547  -5.233  -8.052  0.00  0.00     0.042 A 
HETATM   22  C           1     -22.804  -4.560  -7.529  0.00  0.00     0.014 A 
HETATM   23  N           1     -19.555  -6.003  -7.488  0.00  0.00    -0.365 N 
HETATM   24  C           1     -20.559  -4.510  -9.251  0.00  0.00     0.030 A 
HETATM   25  C           1     -19.983  -6.529  -6.298  0.00  0.00     0.096 A 
HETATM   26  H           1     -18.607  -6.166  -7.910  0.00  0.00     0.165 HD
HETATM   27  C           1     -21.726  -3.808  -9.570  0.00  0.00     0.002 A 
HETATM   28  C           1     -22.833  -3.831  -8.724  0.00  0.00     0.001 A 
ENDBRANCH  18  19
ENDBRANCH   1  18
TORSDOF 8
ENDMDL
MODEL 7
REMARK VINA RESULT:      -7.2      5.055      8.014
REMARK  8 active torsions:
REMARK  status: ('A' for Active; 'I' for Inactive)
REMARK    1  A    between atoms: C_7  and  C_10 
REMARK    2  A    between atoms: C_7  and  C_8 
REMARK    3  A    between atoms: C_7  and  N_19 
REMARK    4  A    between atoms: C_8  and  C_17 
REMARK       I    between atoms: C_10  and  N_11 
REMARK    5  A    between atoms: N_11  and  C_18 
REMARK    6  A    between atoms: C_13  and  C_21 
REMARK    7  A    between atoms: C_14  and  C_18 
REMARK    8  A    between atoms: C_18  and  C_21 
ROOT
HETATM    1  C           1     -19.354 -10.171  -4.849  0.00  0.00     0.190 C 
ENDROOT
BRANCH   1   2
HETATM    2  N           1     -18.438 -10.138  -5.973  0.00  0.00    -0.344 N 
HETATM    3  C           1     -18.162 -11.286  -6.665  0.00  0.00     0.249 C 
HETATM    4  O           1     -18.840 -11.596  -7.616  0.00  0.00    -0.271 OA
HETATM    5  H           1     -18.003  -9.266  -6.246  0.00  0.00     0.163 HD
BRANCH   3   6
HETATM    6  C           1     -17.012 -12.165  -6.240  0.00  0.00     0.278 C 
BRANCH   6   7
HETATM    7  C           1     -15.735 -11.337  -6.177  0.00  0.00     0.021 C 
HETATM    8  C           1     -15.330 -11.139  -4.722  0.00  0.00     0.012 C 
BRANCH   7   9
HETATM    9  C           1     -14.622 -12.065  -6.919  0.00  0.00     0.002 C 
HETATM   10  C           1     -13.515 -12.432  -5.940  0.00  0.00     0.005 C 
ENDBRANCH   7   9
ENDBRANCH   6   7
BRANCH   6  11
HETATM   11  N           1     -16.839 -13.276  -7.232  0.00  0.00    -0.066 N 
HETATM   12  H           1     -17.767 -13.714  -7.431  0.00  0.00     0.275 HD
HETATM   13  H           1     -16.192 -13.996  -6.840  0.00  0.00     0.275 HD
HETATM   14  H           1     -16.439 -12.894  -8.118  0.00  0.00     0.275 HD
ENDBRANCH   6  11
ENDBRANCH   3   6
ENDBRANCH   1   2
BRANCH   1  15
HETATM   15  C           1     -20.765  -9.967  -5.344  0.00  0.00     0.197 C 
HETATM   16  O           1     -21.599 -10.893  -5.252  0.00  0.00    -0.646 OA
HETATM   17  O           1     -21.099  -8.872  -5.846  0.00  0.00    -0.646 OA
ENDBRANCH   1  15
BRANCH   1  18
HETATM   18  C           1     -18.993  -9.063  -3.869  0.00  0.00     0.077 C 
BRANCH  18  19
HETATM   19  C           1     -19.723  -9.277  -2.581  0.00  0.00    -0.028 A 
HETATM   20  C           1     -20.676  -8.395  -1.999  0.00  0.00    -0.002 A 
HETATM   21  C           1     -21.104  -8.981  -0.808  0.00  0.00     0.042 A 
HETATM   22  C           1     -21.215  -7.151  -2.375  0.00  0.00     0.014 A 
HETATM   23  N           1     -20.430 -10.175  -0.679  0.00  0.00    -0.365 N 
HETATM   24  C           1     -22.051  -8.382   0.032  0.00  0.00     0.030 A 
HETATM   25  C           1     -19.593 -10.364  -1.745  0.00  0.00     0.096 A 
HETATM   26  H           1     -20.543 -10.845   0.123  0.00  0.00     0.165 HD
HETATM   27  C           1     -22.573  -7.145  -0.363  0.00  0.00     0.002 A 
HETATM   28  C           1     -22.163  -6.537  -1.547  0.00  0.00     0.001 A 
ENDBRANCH  18  19
ENDBRANCH   1  18
TORSDOF 8
ENDMDL
MODEL 8
REMARK VINA RESULT:      -7.1      2.589      4.277
REMARK  8 active torsions:
REMARK  status: ('A' for Active; 'I' for Inactive)
REMARK    1  A    between atoms: C_7  and  C_10 
REMARK    2  A    between atoms: C_7  and  C_8 
REMARK    3  A    between atoms: C_7  and  N_19 
REMARK    4  A    between atoms: C_8  and  C_17 
REMARK       I    between atoms: C_10  and  N_11 
REMARK    5  A    between atoms: N_11  and  C_18 
REMARK    6  A    between atoms: C_13  and  C_21 
REMARK    7  A    between atoms: C_14  and  C_18 
REMARK    8  A    between atoms: C_18  and  C_21 
ROOT
HETATM    1  C           1     -21.064  -7.724  -2.510  0.00  0.00     0.190 C 
ENDROOT
BRANCH   1   2
HETATM    2  N           1     -20.788  -8.913  -1.727  0.00  0.00    -0.344 N 
HETATM    3  C           1     -21.140 -10.145  -2.206  0.00  0.00     0.249 C 
HETATM    4  O           1     -20.362 -10.777  -2.880  0.00  0.00    -0.271 OA
HETATM    5  H           1     -20.334  -8.831  -0.826  0.00  0.00     0.163 HD
BRANCH   3   6
HETATM    6  C           1     -22.502 -10.715  -1.893  0.00  0.00     0.278 C 
BRANCH   6   7
HETATM    7  C           1     -22.701 -10.757  -0.384  0.00  0.00     0.021 C 
HETATM    8  C           1     -24.169 -11.022  -0.072  0.00  0.00     0.012 C 
BRANCH   7   9
HETATM    9  C           1     -21.848 -11.871   0.210  0.00  0.00     0.002 C 
HETATM   10  C           1     -22.730 -12.807   1.025  0.00  0.00     0.005 C 
ENDBRANCH   7   9
ENDBRANCH   6   7
BRANCH   6  11
HETATM   11  N           1     -22.603 -12.104  -2.450  0.00  0.00    -0.066 N 
HETATM   12  H           1     -22.782 -12.055  -3.478  0.00  0.00     0.275 HD
HETATM   13  H           1     -23.389 -12.610  -1.983  0.00  0.00     0.275 HD
HETATM   14  H           1     -21.709 -12.615  -2.277  0.00  0.00     0.275 HD
ENDBRANCH   6  11
ENDBRANCH   3   6
ENDBRANCH   1   2
BRANCH   1  15
HETATM   15  C           1     -22.022  -6.836  -1.755  0.00  0.00     0.197 C 
HETATM   16  O           1     -22.450  -7.189  -0.634  0.00  0.00    -0.646 OA
HETATM   17  O           1     -22.387  -5.748  -2.249  0.00  0.00    -0.646 OA
ENDBRANCH   1  15
BRANCH   1  18
HETATM   18  C           1     -21.685  -8.127  -3.841  0.00  0.00     0.077 C 
BRANCH  18  19
HETATM   19  C           1     -20.818  -7.648  -4.963  0.00  0.00    -0.028 A 
HETATM   20  C           1     -21.091  -6.549  -5.823  0.00  0.00    -0.002 A 
HETATM   21  C           1     -20.027  -6.455  -6.721  0.00  0.00     0.042 A 
HETATM   22  C           1     -22.147  -5.623  -5.924  0.00  0.00     0.014 A 
HETATM   23  N           1     -19.145  -7.465  -6.408  0.00  0.00    -0.365 N 
HETATM   24  C           1     -19.964  -5.476  -7.720  0.00  0.00     0.030 A 
HETATM   25  C           1     -19.613  -8.192  -5.347  0.00  0.00     0.096 A 
HETATM   26  H           1     -18.242  -7.651  -6.912  0.00  0.00     0.165 HD
HETATM   27  C           1     -21.024  -4.567  -7.800  0.00  0.00     0.002 A 
HETATM   28  C           1     -22.100  -4.637  -6.917  0.00  0.00     0.001 A 
ENDBRANCH  18  19
ENDBRANCH   1  18
TORSDOF 8
ENDMDL
MODEL 9
REMARK VINA RESULT:      -7.1      3.828      6.219
REMARK  8 active torsions:
REMARK  status: ('A' for Active; 'I' for Inactive)
REMARK    1  A    between atoms: C_7  and  C_10 
REMARK    2  A    between atoms: C_7  and  C_8 
REMARK    3  A    between atoms: C_7  and  N_19 
REMARK    4  A    between atoms: C_8  and  C_17 
REMARK       I    between atoms: C_10  and  N_11 
REMARK    5  A    between atoms: N_11  and  C_18 
REMARK    6  A    between atoms: C_13  and  C_21 
REMARK    7  A    between atoms: C_14  and  C_18 
REMARK    8  A    between atoms: C_18  and  C_21 
ROOT
HETATM    1  C           1     -20.844  -7.873  -3.615  0.00  0.00     0.190 C 
ENDROOT
BRANCH   1   2
HETATM    2  N           1     -22.005  -8.013  -2.758  0.00  0.00    -0.344 N 
HETATM    3  C           1     -21.982  -7.509  -1.486  0.00  0.00     0.249 C 
HETATM    4  O           1     -22.344  -6.375  -1.279  0.00  0.00    -0.271 OA
HETATM    5  H           1     -22.833  -8.484  -3.102  0.00  0.00     0.163 HD
BRANCH   3   6
HETATM    6  C           1     -21.504  -8.369  -0.342  0.00  0.00     0.278 C 
BRANCH   6   7
HETATM    7  C           1     -22.015  -9.792  -0.529  0.00  0.00     0.021 C 
HETATM    8  C           1     -21.197 -10.742   0.337  0.00  0.00     0.012 C 
BRANCH   7   9
HETATM    9  C           1     -23.479  -9.864  -0.117  0.00  0.00     0.002 C 
HETATM   10  C           1     -23.932 -11.318  -0.103  0.00  0.00     0.005 C 
ENDBRANCH   7   9
ENDBRANCH   6   7
BRANCH   6  11
HETATM   11  N           1     -22.026  -7.817   0.950  0.00  0.00    -0.066 N 
HETATM   12  H           1     -21.580  -6.891   1.138  0.00  0.00     0.275 HD
HETATM   13  H           1     -21.799  -8.477   1.728  0.00  0.00     0.275 HD
HETATM   14  H           1     -23.061  -7.698   0.886  0.00  0.00     0.275 HD
ENDBRANCH   6  11
ENDBRANCH   3   6
ENDBRANCH   1   2
BRANCH   1  15
HETATM   15  C           1     -21.160  -6.914  -4.737  0.00  0.00     0.197 C 
HETATM   16  O           1     -21.073  -7.292  -5.925  0.00  0.00    -0.646 OA
HETATM   17  O           1     -21.508  -5.742  -4.478  0.00  0.00    -0.646 OA
ENDBRANCH   1  15
BRANCH   1  18
HETATM   18  C           1     -20.475  -9.231  -4.196  0.00  0.00     0.077 C 
BRANCH  18  19
HETATM   19  C           1     -19.140  -9.655  -3.669  0.00  0.00    -0.028 A 
HETATM   20  C           1     -17.955  -9.834  -4.434  0.00  0.00    -0.002 A 
HETATM   21  C           1     -16.951 -10.231  -3.550  0.00  0.00     0.042 A 
HETATM   22  C           1     -17.639  -9.696  -5.799  0.00  0.00     0.014 A 
HETATM   23  N           1     -17.517 -10.288  -2.296  0.00  0.00    -0.365 N 
HETATM   24  C           1     -15.641 -10.498  -3.963  0.00  0.00     0.030 A 
HETATM   25  C           1     -18.840  -9.942  -2.356  0.00  0.00     0.096 A 
HETATM   26  H           1     -17.007 -10.559  -1.418  0.00  0.00     0.165 HD
HETATM   27  C           1     -15.351 -10.354  -5.324  0.00  0.00     0.002 A 
HETATM   28  C           1     -16.334  -9.959  -6.230  0.00  0.00     0.001 A 
ENDBRANCH  18  19
ENDBRANCH   1  18
TORSDOF 8
ENDMDL
