MODEL 1
REMARK VINA RESULT:      -6.2      0.000      0.000
REMARK  8 active torsions:
REMARK  status: ('A' for Active; 'I' for Inactive)
REMARK    1  A    between atoms: N_2  and  C_18 
REMARK       I    between atoms: N_2  and  C_3 
REMARK    2  A    between atoms: C_3  and  C_4 
REMARK    3  A    between atoms: C_4  and  C_13 
REMARK    4  A    between atoms: C_4  and  N_14 
REMARK    5  A    between atoms: C_12  and  C_13 
REMARK    6  A    between atoms: C_17  and  C_18 
REMARK    7  A    between atoms: C_18  and  C_19 
REMARK    8  A    between atoms: C_19  and  O_20 
ROOT
HETATM    1  N           1     -23.037  -3.923  -9.418  0.00  0.00    -0.343 N 
HETATM    2  C           1     -21.930  -4.006  -8.617  0.00  0.00     0.249 C 
HETATM    3  H           1     -23.940  -4.207  -9.063  0.00  0.00     0.163 HD
HETATM    4  O           1     -20.851  -3.665  -9.040  0.00  0.00    -0.271 OA
ENDROOT
BRANCH   2   5
HETATM    5  C           1     -22.057  -4.523  -7.205  0.00  0.00     0.275 C 
BRANCH   5   6
HETATM    6  C           1     -21.464  -5.922  -7.120  0.00  0.00     0.046 C 
BRANCH   6   7
HETATM    7  C           1     -20.599  -6.034  -5.873  0.00  0.00    -0.020 C 
HETATM    8  C           1     -21.422  -6.624  -4.736  0.00  0.00     0.009 C 
HETATM    9  C           1     -20.102  -4.651  -5.473  0.00  0.00     0.009 C 
ENDBRANCH   6   7
ENDBRANCH   5   6
BRANCH   5  10
HETATM   10  N           1     -23.506  -4.570  -6.820  0.00  0.00    -0.066 N 
HETATM   11  H           1     -24.093  -4.653  -7.680  0.00  0.00     0.275 HD
HETATM   12  H           1     -23.674  -5.397  -6.202  0.00  0.00     0.275 HD
HETATM   13  H           1     -23.759  -3.695  -6.308  0.00  0.00     0.275 HD
ENDBRANCH   5  10
ENDBRANCH   2   5
BRANCH   1  14
HETATM   14  C           1     -22.914  -3.427 -10.775  0.00  0.00     0.209 C 
BRANCH  14  15
HETATM   15  C           1     -24.288  -3.164 -11.340  0.00  0.00     0.198 C 
HETATM   16  O           1     -25.290  -3.211 -10.595  0.00  0.00    -0.646 OA
HETATM   17  O           1     -24.425  -2.899 -12.554  0.00  0.00    -0.646 OA
ENDBRANCH  14  15
BRANCH  14  18
HETATM   18  C           1     -22.202  -4.466 -11.633  0.00  0.00     0.200 C 
BRANCH  18  19
HETATM   19  O           1     -21.644  -3.843 -12.757  0.00  0.00    -0.398 OA
HETATM   20  H           1     -21.377  -4.528 -13.345  0.00  0.00     0.209 HD
ENDBRANCH  18  19
ENDBRANCH  14  18
ENDBRANCH   1  14
TORSDOF 8
ENDMDL
MODEL 2
REMARK VINA RESULT:      -6.1      1.690      2.231
REMARK  8 active torsions:
REMARK  status: ('A' for Active; 'I' for Inactive)
REMARK    1  A    between atoms: N_2  and  C_18 
REMARK       I    between atoms: N_2  and  C_3 
REMARK    2  A    between atoms: C_3  and  C_4 
REMARK    3  A    between atoms: C_4  and  C_13 
REMARK    4  A    between atoms: C_4  and  N_14 
REMARK    5  A    between atoms: C_12  and  C_13 
REMARK    6  A    between atoms: C_17  and  C_18 
REMARK    7  A    between atoms: C_18  and  C_19 
REMARK    8  A    between atoms: C_19  and  O_20 
ROOT
HETATM    1  N           1     -22.343  -4.772  -8.642  0.00  0.00    -0.343 N 
HETATM    2  C           1     -21.606  -4.633  -7.496  0.00  0.00     0.249 C 
HETATM    3  H           1     -22.545  -5.694  -9.004  0.00  0.00     0.163 HD
HETATM    4  O           1     -21.365  -3.532  -7.062  0.00  0.00    -0.271 OA
ENDROOT
BRANCH   2   5
HETATM    5  C           1     -21.095  -5.856  -6.774  0.00  0.00     0.275 C 
BRANCH   5   6
HETATM    6  C           1     -20.886  -5.527  -5.302  0.00  0.00     0.046 C 
BRANCH   6   7
HETATM    7  C           1     -21.823  -6.374  -4.453  0.00  0.00    -0.020 C 
HETATM    8  C           1     -21.484  -6.183  -2.980  0.00  0.00     0.009 C 
HETATM    9  C           1     -21.659  -7.841  -4.824  0.00  0.00     0.009 C 
ENDBRANCH   6   7
ENDBRANCH   5   6
BRANCH   5  10
HETATM   10  N           1     -19.793  -6.286  -7.380  0.00  0.00    -0.066 N 
HETATM   11  H           1     -19.362  -7.032  -6.789  0.00  0.00     0.275 HD
HETATM   12  H           1     -19.963  -6.658  -8.341  0.00  0.00     0.275 HD
HETATM   13  H           1     -19.146  -5.466  -7.433  0.00  0.00     0.275 HD
ENDBRANCH   5  10
ENDBRANCH   2   5
BRANCH   1  14
HETATM   14  C           1     -22.833  -3.597  -9.335  0.00  0.00     0.209 C 
BRANCH  14  15
HETATM   15  C           1     -24.302  -3.766  -9.634  0.00  0.00     0.198 C 
HETATM   16  O           1     -25.078  -2.792  -9.529  0.00  0.00    -0.646 OA
HETATM   17  O           1     -24.744  -4.881  -9.987  0.00  0.00    -0.646 OA
ENDBRANCH  14  15
BRANCH  14  18
HETATM   18  C           1     -22.065  -3.420 -10.639  0.00  0.00     0.200 C 
BRANCH  18  19
HETATM   19  O           1     -22.924  -2.910 -11.623  0.00  0.00    -0.398 OA
HETATM   20  H           1     -22.980  -3.561 -12.301  0.00  0.00     0.209 HD
ENDBRANCH  18  19
ENDBRANCH  14  18
ENDBRANCH   1  14
TORSDOF 8
ENDMDL
MODEL 3
REMARK VINA RESULT:      -5.9      1.892      2.382
REMARK  8 active torsions:
REMARK  status: ('A' for Active; 'I' for Inactive)
REMARK    1  A    between atoms: N_2  and  C_18 
REMARK       I    between atoms: N_2  and  C_3 
REMARK    2  A    between atoms: C_3  and  C_4 
REMARK    3  A    between atoms: C_4  and  C_13 
REMARK    4  A    between atoms: C_4  and  N_14 
REMARK    5  A    between atoms: C_12  and  C_13 
REMARK    6  A    between atoms: C_17  and  C_18 
REMARK    7  A    between atoms: C_18  and  C_19 
REMARK    8  A    between atoms: C_19  and  O_20 
ROOT
HETATM    1  N           1     -22.378  -3.893 -10.626  0.00  0.00    -0.343 N 
HETATM    2  C           1     -21.820  -3.957  -9.377  0.00  0.00     0.249 C 
HETATM    3  H           1     -21.978  -4.427 -11.386  0.00  0.00     0.163 HD
HETATM    4  O           1     -22.299  -3.320  -8.469  0.00  0.00    -0.271 OA
ENDROOT
BRANCH   2   5
HETATM    5  C           1     -20.609  -4.824  -9.135  0.00  0.00     0.275 C 
BRANCH   5   6
HETATM    6  C           1     -19.797  -4.250  -7.981  0.00  0.00     0.046 C 
BRANCH   6   7
HETATM    7  C           1     -19.769  -5.248  -6.832  0.00  0.00    -0.020 C 
HETATM    8  C           1     -20.842  -6.306  -7.054  0.00  0.00     0.009 C 
HETATM    9  C           1     -20.037  -4.522  -5.521  0.00  0.00     0.009 C 
ENDBRANCH   6   7
ENDBRANCH   5   6
BRANCH   5  10
HETATM   10  N           1     -19.763  -4.857 -10.373  0.00  0.00    -0.066 N 
HETATM   11  H           1     -20.286  -4.416 -11.164  0.00  0.00     0.275 HD
HETATM   12  H           1     -18.878  -4.327 -10.203  0.00  0.00     0.275 HD
HETATM   13  H           1     -19.536  -5.848 -10.614  0.00  0.00     0.275 HD
ENDBRANCH   5  10
ENDBRANCH   2   5
BRANCH   1  14
HETATM   14  C           1     -23.542  -3.060 -10.858  0.00  0.00     0.209 C 
BRANCH  14  15
HETATM   15  C           1     -24.749  -3.693 -10.212  0.00  0.00     0.198 C 
HETATM   16  O           1     -24.810  -4.935 -10.081  0.00  0.00    -0.646 OA
HETATM   17  O           1     -25.691  -2.977  -9.808  0.00  0.00    -0.646 OA
ENDBRANCH  14  15
BRANCH  14  18
HETATM   18  C           1     -23.779  -2.927 -12.357  0.00  0.00     0.200 C 
BRANCH  18  19
HETATM   19  O           1     -25.139  -3.124 -12.636  0.00  0.00    -0.398 OA
HETATM   20  H           1     -25.200  -3.900 -13.165  0.00  0.00     0.209 HD
ENDBRANCH  18  19
ENDBRANCH  14  18
ENDBRANCH   1  14
TORSDOF 8
ENDMDL
MODEL 4
REMARK VINA RESULT:      -5.4      1.168      2.136
REMARK  8 active torsions:
REMARK  status: ('A' for Active; 'I' for Inactive)
REMARK    1  A    between atoms: N_2  and  C_18 
REMARK       I    between atoms: N_2  and  C_3 
REMARK    2  A    between atoms: C_3  and  C_4 
REMARK    3  A    between atoms: C_4  and  C_13 
REMARK    4  A    between atoms: C_4  and  N_14 
REMARK    5  A    between atoms: C_12  and  C_13 
REMARK    6  A    between atoms: C_17  and  C_18 
REMARK    7  A    between atoms: C_18  and  C_19 
REMARK    8  A    between atoms: C_19  and  O_20 
ROOT
HETATM    1  N           1     -22.661  -4.336  -9.526  0.00  0.00    -0.343 N 
HETATM    2  C           1     -21.802  -4.764  -8.550  0.00  0.00     0.249 C 
HETATM    3  H           1     -23.559  -3.946  -9.273  0.00  0.00     0.163 HD
HETATM    4  O           1     -20.728  -5.229  -8.852  0.00  0.00    -0.271 OA
ENDROOT
BRANCH   2   5
HETATM    5  C           1     -22.194  -4.654  -7.097  0.00  0.00     0.275 C 
BRANCH   5   6
HETATM    6  C           1     -21.904  -5.972  -6.392  0.00  0.00     0.046 C 
BRANCH   6   7
HETATM    7  C           1     -21.182  -5.699  -5.080  0.00  0.00    -0.020 C 
HETATM    8  C           1     -20.037  -4.726  -5.325  0.00  0.00     0.009 C 
HETATM    9  C           1     -20.627  -7.004  -4.524  0.00  0.00     0.009 C 
ENDBRANCH   6   7
ENDBRANCH   5   6
BRANCH   5  10
HETATM   10  N           1     -23.659  -4.346  -6.998  0.00  0.00    -0.066 N 
HETATM   11  H           1     -23.825  -3.351  -7.270  0.00  0.00     0.275 HD
HETATM   12  H           1     -24.190  -4.976  -7.640  0.00  0.00     0.275 HD
HETATM   13  H           1     -23.981  -4.497  -6.015  0.00  0.00     0.275 HD
ENDBRANCH   5  10
ENDBRANCH   2   5
BRANCH   1  14
HETATM   14  C           1     -22.283  -4.442 -10.922  0.00  0.00     0.209 C 
BRANCH  14  15
HETATM   15  C           1     -21.643  -3.150 -11.368  0.00  0.00     0.198 C 
HETATM   16  O           1     -20.414  -2.979 -11.222  0.00  0.00    -0.646 OA
HETATM   17  O           1     -22.341  -2.250 -11.883  0.00  0.00    -0.646 OA
ENDBRANCH  14  15
BRANCH  14  18
HETATM   18  C           1     -23.524  -4.711 -11.764  0.00  0.00     0.200 C 
BRANCH  18  19
HETATM   19  O           1     -24.583  -3.915 -11.305  0.00  0.00    -0.398 OA
HETATM   20  H           1     -25.194  -4.492 -10.881  0.00  0.00     0.209 HD
ENDBRANCH  18  19
ENDBRANCH  14  18
ENDBRANCH   1  14
TORSDOF 8
ENDMDL
MODEL 5
REMARK VINA RESULT:      -5.4      2.669      5.756
REMARK  8 active torsions:
REMARK  status: ('A' for Active; 'I' for Inactive)
REMARK    1  A    between atoms: N_2  and  C_18 
REMARK       I    between atoms: N_2  and  C_3 
REMARK    2  A    between atoms: C_3  and  C_4 
REMARK    3  A    between atoms: C_4  and  C_13 
REMARK    4  A    between atoms: C_4  and  N_14 
REMARK    5  A    between atoms: C_12  and  C_13 
REMARK    6  A    between atoms: C_17  and  C_18 
REMARK    7  A    between atoms: C_18  and  C_19 
REMARK    8  A    between atoms: C_19  and  O_20 
ROOT
HETATM    1  N           1     -21.755  -5.370  -7.859  0.00  0.00    -0.343 N 
HETATM    2  C           1     -22.928  -4.730  -8.155  0.00  0.00     0.249 C 
HETATM    3  H           1     -21.195  -5.768  -8.601  0.00  0.00     0.163 HD
HETATM    4  O           1     -23.597  -4.253  -7.268  0.00  0.00    -0.271 OA
ENDROOT
BRANCH   2   5
HETATM    5  C           1     -23.388  -4.620  -9.588  0.00  0.00     0.275 C 
BRANCH   5   6
HETATM    6  C           1     -22.676  -3.454 -10.261  0.00  0.00     0.046 C 
BRANCH   6   7
HETATM    7  C           1     -21.900  -3.960 -11.468  0.00  0.00    -0.020 C 
HETATM    8  C           1     -20.407  -3.796 -11.217  0.00  0.00     0.009 C 
HETATM    9  C           1     -22.296  -3.158 -12.701  0.00  0.00     0.009 C 
ENDBRANCH   6   7
ENDBRANCH   5   6
BRANCH   5  10
HETATM   10  N           1     -24.869  -4.387  -9.621  0.00  0.00    -0.066 N 
HETATM   11  H           1     -25.259  -4.749 -10.520  0.00  0.00     0.275 HD
HETATM   12  H           1     -25.317  -4.889  -8.820  0.00  0.00     0.275 HD
HETATM   13  H           1     -25.063  -3.363  -9.543  0.00  0.00     0.275 HD
ENDBRANCH   5  10
ENDBRANCH   2   5
BRANCH   1  14
HETATM   14  C           1     -21.314  -5.476  -6.481  0.00  0.00     0.209 C 
BRANCH  14  15
HETATM   15  C           1     -19.994  -4.763  -6.320  0.00  0.00     0.198 C 
HETATM   16  O           1     -19.277  -4.541  -7.319  0.00  0.00    -0.646 OA
HETATM   17  O           1     -19.615  -4.396  -5.187  0.00  0.00    -0.646 OA
ENDBRANCH  14  15
BRANCH  14  18
HETATM   18  C           1     -21.148  -6.945  -6.114  0.00  0.00     0.200 C 
BRANCH  18  19
HETATM   19  O           1     -19.794  -7.300  -6.204  0.00  0.00    -0.398 OA
HETATM   20  H           1     -19.655  -7.627  -7.075  0.00  0.00     0.209 HD
ENDBRANCH  18  19
ENDBRANCH  14  18
ENDBRANCH   1  14
TORSDOF 8
ENDMDL
MODEL 6
REMARK VINA RESULT:      -5.4      3.920      6.336
REMARK  8 active torsions:
REMARK  status: ('A' for Active; 'I' for Inactive)
REMARK    1  A    between atoms: N_2  and  C_18 
REMARK       I    between atoms: N_2  and  C_3 
REMARK    2  A    between atoms: C_3  and  C_4 
REMARK    3  A    between atoms: C_4  and  C_13 
REMARK    4  A    between atoms: C_4  and  N_14 
REMARK    5  A    between atoms: C_12  and  C_13 
REMARK    6  A    between atoms: C_17  and  C_18 
REMARK    7  A    between atoms: C_18  and  C_19 
REMARK    8  A    between atoms: C_19  and  O_20 
ROOT
HETATM    1  N           1     -21.550  -5.932  -4.422  0.00  0.00    -0.343 N 
HETATM    2  C           1     -21.433  -7.041  -3.627  0.00  0.00     0.249 C 
HETATM    3  H           1     -21.615  -5.014  -4.002  0.00  0.00     0.163 HD
HETATM    4  O           1     -21.354  -8.137  -4.128  0.00  0.00    -0.271 OA
ENDROOT
BRANCH   2   5
HETATM    5  C           1     -21.401  -6.894  -2.126  0.00  0.00     0.275 C 
BRANCH   5   6
HETATM    6  C           1     -21.821  -8.206  -1.478  0.00  0.00     0.046 C 
BRANCH   6   7
HETATM    7  C           1     -22.244  -7.950  -0.038  0.00  0.00    -0.020 C 
HETATM    8  C           1     -21.139  -8.408   0.904  0.00  0.00     0.009 C 
HETATM    9  C           1     -23.520  -8.724   0.263  0.00  0.00     0.009 C 
ENDBRANCH   6   7
ENDBRANCH   5   6
BRANCH   5  10
HETATM   10  N           1     -22.346  -5.806  -1.711  0.00  0.00    -0.066 N 
HETATM   11  H           1     -21.805  -4.944  -1.476  0.00  0.00     0.275 HD
HETATM   12  H           1     -23.004  -5.600  -2.497  0.00  0.00     0.275 HD
HETATM   13  H           1     -22.889  -6.116  -0.874  0.00  0.00     0.275 HD
ENDBRANCH   5  10
ENDBRANCH   2   5
BRANCH   1  14
HETATM   14  C           1     -21.581  -6.074  -5.865  0.00  0.00     0.209 C 
BRANCH  14  15
HETATM   15  C           1     -20.239  -5.687  -6.436  0.00  0.00     0.198 C 
HETATM   16  O           1     -19.767  -6.319  -7.405  0.00  0.00    -0.646 OA
HETATM   17  O           1     -19.599  -4.735  -5.940  0.00  0.00    -0.646 OA
ENDBRANCH  14  15
BRANCH  14  18
HETATM   18  C           1     -22.660  -5.166  -6.441  0.00  0.00     0.200 C 
BRANCH  18  19
HETATM   19  O           1     -22.084  -4.282  -7.364  0.00  0.00    -0.398 OA
HETATM   20  H           1     -21.224  -4.073  -7.043  0.00  0.00     0.209 HD
ENDBRANCH  18  19
ENDBRANCH  14  18
ENDBRANCH   1  14
TORSDOF 8
ENDMDL
MODEL 7
REMARK VINA RESULT:      -5.3     10.557     12.368
REMARK  8 active torsions:
REMARK  status: ('A' for Active; 'I' for Inactive)
REMARK    1  A    between atoms: N_2  and  C_18 
REMARK       I    between atoms: N_2  and  C_3 
REMARK    2  A    between atoms: C_3  and  C_4 
REMARK    3  A    between atoms: C_4  and  C_13 
REMARK    4  A    between atoms: C_4  and  N_14 
REMARK    5  A    between atoms: C_12  and  C_13 
REMARK    6  A    between atoms: C_17  and  C_18 
REMARK    7  A    between atoms: C_18  and  C_19 
REMARK    8  A    between atoms: C_19  and  O_20 
ROOT
HETATM    1  N           1     -27.692  -6.641 -18.639  0.00  0.00    -0.343 N 
HETATM    2  C           1     -26.475  -6.263 -18.138  0.00  0.00     0.249 C 
HETATM    3  H           1     -27.761  -6.996 -19.583  0.00  0.00     0.163 HD
HETATM    4  O           1     -26.392  -5.839 -17.009  0.00  0.00    -0.271 OA
ENDROOT
BRANCH   2   5
HETATM    5  C           1     -25.237  -6.377 -18.993  0.00  0.00     0.275 C 
BRANCH   5   6
HETATM    6  C           1     -25.641  -6.494 -20.457  0.00  0.00     0.046 C 
BRANCH   6   7
HETATM    7  C           1     -25.321  -7.893 -20.963  0.00  0.00    -0.020 C 
HETATM    8  C           1     -24.346  -7.801 -22.128  0.00  0.00     0.009 C 
HETATM    9  C           1     -26.603  -8.571 -21.428  0.00  0.00     0.009 C 
ENDBRANCH   6   7
ENDBRANCH   5   6
BRANCH   5  10
HETATM   10  N           1     -24.463  -7.597 -18.590  0.00  0.00    -0.066 N 
HETATM   11  H           1     -24.982  -8.107 -17.840  0.00  0.00     0.275 HD
HETATM   12  H           1     -24.345  -8.223 -19.419  0.00  0.00     0.275 HD
HETATM   13  H           1     -23.524  -7.311 -18.233  0.00  0.00     0.275 HD
ENDBRANCH   5  10
ENDBRANCH   2   5
BRANCH   1  14
HETATM   14  C           1     -28.881  -6.531 -17.816  0.00  0.00     0.209 C 
BRANCH  14  15
HETATM   15  C           1     -29.617  -7.848 -17.818  0.00  0.00     0.198 C 
HETATM   16  O           1     -30.315  -8.172 -18.802  0.00  0.00    -0.646 OA
HETATM   17  O           1     -29.529  -8.616 -16.835  0.00  0.00    -0.646 OA
ENDBRANCH  14  15
BRANCH  14  18
HETATM   18  C           1     -29.787  -5.442 -18.376  0.00  0.00     0.200 C 
BRANCH  18  19
HETATM   19  O           1     -30.694  -5.032 -17.389  0.00  0.00    -0.398 OA
HETATM   20  H           1     -31.545  -5.015 -17.790  0.00  0.00     0.209 HD
ENDBRANCH  18  19
ENDBRANCH  14  18
ENDBRANCH   1  14
TORSDOF 8
ENDMDL
MODEL 8
REMARK VINA RESULT:      -5.3      3.720      6.887
REMARK  8 active torsions:
REMARK  status: ('A' for Active; 'I' for Inactive)
REMARK    1  A    between atoms: N_2  and  C_18 
REMARK       I    between atoms: N_2  and  C_3 
REMARK    2  A    between atoms: C_3  and  C_4 
REMARK    3  A    between atoms: C_4  and  C_13 
REMARK    4  A    between atoms: C_4  and  N_14 
REMARK    5  A    between atoms: C_12  and  C_13 
REMARK    6  A    between atoms: C_17  and  C_18 
REMARK    7  A    between atoms: C_18  and  C_19 
REMARK    8  A    between atoms: C_19  and  O_20 
ROOT
HETATM    1  N           1     -22.100  -6.111  -4.998  0.00  0.00    -0.343 N 
HETATM    2  C           1     -21.566  -5.371  -6.019  0.00  0.00     0.249 C 
HETATM    3  H           1     -23.062  -6.419  -5.047  0.00  0.00     0.163 HD
HETATM    4  O           1     -20.417  -5.003  -5.961  0.00  0.00    -0.271 OA
ENDROOT
BRANCH   2   5
HETATM    5  C           1     -22.413  -5.014  -7.216  0.00  0.00     0.275 C 
BRANCH   5   6
HETATM    6  C           1     -21.709  -3.941  -8.034  0.00  0.00     0.046 C 
BRANCH   6   7
HETATM    7  C           1     -21.502  -4.440  -9.457  0.00  0.00    -0.020 C 
HETATM    8  C           1     -20.011  -4.571  -9.737  0.00  0.00     0.009 C 
HETATM    9  C           1     -22.116  -3.449 -10.438  0.00  0.00     0.009 C 
ENDBRANCH   6   7
ENDBRANCH   5   6
BRANCH   5  10
HETATM   10  N           1     -23.742  -4.497  -6.751  0.00  0.00    -0.066 N 
HETATM   11  H           1     -24.253  -5.255  -6.245  0.00  0.00     0.275 HD
HETATM   12  H           1     -23.593  -3.688  -6.107  0.00  0.00     0.275 HD
HETATM   13  H           1     -24.303  -4.188  -7.576  0.00  0.00     0.275 HD
ENDBRANCH   5  10
ENDBRANCH   2   5
BRANCH   1  14
HETATM   14  C           1     -21.286  -6.452  -3.848  0.00  0.00     0.209 C 
BRANCH  14  15
HETATM   15  C           1     -20.954  -7.924  -3.886  0.00  0.00     0.198 C 
HETATM   16  O           1     -19.825  -8.320  -3.526  0.00  0.00    -0.646 OA
HETATM   17  O           1     -21.808  -8.748  -4.279  0.00  0.00    -0.646 OA
ENDBRANCH  14  15
BRANCH  14  18
HETATM   18  C           1     -22.055  -6.138  -2.570  0.00  0.00     0.200 C 
BRANCH  18  19
HETATM   19  O           1     -22.011  -7.246  -1.712  0.00  0.00    -0.398 OA
HETATM   20  H           1     -22.210  -6.930  -0.848  0.00  0.00     0.209 HD
ENDBRANCH  18  19
ENDBRANCH  14  18
ENDBRANCH   1  14
TORSDOF 8
ENDMDL
MODEL 9
REMARK VINA RESULT:      -5.2     17.867     19.294
REMARK  8 active torsions:
REMARK  status: ('A' for Active; 'I' for Inactive)
REMARK    1  A    between atoms: N_2  and  C_18 
REMARK       I    between atoms: N_2  and  C_3 
REMARK    2  A    between atoms: C_3  and  C_4 
REMARK    3  A    between atoms: C_4  and  C_13 
REMARK    4  A    between atoms: C_4  and  N_14 
REMARK    5  A    between atoms: C_12  and  C_13 
REMARK    6  A    between atoms: C_17  and  C_18 
REMARK    7  A    between atoms: C_18  and  C_19 
REMARK    8  A    between atoms: C_19  and  O_20 
ROOT
HETATM    1  N           1     -12.245   5.554 -20.981  0.00  0.00    -0.343 N 
HETATM    2  C           1     -11.605   5.546 -19.771  0.00  0.00     0.249 C 
HETATM    3  H           1     -11.882   6.114 -21.741  0.00  0.00     0.163 HD
HETATM    4  O           1     -12.037   4.875 -18.864  0.00  0.00    -0.271 OA
ENDROOT
BRANCH   2   5
HETATM    5  C           1     -10.359   6.374 -19.570  0.00  0.00     0.275 C 
BRANCH   5   6
HETATM    6  C           1      -9.841   6.849 -20.920  0.00  0.00     0.046 C 
BRANCH   6   7
HETATM    7  C           1      -9.581   8.348 -20.867  0.00  0.00    -0.020 C 
HETATM    8  C           1     -10.281   8.941 -19.652  0.00  0.00     0.009 C 
HETATM    9  C           1     -10.119   9.003 -22.132  0.00  0.00     0.009 C 
ENDBRANCH   6   7
ENDBRANCH   5   6
BRANCH   5  10
HETATM   10  N           1      -9.309   5.540 -18.898  0.00  0.00    -0.066 N 
HETATM   11  H           1      -9.153   4.666 -19.448  0.00  0.00     0.275 HD
HETATM   12  H           1      -8.417   6.082 -18.845  0.00  0.00     0.275 HD
HETATM   13  H           1      -9.625   5.293 -17.933  0.00  0.00     0.275 HD
ENDBRANCH   5  10
ENDBRANCH   2   5
BRANCH   1  14
HETATM   14  C           1     -13.441   4.758 -21.174  0.00  0.00     0.209 C 
BRANCH  14  15
HETATM   15  C           1     -13.087   3.487 -21.907  0.00  0.00     0.198 C 
HETATM   16  O           1     -12.328   3.529 -22.899  0.00  0.00    -0.646 OA
HETATM   17  O           1     -13.553   2.392 -21.523  0.00  0.00    -0.646 OA
ENDBRANCH  14  15
BRANCH  14  18
HETATM   18  C           1     -14.452   5.552 -21.992  0.00  0.00     0.200 C 
BRANCH  18  19
HETATM   19  O           1     -15.147   4.685 -22.847  0.00  0.00    -0.398 OA
HETATM   20  H           1     -15.905   5.151 -23.152  0.00  0.00     0.209 HD
ENDBRANCH  18  19
ENDBRANCH  14  18
ENDBRANCH   1  14
TORSDOF 8
ENDMDL
