MODEL 1
REMARK VINA RESULT:      -8.3      0.000      0.000
REMARK  11 active torsions:
REMARK  status: ('A' for Active; 'I' for Inactive)
REMARK    1  A    between atoms: N_2  and  C_12 
REMARK       I    between atoms: N_2  and  C_3 
REMARK    2  A    between atoms: C_3  and  C_4 
REMARK    3  A    between atoms: C_4  and  C_9 
REMARK    4  A    between atoms: C_4  and  N_21 
REMARK    5  A    between atoms: O_7  and  P_23 
REMARK    6  A    between atoms: C_9  and  C_19 
REMARK    7  A    between atoms: C_12  and  C_26 
REMARK    8  A    between atoms: C_12  and  C_13 
REMARK    9  A    between atoms: C_13  and  C_14 
REMARK   10  A    between atoms: P_23  and  O_24 
REMARK   11  A    between atoms: O_24  and  C_25 
ROOT
HETATM    1  C           1     -32.378  -4.511 -16.312  0.00  0.00     0.189 C 
ENDROOT
BRANCH   1   2
HETATM    2  N           1     -33.715  -4.672 -15.773  0.00  0.00    -0.344 N 
HETATM    3  C           1     -34.111  -3.928 -14.694  0.00  0.00     0.249 C 
HETATM    4  O           1     -34.635  -2.852 -14.861  0.00  0.00    -0.271 OA
HETATM    5  H           1     -34.355  -5.333 -16.195  0.00  0.00     0.163 HD
BRANCH   3   6
HETATM    6  C           1     -33.893  -4.452 -13.296  0.00  0.00     0.278 C 
BRANCH   6   7
HETATM    7  C           1     -34.569  -3.524 -12.294  0.00  0.00     0.021 C 
HETATM    8  C           1     -35.288  -4.355 -11.239  0.00  0.00     0.012 C 
BRANCH   7   9
HETATM    9  C           1     -33.518  -2.651 -11.623  0.00  0.00     0.002 C 
HETATM   10  C           1     -33.980  -2.291 -10.216  0.00  0.00     0.005 C 
ENDBRANCH   7   9
ENDBRANCH   6   7
BRANCH   6  11
HETATM   11  N           1     -32.423  -4.511 -13.008  0.00  0.00    -0.066 N 
HETATM   12  H           1     -32.198  -5.410 -12.524  0.00  0.00     0.275 HD
HETATM   13  H           1     -31.889  -4.455 -13.905  0.00  0.00     0.275 HD
HETATM   14  H           1     -32.155  -3.708 -12.394  0.00  0.00     0.275 HD
ENDBRANCH   6  11
ENDBRANCH   3   6
ENDBRANCH   1   2
BRANCH   1  15
HETATM   15  C           1     -32.360  -3.343 -17.268  0.00  0.00     0.197 C 
HETATM   16  O           1     -33.436  -2.826 -17.642  0.00  0.00    -0.646 OA
HETATM   17  O           1     -31.272  -2.893 -17.684  0.00  0.00    -0.646 OA
ENDBRANCH   1  15
BRANCH   1  18
HETATM   18  C           1     -31.974  -5.780 -17.053  0.00  0.00     0.074 C 
BRANCH  18  19
HETATM   19  C           1     -30.614  -6.211 -16.599  0.00  0.00    -0.056 A 
HETATM   20  C           1     -29.960  -7.257 -17.250  0.00  0.00     0.010 A 
HETATM   21  C           1     -28.693  -7.659 -16.826  0.00  0.00     0.038 A 
HETATM   22  C           1     -28.080  -7.013 -15.752  0.00  0.00     0.081 A 
HETATM   23  C           1     -28.734  -5.967 -15.102  0.00  0.00     0.038 A 
HETATM   24  C           1     -30.001  -5.565 -15.526  0.00  0.00     0.010 A 
BRANCH  22  25
HETATM   25  O           1     -26.849  -7.403 -15.341  0.00  0.00    -0.247 OA
BRANCH  25  26
HETATM   26  P           1     -25.565  -6.709 -16.032  0.00  0.00     0.411 P 
HETATM   27  O           1     -25.978  -6.048 -17.289  0.00  0.00    -0.624 OA
HETATM   28  O           1     -24.547  -7.742 -16.329  0.00  0.00    -0.624 OA
BRANCH  26  29
HETATM   29  O           1     -24.940  -5.611 -15.026  0.00  0.00    -0.300 OA
HETATM   30  H           1     -24.032  -5.548 -15.266  0.00  0.00     0.223 HD
ENDBRANCH  26  29
ENDBRANCH  25  26
ENDBRANCH  22  25
ENDBRANCH  18  19
ENDBRANCH   1  18
TORSDOF 11
ENDMDL
MODEL 2
REMARK VINA RESULT:      -7.7     11.819     14.223
REMARK  11 active torsions:
REMARK  status: ('A' for Active; 'I' for Inactive)
REMARK    1  A    between atoms: N_2  and  C_12 
REMARK       I    between atoms: N_2  and  C_3 
REMARK    2  A    between atoms: C_3  and  C_4 
REMARK    3  A    between atoms: C_4  and  C_9 
REMARK    4  A    between atoms: C_4  and  N_21 
REMARK    5  A    between atoms: O_7  and  P_23 
REMARK    6  A    between atoms: C_9  and  C_19 
REMARK    7  A    between atoms: C_12  and  C_26 
REMARK    8  A    between atoms: C_12  and  C_13 
REMARK    9  A    between atoms: C_13  and  C_14 
REMARK   10  A    between atoms: P_23  and  O_24 
REMARK   11  A    between atoms: O_24  and  C_25 
ROOT
HETATM    1  C           1     -21.684  -6.561  -5.722  0.00  0.00     0.189 C 
ENDROOT
BRANCH   1   2
HETATM    2  N           1     -22.261  -6.409  -4.401  0.00  0.00    -0.344 N 
HETATM    3  C           1     -21.463  -6.493  -3.291  0.00  0.00     0.249 C 
HETATM    4  O           1     -20.940  -5.499  -2.847  0.00  0.00    -0.271 OA
HETATM    5  H           1     -23.254  -6.240  -4.298  0.00  0.00     0.163 HD
BRANCH   3   6
HETATM    6  C           1     -21.236  -7.828  -2.625  0.00  0.00     0.278 C 
BRANCH   6   7
HETATM    7  C           1     -21.239  -7.648  -1.112  0.00  0.00     0.021 C 
HETATM    8  C           1     -22.621  -7.196  -0.658  0.00  0.00     0.012 C 
BRANCH   7   9
HETATM    9  C           1     -20.893  -8.972  -0.445  0.00  0.00     0.002 C 
HETATM   10  C           1     -21.156  -8.869   1.052  0.00  0.00     0.005 C 
ENDBRANCH   7   9
ENDBRANCH   6   7
BRANCH   6  11
HETATM   11  N           1     -19.912  -8.384  -3.059  0.00  0.00    -0.066 N 
HETATM   12  H           1     -19.307  -7.608  -3.410  0.00  0.00     0.275 HD
HETATM   13  H           1     -19.446  -8.850  -2.248  0.00  0.00     0.275 HD
HETATM   14  H           1     -20.062  -9.083  -3.822  0.00  0.00     0.275 HD
ENDBRANCH   6  11
ENDBRANCH   3   6
ENDBRANCH   1   2
BRANCH   1  15
HETATM   15  C           1     -20.847  -7.815  -5.762  0.00  0.00     0.197 C 
HETATM   16  O           1     -19.599  -7.734  -5.783  0.00  0.00    -0.646 OA
HETATM   17  O           1     -21.400  -8.936  -5.772  0.00  0.00    -0.646 OA
ENDBRANCH   1  15
BRANCH   1  18
HETATM   18  C           1     -20.807  -5.355  -6.035  0.00  0.00     0.074 C 
BRANCH  18  19
HETATM   19  C           1     -21.194  -4.788  -7.365  0.00  0.00    -0.056 A 
HETATM   20  C           1     -22.436  -4.171  -7.526  0.00  0.00     0.010 A 
HETATM   21  C           1     -22.796  -3.644  -8.767  0.00  0.00     0.038 A 
HETATM   22  C           1     -21.915  -3.732  -9.844  0.00  0.00     0.081 A 
HETATM   23  C           1     -20.675  -4.348  -9.683  0.00  0.00     0.038 A 
HETATM   24  C           1     -20.313  -4.876  -8.443  0.00  0.00     0.010 A 
BRANCH  22  25
HETATM   25  O           1     -22.265  -3.218 -11.049  0.00  0.00    -0.247 OA
BRANCH  25  26
HETATM   26  P           1     -23.541  -3.860 -11.804  0.00  0.00     0.411 P 
HETATM   27  O           1     -24.762  -3.114 -11.430  0.00  0.00    -0.624 OA
HETATM   28  O           1     -23.688  -5.278 -11.405  0.00  0.00    -0.624 OA
BRANCH  26  29
HETATM   29  O           1     -23.322  -3.769 -13.401  0.00  0.00    -0.300 OA
HETATM   30  H           1     -23.647  -2.920 -13.644  0.00  0.00     0.223 HD
ENDBRANCH  26  29
ENDBRANCH  25  26
ENDBRANCH  22  25
ENDBRANCH  18  19
ENDBRANCH   1  18
TORSDOF 11
ENDMDL
MODEL 3
REMARK VINA RESULT:      -7.0     12.087     14.602
REMARK  11 active torsions:
REMARK  status: ('A' for Active; 'I' for Inactive)
REMARK    1  A    between atoms: N_2  and  C_12 
REMARK       I    between atoms: N_2  and  C_3 
REMARK    2  A    between atoms: C_3  and  C_4 
REMARK    3  A    between atoms: C_4  and  C_9 
REMARK    4  A    between atoms: C_4  and  N_21 
REMARK    5  A    between atoms: O_7  and  P_23 
REMARK    6  A    between atoms: C_9  and  C_19 
REMARK    7  A    between atoms: C_12  and  C_26 
REMARK    8  A    between atoms: C_12  and  C_13 
REMARK    9  A    between atoms: C_13  and  C_14 
REMARK   10  A    between atoms: P_23  and  O_24 
REMARK   11  A    between atoms: O_24  and  C_25 
ROOT
HETATM    1  C           1     -21.170  -7.922  -5.513  0.00  0.00     0.189 C 
ENDROOT
BRANCH   1   2
HETATM    2  N           1     -22.010  -7.866  -4.332  0.00  0.00    -0.344 N 
HETATM    3  C           1     -21.468  -7.524  -3.121  0.00  0.00     0.249 C 
HETATM    4  O           1     -21.432  -6.365  -2.781  0.00  0.00    -0.271 OA
HETATM    5  H           1     -22.997  -8.078  -4.401  0.00  0.00     0.163 HD
BRANCH   3   6
HETATM    6  C           1     -20.913  -8.594  -2.214  0.00  0.00     0.278 C 
BRANCH   6   7
HETATM    7  C           1     -21.931  -9.718  -2.072  0.00  0.00     0.021 C 
HETATM    8  C           1     -21.219 -11.062  -2.162  0.00  0.00     0.012 C 
BRANCH   7   9
HETATM    9  C           1     -22.629  -9.603  -0.724  0.00  0.00     0.002 C 
HETATM   10  C           1     -23.653 -10.722  -0.585  0.00  0.00     0.005 C 
ENDBRANCH   7   9
ENDBRANCH   6   7
BRANCH   6  11
HETATM   11  N           1     -20.628  -8.006  -0.864  0.00  0.00    -0.066 N 
HETATM   12  H           1     -20.833  -6.981  -0.880  0.00  0.00     0.275 HD
HETATM   13  H           1     -21.229  -8.471  -0.146  0.00  0.00     0.275 HD
HETATM   14  H           1     -19.621  -8.157  -0.624  0.00  0.00     0.275 HD
ENDBRANCH   6  11
ENDBRANCH   3   6
ENDBRANCH   1   2
BRANCH   1  15
HETATM   15  C           1     -20.217  -9.085  -5.394  0.00  0.00     0.197 C 
HETATM   16  O           1     -20.625 -10.251  -5.591  0.00  0.00    -0.646 OA
HETATM   17  O           1     -19.019  -8.884  -5.099  0.00  0.00    -0.646 OA
ENDBRANCH   1  15
BRANCH   1  18
HETATM   18  C           1     -20.379  -6.626  -5.634  0.00  0.00     0.074 C 
BRANCH  18  19
HETATM   19  C           1     -21.007  -5.753  -6.675  0.00  0.00    -0.056 A 
HETATM   20  C           1     -20.346  -5.518  -7.881  0.00  0.00     0.010 A 
HETATM   21  C           1     -20.932  -4.704  -8.850  0.00  0.00     0.038 A 
HETATM   22  C           1     -22.180  -4.126  -8.614  0.00  0.00     0.081 A 
HETATM   23  C           1     -22.840  -4.362  -7.409  0.00  0.00     0.038 A 
HETATM   24  C           1     -22.255  -5.176  -6.440  0.00  0.00     0.010 A 
BRANCH  22  25
HETATM   25  O           1     -22.749  -3.336  -9.557  0.00  0.00    -0.247 OA
BRANCH  25  26
HETATM   26  P           1     -23.935  -3.964 -10.456  0.00  0.00     0.411 P 
HETATM   27  O           1     -23.412  -5.109 -11.233  0.00  0.00    -0.624 OA
HETATM   28  O           1     -24.449  -2.931 -11.384  0.00  0.00    -0.624 OA
BRANCH  26  29
HETATM   29  O           1     -25.131  -4.467  -9.494  0.00  0.00    -0.300 OA
HETATM   30  H           1     -25.588  -5.120  -9.995  0.00  0.00     0.223 HD
ENDBRANCH  26  29
ENDBRANCH  25  26
ENDBRANCH  22  25
ENDBRANCH  18  19
ENDBRANCH   1  18
TORSDOF 11
ENDMDL
MODEL 4
REMARK VINA RESULT:      -6.8     12.271     14.853
REMARK  11 active torsions:
REMARK  status: ('A' for Active; 'I' for Inactive)
REMARK    1  A    between atoms: N_2  and  C_12 
REMARK       I    between atoms: N_2  and  C_3 
REMARK    2  A    between atoms: C_3  and  C_4 
REMARK    3  A    between atoms: C_4  and  C_9 
REMARK    4  A    between atoms: C_4  and  N_21 
REMARK    5  A    between atoms: O_7  and  P_23 
REMARK    6  A    between atoms: C_9  and  C_19 
REMARK    7  A    between atoms: C_12  and  C_26 
REMARK    8  A    between atoms: C_12  and  C_13 
REMARK    9  A    between atoms: C_13  and  C_14 
REMARK   10  A    between atoms: P_23  and  O_24 
REMARK   11  A    between atoms: O_24  and  C_25 
ROOT
HETATM    1  C           1     -21.108  -5.789  -6.733  0.00  0.00     0.189 C 
ENDROOT
BRANCH   1   2
HETATM    2  N           1     -21.009  -5.732  -8.179  0.00  0.00    -0.344 N 
HETATM    3  C           1     -21.436  -4.618  -8.851  0.00  0.00     0.249 C 
HETATM    4  O           1     -20.667  -3.711  -9.065  0.00  0.00    -0.271 OA
HETATM    5  H           1     -20.625  -6.516  -8.691  0.00  0.00     0.163 HD
BRANCH   3   6
HETATM    6  C           1     -22.866  -4.522  -9.322  0.00  0.00     0.278 C 
BRANCH   6   7
HETATM    7  C           1     -22.928  -3.683 -10.592  0.00  0.00     0.021 C 
HETATM    8  C           1     -22.262  -4.441 -11.734  0.00  0.00     0.012 C 
BRANCH   7   9
HETATM    9  C           1     -24.383  -3.408 -10.946  0.00  0.00     0.002 C 
HETATM   10  C           1     -24.481  -3.012 -12.414  0.00  0.00     0.005 C 
ENDBRANCH   7   9
ENDBRANCH   6   7
BRANCH   6  11
HETATM   11  N           1     -23.701  -3.878  -8.257  0.00  0.00    -0.066 N 
HETATM   12  H           1     -23.521  -2.848  -8.248  0.00  0.00     0.275 HD
HETATM   13  H           1     -24.713  -4.053  -8.452  0.00  0.00     0.275 HD
HETATM   14  H           1     -23.451  -4.283  -7.326  0.00  0.00     0.275 HD
ENDBRANCH   6  11
ENDBRANCH   3   6
ENDBRANCH   1   2
BRANCH   1  15
HETATM   15  C           1     -19.930  -5.070  -6.122  0.00  0.00     0.197 C 
HETATM   16  O           1     -18.800  -5.158  -6.653  0.00  0.00    -0.646 OA
HETATM   17  O           1     -20.083  -4.386  -5.088  0.00  0.00    -0.646 OA
ENDBRANCH   1  15
BRANCH   1  18
HETATM   18  C           1     -21.105  -7.244  -6.281  0.00  0.00     0.074 C 
BRANCH  18  19
HETATM   19  C           1     -21.173  -7.301  -4.786  0.00  0.00    -0.056 A 
HETATM   20  C           1     -20.273  -8.097  -4.076  0.00  0.00     0.010 A 
HETATM   21  C           1     -20.339  -8.151  -2.684  0.00  0.00     0.038 A 
HETATM   22  C           1     -21.302  -7.408  -2.002  0.00  0.00     0.081 A 
HETATM   23  C           1     -22.201  -6.613  -2.711  0.00  0.00     0.038 A 
HETATM   24  C           1     -22.136  -6.558  -4.104  0.00  0.00     0.010 A 
BRANCH  22  25
HETATM   25  O           1     -21.364  -7.460  -0.649  0.00  0.00    -0.247 OA
BRANCH  25  26
HETATM   26  P           1     -22.206  -8.662   0.025  0.00  0.00     0.411 P 
HETATM   27  O           1     -22.680  -9.585  -1.030  0.00  0.00    -0.624 OA
HETATM   28  O           1     -23.369  -8.103   0.751  0.00  0.00    -0.624 OA
BRANCH  26  29
HETATM   29  O           1     -21.262  -9.466   1.060  0.00  0.00    -0.300 OA
HETATM   30  H           1     -21.507  -9.148   1.911  0.00  0.00     0.223 HD
ENDBRANCH  26  29
ENDBRANCH  25  26
ENDBRANCH  22  25
ENDBRANCH  18  19
ENDBRANCH   1  18
TORSDOF 11
ENDMDL
MODEL 5
REMARK VINA RESULT:      -6.7     12.860     15.306
REMARK  11 active torsions:
REMARK  status: ('A' for Active; 'I' for Inactive)
REMARK    1  A    between atoms: N_2  and  C_12 
REMARK       I    between atoms: N_2  and  C_3 
REMARK    2  A    between atoms: C_3  and  C_4 
REMARK    3  A    between atoms: C_4  and  C_9 
REMARK    4  A    between atoms: C_4  and  N_21 
REMARK    5  A    between atoms: O_7  and  P_23 
REMARK    6  A    between atoms: C_9  and  C_19 
REMARK    7  A    between atoms: C_12  and  C_26 
REMARK    8  A    between atoms: C_12  and  C_13 
REMARK    9  A    between atoms: C_13  and  C_14 
REMARK   10  A    between atoms: P_23  and  O_24 
REMARK   11  A    between atoms: O_24  and  C_25 
ROOT
HETATM    1  C           1     -21.081  -7.013  -6.037  0.00  0.00     0.189 C 
ENDROOT
BRANCH   1   2
HETATM    2  N           1     -20.627  -6.150  -7.110  0.00  0.00    -0.344 N 
HETATM    3  C           1     -21.216  -4.928  -7.302  0.00  0.00     0.249 C 
HETATM    4  O           1     -20.780  -3.952  -6.739  0.00  0.00    -0.271 OA
HETATM    5  H           1     -19.874  -6.449  -7.717  0.00  0.00     0.163 HD
BRANCH   3   6
HETATM    6  C           1     -22.411  -4.802  -8.215  0.00  0.00     0.278 C 
BRANCH   6   7
HETATM    7  C           1     -22.095  -3.815  -9.331  0.00  0.00     0.021 C 
HETATM    8  C           1     -20.979  -4.375 -10.204  0.00  0.00     0.012 C 
BRANCH   7   9
HETATM    9  C           1     -23.340  -3.596 -10.180  0.00  0.00     0.002 C 
HETATM   10  C           1     -23.536  -4.786 -11.111  0.00  0.00     0.005 C 
ENDBRANCH   7   9
ENDBRANCH   6   7
BRANCH   6  11
HETATM   11  N           1     -23.589  -4.308  -7.430  0.00  0.00    -0.066 N 
HETATM   12  H           1     -23.701  -3.280  -7.580  0.00  0.00     0.275 HD
HETATM   13  H           1     -24.453  -4.803  -7.749  0.00  0.00     0.275 HD
HETATM   14  H           1     -23.435  -4.498  -6.414  0.00  0.00     0.275 HD
ENDBRANCH   6  11
ENDBRANCH   3   6
ENDBRANCH   1   2
BRANCH   1  15
HETATM   15  C           1     -21.736  -6.178  -4.966  0.00  0.00     0.197 C 
HETATM   16  O           1     -22.982  -6.067  -4.934  0.00  0.00    -0.646 OA
HETATM   17  O           1     -21.036  -5.597  -4.110  0.00  0.00    -0.646 OA
ENDBRANCH   1  15
BRANCH   1  18
HETATM   18  C           1     -19.890  -7.756  -5.445  0.00  0.00     0.074 C 
BRANCH  18  19
HETATM   19  C           1     -20.373  -8.739  -4.424  0.00  0.00    -0.056 A 
HETATM   20  C           1     -19.688  -8.885  -3.217  0.00  0.00     0.010 A 
HETATM   21  C           1     -20.139  -9.802  -2.267  0.00  0.00     0.038 A 
HETATM   22  C           1     -21.274 -10.571  -2.524  0.00  0.00     0.081 A 
HETATM   23  C           1     -21.957 -10.426  -3.730  0.00  0.00     0.038 A 
HETATM   24  C           1     -21.507  -9.509  -4.681  0.00  0.00     0.010 A 
BRANCH  22  25
HETATM   25  O           1     -21.711 -11.462  -1.600  0.00  0.00    -0.247 OA
BRANCH  25  26
HETATM   26  P           1     -22.372 -10.884  -0.244  0.00  0.00     0.411 P 
HETATM   27  O           1     -23.406 -11.825   0.240  0.00  0.00    -0.624 OA
HETATM   28  O           1     -22.992  -9.569  -0.520  0.00  0.00    -0.624 OA
BRANCH  26  29
HETATM   29  O           1     -21.228 -10.714   0.882  0.00  0.00    -0.300 OA
HETATM   30  H           1     -21.189  -9.789   1.054  0.00  0.00     0.223 HD
ENDBRANCH  26  29
ENDBRANCH  25  26
ENDBRANCH  22  25
ENDBRANCH  18  19
ENDBRANCH   1  18
TORSDOF 11
ENDMDL
MODEL 6
REMARK VINA RESULT:      -6.7     15.284     17.222
REMARK  11 active torsions:
REMARK  status: ('A' for Active; 'I' for Inactive)
REMARK    1  A    between atoms: N_2  and  C_12 
REMARK       I    between atoms: N_2  and  C_3 
REMARK    2  A    between atoms: C_3  and  C_4 
REMARK    3  A    between atoms: C_4  and  C_9 
REMARK    4  A    between atoms: C_4  and  N_21 
REMARK    5  A    between atoms: O_7  and  P_23 
REMARK    6  A    between atoms: C_9  and  C_19 
REMARK    7  A    between atoms: C_12  and  C_26 
REMARK    8  A    between atoms: C_12  and  C_13 
REMARK    9  A    between atoms: C_13  and  C_14 
REMARK   10  A    between atoms: P_23  and  O_24 
REMARK   11  A    between atoms: O_24  and  C_25 
ROOT
HETATM    1  C           1     -21.053  -7.358  -3.730  0.00  0.00     0.189 C 
ENDROOT
BRANCH   1   2
HETATM    2  N           1     -22.137  -7.644  -2.811  0.00  0.00    -0.344 N 
HETATM    3  C           1     -22.024  -7.297  -1.490  0.00  0.00     0.249 C 
HETATM    4  O           1     -22.398  -6.210  -1.118  0.00  0.00    -0.271 OA
HETATM    5  H           1     -22.978  -8.099  -3.144  0.00  0.00     0.163 HD
BRANCH   3   6
HETATM    6  C           1     -21.433  -8.271  -0.502  0.00  0.00     0.278 C 
BRANCH   6   7
HETATM    7  C           1     -21.950  -9.673  -0.798  0.00  0.00     0.021 C 
HETATM    8  C           1     -20.963 -10.702  -0.264  0.00  0.00     0.012 C 
BRANCH   7   9
HETATM    9  C           1     -23.301  -9.868  -0.123  0.00  0.00     0.002 C 
HETATM   10  C           1     -23.892 -11.207  -0.547  0.00  0.00     0.005 C 
ENDBRANCH   7   9
ENDBRANCH   6   7
BRANCH   6  11
HETATM   11  N           1     -21.832  -7.876   0.889  0.00  0.00    -0.066 N 
HETATM   12  H           1     -21.234  -8.384   1.580  0.00  0.00     0.275 HD
HETATM   13  H           1     -21.705  -6.845   1.008  0.00  0.00     0.275 HD
HETATM   14  H           1     -22.835  -8.123   1.047  0.00  0.00     0.275 HD
ENDBRANCH   6  11
ENDBRANCH   3   6
ENDBRANCH   1   2
BRANCH   1  15
HETATM   15  C           1     -21.431  -6.186  -4.602  0.00  0.00     0.197 C 
HETATM   16  O           1     -22.616  -6.041  -4.975  0.00  0.00    -0.646 OA
HETATM   17  O           1     -20.561  -5.360  -4.950  0.00  0.00    -0.646 OA
ENDBRANCH   1  15
BRANCH   1  18
HETATM   18  C           1     -20.795  -8.579  -4.605  0.00  0.00     0.074 C 
BRANCH  18  19
HETATM   19  C           1     -19.395  -9.063  -4.385  0.00  0.00    -0.056 A 
HETATM   20  C           1     -18.578  -9.356  -5.477  0.00  0.00     0.010 A 
HETATM   21  C           1     -17.275  -9.808  -5.271  0.00  0.00     0.038 A 
HETATM   22  C           1     -16.788  -9.964  -3.973  0.00  0.00     0.081 A 
HETATM   23  C           1     -17.605  -9.672  -2.882  0.00  0.00     0.038 A 
HETATM   24  C           1     -18.908  -9.219  -3.087  0.00  0.00     0.010 A 
BRANCH  22  25
HETATM   25  O           1     -15.521 -10.402  -3.774  0.00  0.00    -0.247 OA
BRANCH  25  26
HETATM   26  P           1     -15.178 -11.932  -4.161  0.00  0.00     0.411 P 
HETATM   27  O           1     -16.385 -12.769  -3.980  0.00  0.00    -0.624 OA
HETATM   28  O           1     -14.095 -12.432  -3.286  0.00  0.00    -0.624 OA
BRANCH  26  29
HETATM   29  O           1     -14.701 -12.003  -5.703  0.00  0.00    -0.300 OA
HETATM   30  H           1     -14.817 -12.903  -5.953  0.00  0.00     0.223 HD
ENDBRANCH  26  29
ENDBRANCH  25  26
ENDBRANCH  22  25
ENDBRANCH  18  19
ENDBRANCH   1  18
TORSDOF 11
ENDMDL
MODEL 7
REMARK VINA RESULT:      -6.7     14.662     17.549
REMARK  11 active torsions:
REMARK  status: ('A' for Active; 'I' for Inactive)
REMARK    1  A    between atoms: N_2  and  C_12 
REMARK       I    between atoms: N_2  and  C_3 
REMARK    2  A    between atoms: C_3  and  C_4 
REMARK    3  A    between atoms: C_4  and  C_9 
REMARK    4  A    between atoms: C_4  and  N_21 
REMARK    5  A    between atoms: O_7  and  P_23 
REMARK    6  A    between atoms: C_9  and  C_19 
REMARK    7  A    between atoms: C_12  and  C_26 
REMARK    8  A    between atoms: C_12  and  C_13 
REMARK    9  A    between atoms: C_13  and  C_14 
REMARK   10  A    between atoms: P_23  and  O_24 
REMARK   11  A    between atoms: O_24  and  C_25 
ROOT
HETATM    1  C           1     -20.634  -9.779  -1.640  0.00  0.00     0.189 C 
ENDROOT
BRANCH   1   2
HETATM    2  N           1     -20.104 -11.127  -1.718  0.00  0.00    -0.344 N 
HETATM    3  C           1     -18.749 -11.331  -1.704  0.00  0.00     0.249 C 
HETATM    4  O           1     -18.173 -11.490  -0.654  0.00  0.00    -0.271 OA
HETATM    5  H           1     -20.734 -11.916  -1.782  0.00  0.00     0.163 HD
BRANCH   3   6
HETATM    6  C           1     -17.977 -11.358  -3.000  0.00  0.00     0.278 C 
BRANCH   6   7
HETATM    7  C           1     -17.574  -9.940  -3.382  0.00  0.00     0.021 C 
HETATM    8  C           1     -16.159  -9.664  -2.888  0.00  0.00     0.012 C 
BRANCH   7   9
HETATM    9  C           1     -17.621  -9.790  -4.896  0.00  0.00     0.002 C 
HETATM   10  C           1     -16.204  -9.819  -5.454  0.00  0.00     0.005 C 
ENDBRANCH   7   9
ENDBRANCH   6   7
BRANCH   6  11
HETATM   11  N           1     -18.837 -11.941  -4.082  0.00  0.00    -0.066 N 
HETATM   12  H           1     -19.040 -12.943  -3.863  0.00  0.00     0.275 HD
HETATM   13  H           1     -19.734 -11.408  -4.140  0.00  0.00     0.275 HD
HETATM   14  H           1     -18.335 -11.879  -4.997  0.00  0.00     0.275 HD
ENDBRANCH   6  11
ENDBRANCH   3   6
ENDBRANCH   1   2
BRANCH   1  15
HETATM   15  C           1     -21.207  -9.545  -0.264  0.00  0.00     0.197 C 
HETATM   16  O           1     -21.774 -10.480   0.344  0.00  0.00    -0.646 OA
HETATM   17  O           1     -21.116  -8.418   0.268  0.00  0.00    -0.646 OA
ENDBRANCH   1  15
BRANCH   1  18
HETATM   18  C           1     -21.729  -9.604  -2.684  0.00  0.00     0.074 C 
BRANCH  18  19
HETATM   19  C           1     -21.431  -8.400  -3.523  0.00  0.00    -0.056 A 
HETATM   20  C           1     -21.023  -8.558  -4.848  0.00  0.00     0.010 A 
HETATM   21  C           1     -20.744  -7.436  -5.629  0.00  0.00     0.038 A 
HETATM   22  C           1     -20.874  -6.158  -5.086  0.00  0.00     0.081 A 
HETATM   23  C           1     -21.281  -6.001  -3.762  0.00  0.00     0.038 A 
HETATM   24  C           1     -21.561  -7.122  -2.980  0.00  0.00     0.010 A 
BRANCH  22  25
HETATM   25  O           1     -20.604  -5.068  -5.845  0.00  0.00    -0.247 OA
BRANCH  25  26
HETATM   26  P           1     -21.707  -4.610  -6.932  0.00  0.00     0.411 P 
HETATM   27  O           1     -23.059  -4.952  -6.438  0.00  0.00    -0.624 OA
HETATM   28  O           1     -21.458  -5.309  -8.213  0.00  0.00    -0.624 OA
BRANCH  26  29
HETATM   29  O           1     -21.606  -3.014  -7.161  0.00  0.00    -0.300 OA
HETATM   30  H           1     -20.737  -2.782  -6.883  0.00  0.00     0.223 HD
ENDBRANCH  26  29
ENDBRANCH  25  26
ENDBRANCH  22  25
ENDBRANCH  18  19
ENDBRANCH   1  18
TORSDOF 11
ENDMDL
MODEL 8
REMARK VINA RESULT:      -6.7      5.952      7.776
REMARK  11 active torsions:
REMARK  status: ('A' for Active; 'I' for Inactive)
REMARK    1  A    between atoms: N_2  and  C_12 
REMARK       I    between atoms: N_2  and  C_3 
REMARK    2  A    between atoms: C_3  and  C_4 
REMARK    3  A    between atoms: C_4  and  C_9 
REMARK    4  A    between atoms: C_4  and  N_21 
REMARK    5  A    between atoms: O_7  and  P_23 
REMARK    6  A    between atoms: C_9  and  C_19 
REMARK    7  A    between atoms: C_12  and  C_26 
REMARK    8  A    between atoms: C_12  and  C_13 
REMARK    9  A    between atoms: C_13  and  C_14 
REMARK   10  A    between atoms: P_23  and  O_24 
REMARK   11  A    between atoms: O_24  and  C_25 
ROOT
HETATM    1  C           1     -35.693  -1.160 -12.103  0.00  0.00     0.189 C 
ENDROOT
BRANCH   1   2
HETATM    2  N           1     -35.048  -0.795 -13.350  0.00  0.00    -0.344 N 
HETATM    3  C           1     -35.300   0.425 -13.920  0.00  0.00     0.249 C 
HETATM    4  O           1     -34.613   1.377 -13.636  0.00  0.00    -0.271 OA
HETATM    5  H           1     -34.411  -1.441 -13.798  0.00  0.00     0.163 HD
BRANCH   3   6
HETATM    6  C           1     -36.436   0.579 -14.901  0.00  0.00     0.278 C 
BRANCH   6   7
HETATM    7  C           1     -36.626  -0.723 -15.667  0.00  0.00     0.021 C 
HETATM    8  C           1     -38.014  -0.744 -16.295  0.00  0.00     0.012 C 
BRANCH   7   9
HETATM    9  C           1     -35.572  -0.825 -16.762  0.00  0.00     0.002 C 
HETATM   10  C           1     -35.034  -2.249 -16.816  0.00  0.00     0.005 C 
ENDBRANCH   7   9
ENDBRANCH   6   7
BRANCH   6  11
HETATM   11  N           1     -36.117   1.684 -15.864  0.00  0.00    -0.066 N 
HETATM   12  H           1     -35.200   2.115 -15.608  0.00  0.00     0.275 HD
HETATM   13  H           1     -36.063   1.297 -16.833  0.00  0.00     0.275 HD
HETATM   14  H           1     -36.868   2.410 -15.821  0.00  0.00     0.275 HD
ENDBRANCH   6  11
ENDBRANCH   3   6
ENDBRANCH   1   2
BRANCH   1  15
HETATM   15  C           1     -36.597  -0.036 -11.660  0.00  0.00     0.197 C 
HETATM   16  O           1     -36.177   0.824 -10.855  0.00  0.00    -0.646 OA
HETATM   17  O           1     -37.766   0.036 -12.097  0.00  0.00    -0.646 OA
ENDBRANCH   1  15
BRANCH   1  18
HETATM   18  C           1     -34.633  -1.410 -11.037  0.00  0.00     0.074 C 
BRANCH  18  19
HETATM   19  C           1     -34.252  -2.857 -11.043  0.00  0.00    -0.056 A 
HETATM   20  C           1     -32.976  -3.242 -11.458  0.00  0.00     0.010 A 
HETATM   21  C           1     -32.623  -4.591 -11.464  0.00  0.00     0.038 A 
HETATM   22  C           1     -33.543  -5.555 -11.054  0.00  0.00     0.081 A 
HETATM   23  C           1     -34.818  -5.171 -10.640  0.00  0.00     0.038 A 
HETATM   24  C           1     -35.173  -3.822 -10.633  0.00  0.00     0.010 A 
BRANCH  22  25
HETATM   25  O           1     -33.198  -6.866 -11.059  0.00  0.00    -0.247 OA
BRANCH  25  26
HETATM   26  P           1     -34.067  -7.882 -10.153  0.00  0.00     0.411 P 
HETATM   27  O           1     -35.381  -8.114 -10.794  0.00  0.00    -0.624 OA
HETATM   28  O           1     -34.270  -7.294  -8.810  0.00  0.00    -0.624 OA
BRANCH  26  29
HETATM   29  O           1     -33.281  -9.285 -10.014  0.00  0.00    -0.300 OA
HETATM   30  H           1     -32.376  -9.049  -9.905  0.00  0.00     0.223 HD
ENDBRANCH  26  29
ENDBRANCH  25  26
ENDBRANCH  22  25
ENDBRANCH  18  19
ENDBRANCH   1  18
TORSDOF 11
ENDMDL
MODEL 9
REMARK VINA RESULT:      -6.5     16.038     17.810
REMARK  11 active torsions:
REMARK  status: ('A' for Active; 'I' for Inactive)
REMARK    1  A    between atoms: N_2  and  C_12 
REMARK       I    between atoms: N_2  and  C_3 
REMARK    2  A    between atoms: C_3  and  C_4 
REMARK    3  A    between atoms: C_4  and  C_9 
REMARK    4  A    between atoms: C_4  and  N_21 
REMARK    5  A    between atoms: O_7  and  P_23 
REMARK    6  A    between atoms: C_9  and  C_19 
REMARK    7  A    between atoms: C_12  and  C_26 
REMARK    8  A    between atoms: C_12  and  C_13 
REMARK    9  A    between atoms: C_13  and  C_14 
REMARK   10  A    between atoms: P_23  and  O_24 
REMARK   11  A    between atoms: O_24  and  C_25 
ROOT
HETATM    1  C           1     -21.060  -7.828  -2.353  0.00  0.00     0.189 C 
ENDROOT
BRANCH   1   2
HETATM    2  N           1     -21.994  -8.344  -1.371  0.00  0.00    -0.344 N 
HETATM    3  C           1     -21.544  -9.132  -0.345  0.00  0.00     0.249 C 
HETATM    4  O           1     -21.197  -8.627   0.696  0.00  0.00    -0.271 OA
HETATM    5  H           1     -22.979  -8.122  -1.444  0.00  0.00     0.163 HD
BRANCH   3   6
HETATM    6  C           1     -21.480 -10.629  -0.516  0.00  0.00     0.278 C 
BRANCH   6   7
HETATM    7  C           1     -22.576 -11.283   0.316  0.00  0.00     0.021 C 
HETATM    8  C           1     -23.907 -11.165  -0.415  0.00  0.00     0.012 C 
BRANCH   7   9
HETATM    9  C           1     -22.242 -12.753   0.528  0.00  0.00     0.002 C 
HETATM   10  C           1     -23.252 -13.370   1.487  0.00  0.00     0.005 C 
ENDBRANCH   7   9
ENDBRANCH   6   7
BRANCH   6  11
HETATM   11  N           1     -20.142 -11.128  -0.059  0.00  0.00    -0.066 N 
HETATM   12  H           1     -19.427 -10.377  -0.191  0.00  0.00     0.275 HD
HETATM   13  H           1     -20.193 -11.387   0.953  0.00  0.00     0.275 HD
HETATM   14  H           1     -19.873 -11.968  -0.620  0.00  0.00     0.275 HD
ENDBRANCH   6  11
ENDBRANCH   3   6
ENDBRANCH   1   2
BRANCH   1  15
HETATM   15  C           1     -21.514  -6.463  -2.808  0.00  0.00     0.197 C 
HETATM   16  O           1     -22.293  -5.793  -2.094  0.00  0.00    -0.646 OA
HETATM   17  O           1     -21.113  -6.001  -3.898  0.00  0.00    -0.646 OA
ENDBRANCH   1  15
BRANCH   1  18
HETATM   18  C           1     -21.007  -8.771  -3.548  0.00  0.00     0.074 C 
BRANCH  18  19
HETATM   19  C           1     -19.583  -9.126  -3.841  0.00  0.00    -0.056 A 
HETATM   20  C           1     -18.674  -9.287  -2.794  0.00  0.00     0.010 A 
HETATM   21  C           1     -17.347  -9.618  -3.068  0.00  0.00     0.038 A 
HETATM   22  C           1     -16.929  -9.789  -4.388  0.00  0.00     0.081 A 
HETATM   23  C           1     -17.837  -9.627  -5.433  0.00  0.00     0.038 A 
HETATM   24  C           1     -19.164  -9.297  -5.160  0.00  0.00     0.010 A 
BRANCH  22  25
HETATM   25  O           1     -15.639 -10.110  -4.653  0.00  0.00    -0.247 OA
BRANCH  25  26
HETATM   26  P           1     -15.320 -11.614  -5.149  0.00  0.00     0.411 P 
HETATM   27  O           1     -14.009 -12.042  -4.613  0.00  0.00    -0.624 OA
HETATM   28  O           1     -15.284 -11.648  -6.628  0.00  0.00    -0.624 OA
BRANCH  26  29
HETATM   29  O           1     -16.472 -12.612  -4.614  0.00  0.00    -0.300 OA
HETATM   30  H           1     -16.170 -12.904  -3.772  0.00  0.00     0.223 HD
ENDBRANCH  26  29
ENDBRANCH  25  26
ENDBRANCH  22  25
ENDBRANCH  18  19
ENDBRANCH   1  18
TORSDOF 11
ENDMDL
