MODEL 1
REMARK VINA RESULT:      -6.2      0.000      0.000
REMARK  5 active torsions:
REMARK  status: ('A' for Active; 'I' for Inactive)
REMARK       I    between atoms: N_1  and  C_2 
REMARK    1  A    between atoms: C_2  and  C_3 
REMARK    2  A    between atoms: C_3  and  C_4 
REMARK    3  A    between atoms: C_3  and  N_6 
REMARK    4  A    between atoms: C_4  and  Se_5 
REMARK    5  A    between atoms: C_16  and  C_18 
ROOT
HETATM    1  N           1     -34.831  -2.006 -12.422  0.00  0.00    -0.336 N 
HETATM    2  C           1     -35.277  -1.283 -13.496  0.00  0.00     0.251 C 
HETATM    3  O           1     -35.094  -1.692 -14.617  0.00  0.00    -0.271 OA
HETATM    4  C           1     -34.963  -1.669 -11.007  0.00  0.00     0.127 C 
HETATM    5  C           1     -33.624  -2.068 -10.412  0.00  0.00     0.022 C 
HETATM    6  C           1     -33.067  -3.124 -11.359  0.00  0.00     0.038 C 
HETATM    7  C           1     -34.121  -3.282 -12.441  0.00  0.00     0.188 C 
ENDROOT
BRANCH   2   8
HETATM    8  C           1     -35.997   0.025 -13.278  0.00  0.00     0.275 C 
BRANCH   8   9
HETATM    9  C           1     -37.499  -0.195 -13.401  0.00  0.00     0.045 C 
BRANCH   9  10
HETATM   10 Se           1     -38.055   0.136 -15.239  0.00  0.00     0.000 Se
HETATM   11  H           1     -36.683   0.161 -15.773  0.00  0.00     0.000 HD
ENDBRANCH   9  10
ENDBRANCH   8   9
BRANCH   8  12
HETATM   12  N           1     -35.552   1.019 -14.309  0.00  0.00    -0.067 N 
HETATM   13  H           1     -36.178   1.856 -14.282  0.00  0.00     0.275 HD
HETATM   14  H           1     -34.569   1.313 -14.107  0.00  0.00     0.275 HD
HETATM   15  H           1     -35.597   0.581 -15.257  0.00  0.00     0.275 HD
ENDBRANCH   8  12
ENDBRANCH   2   8
BRANCH   7  16
HETATM   16  C           1     -35.056  -4.421 -12.120  0.00  0.00     0.196 C 
HETATM   17  O           1     -35.743  -4.391 -11.077  0.00  0.00    -0.646 OA
HETATM   18  O           1     -35.144  -5.396 -12.899  0.00  0.00    -0.646 OA
ENDBRANCH   7  16
TORSDOF 5
ENDMDL
MODEL 2
REMARK VINA RESULT:      -6.0     11.401     12.219
REMARK  5 active torsions:
REMARK  status: ('A' for Active; 'I' for Inactive)
REMARK       I    between atoms: N_1  and  C_2 
REMARK    1  A    between atoms: C_2  and  C_3 
REMARK    2  A    between atoms: C_3  and  C_4 
REMARK    3  A    between atoms: C_3  and  N_6 
REMARK    4  A    between atoms: C_4  and  Se_5 
REMARK    5  A    between atoms: C_16  and  C_18 
ROOT
HETATM    1  N           1     -23.092  -3.470 -11.883  0.00  0.00    -0.336 N 
HETATM    2  C           1     -23.649  -3.333 -13.126  0.00  0.00     0.251 C 
HETATM    3  O           1     -24.553  -4.058 -13.465  0.00  0.00    -0.271 OA
HETATM    4  C           1     -22.000  -2.689 -11.307  0.00  0.00     0.127 C 
HETATM    5  C           1     -21.165  -3.720 -10.569  0.00  0.00     0.022 C 
HETATM    6  C           1     -22.123  -4.868 -10.270  0.00  0.00     0.038 C 
HETATM    7  C           1     -23.459  -4.428 -10.844  0.00  0.00     0.188 C 
ENDROOT
BRANCH   2   8
HETATM    8  C           1     -23.133  -2.277 -14.072  0.00  0.00     0.275 C 
BRANCH   8   9
HETATM    9  C           1     -24.301  -1.461 -14.609  0.00  0.00     0.045 C 
BRANCH   9  10
HETATM   10 Se           1     -23.629  -0.062 -15.788  0.00  0.00     0.000 Se
HETATM   11  H           1     -24.452   1.001 -15.188  0.00  0.00     0.000 HD
ENDBRANCH   9  10
ENDBRANCH   8   9
BRANCH   8  12
HETATM   12  N           1     -22.416  -2.934 -15.213  0.00  0.00    -0.067 N 
HETATM   13  H           1     -21.593  -3.466 -14.850  0.00  0.00     0.275 HD
HETATM   14  H           1     -23.068  -3.591 -15.701  0.00  0.00     0.275 HD
HETATM   15  H           1     -22.090  -2.204 -15.887  0.00  0.00     0.275 HD
ENDBRANCH   8  12
ENDBRANCH   2   8
BRANCH   7  16
HETATM   16  C           1     -24.310  -3.772  -9.785  0.00  0.00     0.196 C 
HETATM   17  O           1     -25.356  -3.169 -10.109  0.00  0.00    -0.646 OA
HETATM   18  O           1     -23.970  -3.833  -8.584  0.00  0.00    -0.646 OA
ENDBRANCH   7  16
TORSDOF 5
ENDMDL
MODEL 3
REMARK VINA RESULT:      -5.9     13.003     14.315
REMARK  5 active torsions:
REMARK  status: ('A' for Active; 'I' for Inactive)
REMARK       I    between atoms: N_1  and  C_2 
REMARK    1  A    between atoms: C_2  and  C_3 
REMARK    2  A    between atoms: C_3  and  C_4 
REMARK    3  A    between atoms: C_3  and  N_6 
REMARK    4  A    between atoms: C_4  and  Se_5 
REMARK    5  A    between atoms: C_16  and  C_18 
ROOT
HETATM    1  N           1     -21.478  -4.469  -8.832  0.00  0.00    -0.336 N 
HETATM    2  C           1     -22.262  -4.384  -9.951  0.00  0.00     0.251 C 
HETATM    3  O           1     -23.070  -5.249 -10.190  0.00  0.00    -0.271 OA
HETATM    4  C           1     -20.457  -3.525  -8.389  0.00  0.00     0.127 C 
HETATM    5  C           1     -19.335  -4.413  -7.881  0.00  0.00     0.022 C 
HETATM    6  C           1     -20.006  -5.732  -7.515  0.00  0.00     0.038 C 
HETATM    7  C           1     -21.479  -5.525  -7.823  0.00  0.00     0.188 C 
ENDROOT
BRANCH   2   8
HETATM    8  C           1     -22.118  -3.209 -10.886  0.00  0.00     0.275 C 
BRANCH   8   9
HETATM    9  C           1     -23.456  -2.924 -11.555  0.00  0.00     0.045 C 
BRANCH   9  10
HETATM   10 Se           1     -23.210  -2.836 -13.487  0.00  0.00     0.000 Se
HETATM   11  H           1     -22.212  -3.917 -13.526  0.00  0.00     0.000 HD
ENDBRANCH   9  10
ENDBRANCH   8   9
BRANCH   8  12
HETATM   12  N           1     -21.093  -3.527 -11.934  0.00  0.00    -0.067 N 
HETATM   13  H           1     -21.450  -4.291 -12.552  0.00  0.00     0.275 HD
HETATM   14  H           1     -20.906  -2.673 -12.508  0.00  0.00     0.275 HD
HETATM   15  H           1     -20.207  -3.837 -11.473  0.00  0.00     0.275 HD
ENDBRANCH   8  12
ENDBRANCH   2   8
BRANCH   7  16
HETATM   16  C           1     -22.231  -5.088  -6.590  0.00  0.00     0.196 C 
HETATM   17  O           1     -23.360  -4.564  -6.700  0.00  0.00    -0.646 OA
HETATM   18  O           1     -21.725  -5.251  -5.459  0.00  0.00    -0.646 OA
ENDBRANCH   7  16
TORSDOF 5
ENDMDL
MODEL 4
REMARK VINA RESULT:      -5.8      2.733      5.064
REMARK  5 active torsions:
REMARK  status: ('A' for Active; 'I' for Inactive)
REMARK       I    between atoms: N_1  and  C_2 
REMARK    1  A    between atoms: C_2  and  C_3 
REMARK    2  A    between atoms: C_3  and  C_4 
REMARK    3  A    between atoms: C_3  and  N_6 
REMARK    4  A    between atoms: C_4  and  Se_5 
REMARK    5  A    between atoms: C_16  and  C_18 
ROOT
HETATM    1  N           1     -35.797  -1.045 -13.266  0.00  0.00    -0.336 N 
HETATM    2  C           1     -34.961  -2.076 -12.930  0.00  0.00     0.251 C 
HETATM    3  O           1     -34.508  -2.791 -13.790  0.00  0.00    -0.271 OA
HETATM    4  C           1     -36.434  -0.087 -12.367  0.00  0.00     0.127 C 
HETATM    5  C           1     -37.833   0.070 -12.935  0.00  0.00     0.022 C 
HETATM    6  C           1     -37.712  -0.315 -14.404  0.00  0.00     0.038 C 
HETATM    7  C           1     -36.247  -0.665 -14.602  0.00  0.00     0.188 C 
ENDROOT
BRANCH   2   8
HETATM    8  C           1     -34.606  -2.318 -11.483  0.00  0.00     0.275 C 
BRANCH   8   9
HETATM    9  C           1     -33.288  -3.077 -11.403  0.00  0.00     0.045 C 
BRANCH   9  10
HETATM   10 Se           1     -33.646  -4.969 -11.098  0.00  0.00     0.000 Se
HETATM   11  H           1     -34.707  -5.051 -12.117  0.00  0.00     0.000 HD
ENDBRANCH   9  10
ENDBRANCH   8   9
BRANCH   8  12
HETATM   12  N           1     -35.688  -3.125 -10.831  0.00  0.00    -0.067 N 
HETATM   13  H           1     -36.426  -3.355 -11.535  0.00  0.00     0.275 HD
HETATM   14  H           1     -35.281  -4.010 -10.452  0.00  0.00     0.275 HD
HETATM   15  H           1     -36.111  -2.574 -10.050  0.00  0.00     0.275 HD
ENDBRANCH   8  12
ENDBRANCH   2   8
BRANCH   7  16
HETATM   16  C           1     -35.473   0.527 -15.110  0.00  0.00     0.196 C 
HETATM   17  O           1     -34.263   0.655 -14.824  0.00  0.00    -0.646 OA
HETATM   18  O           1     -36.042   1.386 -15.818  0.00  0.00    -0.646 OA
ENDBRANCH   7  16
TORSDOF 5
ENDMDL
MODEL 5
REMARK VINA RESULT:      -5.8     13.342     14.942
REMARK  5 active torsions:
REMARK  status: ('A' for Active; 'I' for Inactive)
REMARK       I    between atoms: N_1  and  C_2 
REMARK    1  A    between atoms: C_2  and  C_3 
REMARK    2  A    between atoms: C_3  and  C_4 
REMARK    3  A    between atoms: C_3  and  N_6 
REMARK    4  A    between atoms: C_4  and  Se_5 
REMARK    5  A    between atoms: C_16  and  C_18 
ROOT
HETATM    1  N           1     -21.598  -4.342  -9.517  0.00  0.00    -0.336 N 
HETATM    2  C           1     -21.664  -4.576  -8.170  0.00  0.00     0.251 C 
HETATM    3  O           1     -22.589  -4.143  -7.526  0.00  0.00    -0.271 OA
HETATM    4  C           1     -20.562  -4.784 -10.447  0.00  0.00     0.127 C 
HETATM    5  C           1     -20.358  -3.588 -11.359  0.00  0.00     0.022 C 
HETATM    6  C           1     -21.661  -2.801 -11.283  0.00  0.00     0.038 C 
HETATM    7  C           1     -22.547  -3.594 -10.338  0.00  0.00     0.188 C 
ENDROOT
BRANCH   2   8
HETATM    8  C           1     -20.582  -5.377  -7.490  0.00  0.00     0.275 C 
BRANCH   8   9
HETATM    9  C           1     -21.216  -6.443  -6.607  0.00  0.00     0.045 C 
BRANCH   9  10
HETATM   10 Se           1     -21.051  -5.920  -4.736  0.00  0.00     0.000 Se
HETATM   11  H           1     -20.156  -4.784  -5.013  0.00  0.00     0.000 HD
ENDBRANCH   9  10
ENDBRANCH   8   9
BRANCH   8  12
HETATM   12  N           1     -19.741  -4.466  -6.646  0.00  0.00    -0.067 N 
HETATM   13  H           1     -19.594  -3.561  -7.149  0.00  0.00     0.275 HD
HETATM   14  H           1     -20.226  -4.285  -5.738  0.00  0.00     0.275 HD
HETATM   15  H           1     -18.815  -4.916  -6.463  0.00  0.00     0.275 HD
ENDBRANCH   8  12
ENDBRANCH   2   8
BRANCH   7  16
HETATM   16  C           1     -23.449  -4.530 -11.104  0.00  0.00     0.196 C 
HETATM   17  O           1     -24.001  -5.486 -10.517  0.00  0.00    -0.646 OA
HETATM   18  O           1     -23.644  -4.350 -12.325  0.00  0.00    -0.646 OA
ENDBRANCH   7  16
TORSDOF 5
ENDMDL
MODEL 6
REMARK VINA RESULT:      -5.2     25.774     26.826
REMARK  5 active torsions:
REMARK  status: ('A' for Active; 'I' for Inactive)
REMARK       I    between atoms: N_1  and  C_2 
REMARK    1  A    between atoms: C_2  and  C_3 
REMARK    2  A    between atoms: C_3  and  C_4 
REMARK    3  A    between atoms: C_3  and  N_6 
REMARK    4  A    between atoms: C_4  and  Se_5 
REMARK    5  A    between atoms: C_16  and  C_18 
ROOT
HETATM    1  N           1     -11.525   7.592 -20.606  0.00  0.00    -0.336 N 
HETATM    2  C           1     -12.342   6.562 -20.225  0.00  0.00     0.251 C 
HETATM    3  O           1     -13.230   6.757 -19.430  0.00  0.00    -0.271 OA
HETATM    4  C           1     -10.411   7.542 -21.548  0.00  0.00     0.127 C 
HETATM    5  C           1      -9.350   8.417 -20.904  0.00  0.00     0.022 C 
HETATM    6  C           1     -10.117   9.360 -19.984  0.00  0.00     0.038 C 
HETATM    7  C           1     -11.578   8.981 -20.158  0.00  0.00     0.188 C 
ENDROOT
BRANCH   2   8
HETATM    8  C           1     -12.134   5.182 -20.800  0.00  0.00     0.275 C 
BRANCH   8   9
HETATM    9  C           1     -13.424   4.704 -21.453  0.00  0.00     0.045 C 
BRANCH   9  10
HETATM   10 Se           1     -13.447   2.755 -21.494  0.00  0.00     0.000 Se
HETATM   11  H           1     -12.250   2.643 -22.343  0.00  0.00     0.000 HD
ENDBRANCH   9  10
ENDBRANCH   8   9
BRANCH   8  12
HETATM   12  N           1     -11.750   4.236 -19.702  0.00  0.00    -0.067 N 
HETATM   13  H           1     -12.526   4.176 -19.004  0.00  0.00     0.275 HD
HETATM   14  H           1     -11.571   3.288 -20.106  0.00  0.00     0.275 HD
HETATM   15  H           1     -10.883   4.583 -19.231  0.00  0.00     0.275 HD
ENDBRANCH   8  12
ENDBRANCH   2   8
BRANCH   7  16
HETATM   16  C           1     -12.241   9.855 -21.194  0.00  0.00     0.196 C 
HETATM   17  O           1     -13.367   9.548 -21.642  0.00  0.00    -0.646 OA
HETATM   18  O           1     -11.665  10.886 -21.603  0.00  0.00    -0.646 OA
ENDBRANCH   7  16
TORSDOF 5
ENDMDL
MODEL 7
REMARK VINA RESULT:      -5.1     25.289     26.320
REMARK  5 active torsions:
REMARK  status: ('A' for Active; 'I' for Inactive)
REMARK       I    between atoms: N_1  and  C_2 
REMARK    1  A    between atoms: C_2  and  C_3 
REMARK    2  A    between atoms: C_3  and  C_4 
REMARK    3  A    between atoms: C_3  and  N_6 
REMARK    4  A    between atoms: C_4  and  Se_5 
REMARK    5  A    between atoms: C_16  and  C_18 
ROOT
HETATM    1  N           1     -11.595   6.759 -20.512  0.00  0.00    -0.336 N 
HETATM    2  C           1     -11.811   5.486 -20.057  0.00  0.00     0.251 C 
HETATM    3  O           1     -11.673   5.232 -18.884  0.00  0.00    -0.271 OA
HETATM    4  C           1     -11.713   7.245 -21.884  0.00  0.00     0.127 C 
HETATM    5  C           1     -10.531   8.185 -22.040  0.00  0.00     0.022 C 
HETATM    6  C           1     -10.187   8.630 -20.622  0.00  0.00     0.038 C 
HETATM    7  C           1     -11.196   7.927 -19.731  0.00  0.00     0.188 C 
ENDROOT
BRANCH   2   8
HETATM    8  C           1     -12.221   4.400 -21.020  0.00  0.00     0.275 C 
BRANCH   8   9
HETATM    9  C           1     -13.674   4.019 -20.768  0.00  0.00     0.045 C 
BRANCH   9  10
HETATM   10 Se           1     -14.824   4.981 -22.013  0.00  0.00     0.000 Se
HETATM   11  H           1     -13.730   5.326 -22.937  0.00  0.00     0.000 HD
ENDBRANCH   9  10
ENDBRANCH   8   9
BRANCH   8  12
HETATM   12  N           1     -11.347   3.198 -20.820  0.00  0.00    -0.067 N 
HETATM   13  H           1     -11.942   2.340 -20.751  0.00  0.00     0.275 HD
HETATM   14  H           1     -10.694   3.104 -21.631  0.00  0.00     0.275 HD
HETATM   15  H           1     -10.796   3.311 -19.939  0.00  0.00     0.275 HD
ENDBRANCH   8  12
ENDBRANCH   2   8
BRANCH   7  16
HETATM   16  C           1     -12.382   8.818 -19.455  0.00  0.00     0.196 C 
HETATM   17  O           1     -12.340  10.028 -19.765  0.00  0.00    -0.646 OA
HETATM   18  O           1     -13.406   8.346 -18.916  0.00  0.00    -0.646 OA
ENDBRANCH   7  16
TORSDOF 5
ENDMDL
MODEL 8
REMARK VINA RESULT:      -5.0      2.600      3.348
REMARK  5 active torsions:
REMARK  status: ('A' for Active; 'I' for Inactive)
REMARK       I    between atoms: N_1  and  C_2 
REMARK    1  A    between atoms: C_2  and  C_3 
REMARK    2  A    between atoms: C_3  and  C_4 
REMARK    3  A    between atoms: C_3  and  N_6 
REMARK    4  A    between atoms: C_4  and  Se_5 
REMARK    5  A    between atoms: C_16  and  C_18 
ROOT
HETATM    1  N           1     -35.919  -1.028 -12.232  0.00  0.00    -0.336 N 
HETATM    2  C           1     -36.404  -0.679 -13.464  0.00  0.00     0.251 C 
HETATM    3  O           1     -37.595  -0.632 -13.653  0.00  0.00    -0.271 OA
HETATM    4  C           1     -34.521  -1.136 -11.825  0.00  0.00     0.127 C 
HETATM    5  C           1     -34.491  -2.379 -10.953  0.00  0.00     0.022 C 
HETATM    6  C           1     -35.918  -2.540 -10.441  0.00  0.00     0.038 C 
HETATM    7  C           1     -36.687  -1.376 -11.040  0.00  0.00     0.188 C 
ENDROOT
BRANCH   2   8
HETATM    8  C           1     -35.449  -0.350 -14.585  0.00  0.00     0.275 C 
BRANCH   8   9
HETATM    9  C           1     -35.088   1.128 -14.529  0.00  0.00     0.045 C 
BRANCH   9  10
HETATM   10 Se           1     -36.043   2.083 -15.934  0.00  0.00     0.000 Se
HETATM   11  H           1     -35.535   1.229 -17.020  0.00  0.00     0.000 HD
ENDBRANCH   9  10
ENDBRANCH   8   9
BRANCH   8  12
HETATM   12  N           1     -36.099  -0.657 -15.901  0.00  0.00    -0.067 N 
HETATM   13  H           1     -37.029  -0.181 -15.951  0.00  0.00     0.275 HD
HETATM   14  H           1     -35.490  -0.313 -16.678  0.00  0.00     0.275 HD
HETATM   15  H           1     -36.231  -1.690 -15.993  0.00  0.00     0.275 HD
ENDBRANCH   8  12
ENDBRANCH   2   8
BRANCH   7  16
HETATM   16  C           1     -36.740  -0.214 -10.078  0.00  0.00     0.196 C 
HETATM   17  O           1     -36.168  -0.294  -8.970  0.00  0.00    -0.646 OA
HETATM   18  O           1     -37.357   0.827 -10.390  0.00  0.00    -0.646 OA
ENDBRANCH   7  16
TORSDOF 5
ENDMDL
MODEL 9
REMARK VINA RESULT:      -5.0     24.947     25.856
REMARK  5 active torsions:
REMARK  status: ('A' for Active; 'I' for Inactive)
REMARK       I    between atoms: N_1  and  C_2 
REMARK    1  A    between atoms: C_2  and  C_3 
REMARK    2  A    between atoms: C_3  and  C_4 
REMARK    3  A    between atoms: C_3  and  N_6 
REMARK    4  A    between atoms: C_4  and  Se_5 
REMARK    5  A    between atoms: C_16  and  C_18 
ROOT
HETATM    1  N           1     -12.811   5.670 -21.048  0.00  0.00    -0.336 N 
HETATM    2  C           1     -11.919   6.429 -20.339  0.00  0.00     0.251 C 
HETATM    3  O           1     -11.680   6.161 -19.186  0.00  0.00    -0.271 OA
HETATM    4  C           1     -13.219   5.845 -22.439  0.00  0.00     0.127 C 
HETATM    5  C           1     -14.713   5.574 -22.416  0.00  0.00     0.022 C 
HETATM    6  C           1     -14.941   4.700 -21.188  0.00  0.00     0.038 C 
HETATM    7  C           1     -13.563   4.510 -20.577  0.00  0.00     0.188 C 
ENDROOT
BRANCH   2   8
HETATM    8  C           1     -11.233   7.599 -20.999  0.00  0.00     0.275 C 
BRANCH   8   9
HETATM    9  C           1      -9.746   7.570 -20.669  0.00  0.00     0.045 C 
BRANCH   9  10
HETATM   10 Se           1      -8.890   9.166 -21.389  0.00  0.00     0.000 Se
HETATM   11  H           1      -8.974   9.921 -20.128  0.00  0.00     0.000 HD
ENDBRANCH   9  10
ENDBRANCH   8   9
BRANCH   8  12
HETATM   12  N           1     -11.831   8.879 -20.495  0.00  0.00    -0.067 N 
HETATM   13  H           1     -11.408   9.688 -21.004  0.00  0.00     0.275 HD
HETATM   14  H           1     -12.864   8.867 -20.656  0.00  0.00     0.275 HD
HETATM   15  H           1     -11.640   8.973 -19.471  0.00  0.00     0.275 HD
ENDBRANCH   8  12
ENDBRANCH   2   8
BRANCH   7  16
HETATM   16  C           1     -12.932   3.228 -21.062  0.00  0.00     0.196 C 
HETATM   17  O           1     -11.695   3.070 -20.978  0.00  0.00    -0.646 OA
HETATM   18  O           1     -13.646   2.324 -21.547  0.00  0.00    -0.646 OA
ENDBRANCH   7  16
TORSDOF 5
ENDMDL
