MODEL 1
REMARK VINA RESULT:      -6.8      0.000      0.000
REMARK  7 active torsions:
REMARK  status: ('A' for Active; 'I' for Inactive)
REMARK    1  A    between atoms: C_3  and  C_15 
REMARK       I    between atoms: C_6  and  N_22 
REMARK    2  A    between atoms: C_6  and  C_15 
REMARK       I    between atoms: C_11  and  N_12 
REMARK    3  A    between atoms: C_11  and  C_13 
REMARK    4  A    between atoms: C_13  and  C_14 
REMARK    5  A    between atoms: C_14  and  C_19 
REMARK    6  A    between atoms: C_14  and  N_22 
REMARK    7  A    between atoms: C_15  and  N_16 
ROOT
HETATM    1  C           1     -34.710  -2.302 -12.609  0.00  0.00     0.249 C 
HETATM    2  O           1     -34.567  -1.677 -11.585  0.00  0.00    -0.271 OA
HETATM    3  H           1     -35.363  -2.220 -14.571  0.00  0.00     0.163 HD
HETATM    4  N           1     -35.242  -1.695 -13.714  0.00  0.00    -0.344 N 
ENDROOT
BRANCH   4   5
HETATM    5  C           1     -35.634  -0.300 -13.656  0.00  0.00     0.194 C 
BRANCH   5   6
HETATM    6  C           1     -35.435   0.339 -15.025  0.00  0.00     0.138 C 
BRANCH   6   7
HETATM    7  C           1     -35.643  -0.701 -16.100  0.00  0.00     0.217 C 
HETATM    8  O           1     -34.736  -1.434 -16.414  0.00  0.00    -0.274 OA
HETATM    9  N           1     -36.860  -0.813 -16.718  0.00  0.00    -0.370 N 
HETATM   10  H           1     -37.620  -0.199 -16.454  0.00  0.00     0.159 HD
HETATM   11  H           1     -36.999  -1.510 -17.438  0.00  0.00     0.159 HD
ENDBRANCH   6   7
ENDBRANCH   5   6
BRANCH   5  12
HETATM   12  C           1     -37.086  -0.201 -13.260  0.00  0.00     0.197 C 
HETATM   13  O           1     -37.403   0.324 -12.170  0.00  0.00    -0.646 OA
HETATM   14  O           1     -37.973  -0.646 -14.020  0.00  0.00    -0.646 OA
ENDBRANCH   5  12
ENDBRANCH   4   5
BRANCH   1  15
HETATM   15  C           1     -34.303  -3.754 -12.669  0.00  0.00     0.278 C 
BRANCH  15  16
HETATM   16  C           1     -33.316  -4.052 -11.548  0.00  0.00     0.017 C 
HETATM   17  C           1     -33.939  -5.038 -10.570  0.00  0.00     0.012 C 
HETATM   18  C           1     -32.047  -4.655 -12.136  0.00  0.00     0.012 C 
ENDBRANCH  15  16
BRANCH  15  19
HETATM   19  N           1     -33.655  -4.037 -13.992  0.00  0.00    -0.066 N 
HETATM   20  H           1     -32.703  -3.607 -14.013  0.00  0.00     0.275 HD
HETATM   21  H           1     -34.239  -3.632 -14.759  0.00  0.00     0.275 HD
HETATM   22  H           1     -33.573  -5.070 -14.127  0.00  0.00     0.275 HD
ENDBRANCH  15  19
ENDBRANCH   1  15
TORSDOF 7
ENDMDL
MODEL 2
REMARK VINA RESULT:      -6.6      1.962      3.110
REMARK  7 active torsions:
REMARK  status: ('A' for Active; 'I' for Inactive)
REMARK    1  A    between atoms: C_3  and  C_15 
REMARK       I    between atoms: C_6  and  N_22 
REMARK    2  A    between atoms: C_6  and  C_15 
REMARK       I    between atoms: C_11  and  N_12 
REMARK    3  A    between atoms: C_11  and  C_13 
REMARK    4  A    between atoms: C_13  and  C_14 
REMARK    5  A    between atoms: C_14  and  C_19 
REMARK    6  A    between atoms: C_14  and  N_22 
REMARK    7  A    between atoms: C_15  and  N_16 
ROOT
HETATM    1  C           1     -35.517  -1.132 -12.858  0.00  0.00     0.249 C 
HETATM    2  O           1     -36.719  -1.121 -12.738  0.00  0.00    -0.271 OA
HETATM    3  H           1     -33.932  -0.667 -14.106  0.00  0.00     0.163 HD
HETATM    4  N           1     -34.939  -0.657 -14.005  0.00  0.00    -0.344 N 
ENDROOT
BRANCH   4   5
HETATM    5  C           1     -35.771  -0.141 -15.075  0.00  0.00     0.194 C 
BRANCH   5   6
HETATM    6  C           1     -35.343   1.283 -15.406  0.00  0.00     0.138 C 
BRANCH   6   7
HETATM    7  C           1     -36.476   2.000 -16.100  0.00  0.00     0.217 C 
HETATM    8  O           1     -36.249   2.970 -16.783  0.00  0.00    -0.274 OA
HETATM    9  N           1     -37.762   1.549 -15.955  0.00  0.00    -0.370 N 
HETATM   10  H           1     -37.952   0.737 -15.383  0.00  0.00     0.159 HD
HETATM   11  H           1     -38.521   2.030 -16.420  0.00  0.00     0.159 HD
ENDBRANCH   6   7
ENDBRANCH   5   6
BRANCH   5  12
HETATM   12  C           1     -35.613  -1.011 -16.298  0.00  0.00     0.197 C 
HETATM   13  O           1     -36.512  -1.037 -17.167  0.00  0.00    -0.646 OA
HETATM   14  O           1     -34.585  -1.708 -16.442  0.00  0.00    -0.646 OA
ENDBRANCH   5  12
ENDBRANCH   4   5
BRANCH   1  15
HETATM   15  C           1     -34.652  -1.669 -11.744  0.00  0.00     0.278 C 
BRANCH  15  16
HETATM   16  C           1     -34.449  -3.166 -11.936  0.00  0.00     0.017 C 
HETATM   17  C           1     -33.001  -3.525 -11.633  0.00  0.00     0.012 C 
HETATM   18  C           1     -35.369  -3.927 -10.990  0.00  0.00     0.012 C 
ENDBRANCH  15  16
BRANCH  15  19
HETATM   19  N           1     -35.324  -1.420 -10.426  0.00  0.00    -0.066 N 
HETATM   20  H           1     -36.192  -1.998 -10.364  0.00  0.00     0.275 HD
HETATM   21  H           1     -35.571  -0.408 -10.348  0.00  0.00     0.275 HD
HETATM   22  H           1     -34.675  -1.681  -9.650  0.00  0.00     0.275 HD
ENDBRANCH  15  19
ENDBRANCH   1  15
TORSDOF 7
ENDMDL
MODEL 3
REMARK VINA RESULT:      -6.4     11.491     13.724
REMARK  7 active torsions:
REMARK  status: ('A' for Active; 'I' for Inactive)
REMARK    1  A    between atoms: C_3  and  C_15 
REMARK       I    between atoms: C_6  and  N_22 
REMARK    2  A    between atoms: C_6  and  C_15 
REMARK       I    between atoms: C_11  and  N_12 
REMARK    3  A    between atoms: C_11  and  C_13 
REMARK    4  A    between atoms: C_13  and  C_14 
REMARK    5  A    between atoms: C_14  and  C_19 
REMARK    6  A    between atoms: C_14  and  N_22 
REMARK    7  A    between atoms: C_15  and  N_16 
ROOT
HETATM    1  C           1     -22.302  -3.994  -7.953  0.00  0.00     0.249 C 
HETATM    2  O           1     -21.255  -3.573  -8.384  0.00  0.00    -0.271 OA
HETATM    3  H           1     -24.288  -4.374  -8.395  0.00  0.00     0.163 HD
HETATM    4  N           1     -23.411  -4.023  -8.756  0.00  0.00    -0.344 N 
ENDROOT
BRANCH   4   5
HETATM    5  C           1     -23.326  -3.549 -10.124  0.00  0.00     0.194 C 
BRANCH   5   6
HETATM    6  C           1     -22.695  -4.628 -10.995  0.00  0.00     0.138 C 
BRANCH   6   7
HETATM    7  C           1     -21.616  -4.013 -11.854  0.00  0.00     0.217 C 
HETATM    8  O           1     -20.469  -4.015 -11.476  0.00  0.00    -0.274 OA
HETATM    9  N           1     -21.939  -3.454 -13.062  0.00  0.00    -0.370 N 
HETATM   10  H           1     -22.900  -3.452 -13.379  0.00  0.00     0.159 HD
HETATM   11  H           1     -21.216  -3.042 -13.637  0.00  0.00     0.159 HD
ENDBRANCH   6   7
ENDBRANCH   5   6
BRANCH   5  12
HETATM   12  C           1     -24.712  -3.236 -10.634  0.00  0.00     0.197 C 
HETATM   13  O           1     -24.905  -3.070 -11.858  0.00  0.00    -0.646 OA
HETATM   14  O           1     -25.666  -3.141  -9.833  0.00  0.00    -0.646 OA
ENDBRANCH   5  12
ENDBRANCH   4   5
BRANCH   1  15
HETATM   15  C           1     -22.390  -4.487  -6.530  0.00  0.00     0.278 C 
BRANCH  15  16
HETATM   16  C           1     -21.312  -5.536  -6.289  0.00  0.00     0.017 C 
HETATM   17  C           1     -20.129  -4.896  -5.576  0.00  0.00     0.012 C 
HETATM   18  C           1     -21.879  -6.655  -5.425  0.00  0.00     0.012 C 
ENDBRANCH  15  16
BRANCH  15  19
HETATM   19  N           1     -23.740  -5.096  -6.294  0.00  0.00    -0.066 N 
HETATM   20  H           1     -24.392  -4.803  -7.056  0.00  0.00     0.275 HD
HETATM   21  H           1     -24.111  -4.773  -5.372  0.00  0.00     0.275 HD
HETATM   22  H           1     -23.657  -6.138  -6.289  0.00  0.00     0.275 HD
ENDBRANCH  15  19
ENDBRANCH   1  15
TORSDOF 7
ENDMDL
MODEL 4
REMARK VINA RESULT:      -5.9     11.268     13.448
REMARK  7 active torsions:
REMARK  status: ('A' for Active; 'I' for Inactive)
REMARK    1  A    between atoms: C_3  and  C_15 
REMARK       I    between atoms: C_6  and  N_22 
REMARK    2  A    between atoms: C_6  and  C_15 
REMARK       I    between atoms: C_11  and  N_12 
REMARK    3  A    between atoms: C_11  and  C_13 
REMARK    4  A    between atoms: C_13  and  C_14 
REMARK    5  A    between atoms: C_14  and  C_19 
REMARK    6  A    between atoms: C_14  and  N_22 
REMARK    7  A    between atoms: C_15  and  N_16 
ROOT
HETATM    1  C           1     -21.771  -4.274  -8.616  0.00  0.00     0.249 C 
HETATM    2  O           1     -22.155  -3.273  -8.059  0.00  0.00    -0.271 OA
HETATM    3  H           1     -21.903  -5.414 -10.338  0.00  0.00     0.163 HD
HETATM    4  N           1     -22.224  -4.575  -9.872  0.00  0.00    -0.344 N 
ENDROOT
BRANCH   4   5
HETATM    5  C           1     -23.164  -3.692 -10.534  0.00  0.00     0.194 C 
BRANCH   5   6
HETATM    6  C           1     -23.273  -4.079 -12.004  0.00  0.00     0.138 C 
BRANCH   6   7
HETATM    7  C           1     -24.081  -3.037 -12.739  0.00  0.00     0.217 C 
HETATM    8  O           1     -25.266  -3.200 -12.908  0.00  0.00    -0.274 OA
HETATM    9  N           1     -23.469  -1.908 -13.215  0.00  0.00    -0.370 N 
HETATM   10  H           1     -22.477  -1.771 -13.074  0.00  0.00     0.159 HD
HETATM   11  H           1     -24.011  -1.209 -13.708  0.00  0.00     0.159 HD
ENDBRANCH   6   7
ENDBRANCH   5   6
BRANCH   5  12
HETATM   12  C           1     -24.518  -3.816  -9.878  0.00  0.00     0.197 C 
HETATM   13  O           1     -25.114  -2.793  -9.478  0.00  0.00    -0.646 OA
HETATM   14  O           1     -25.042  -4.942  -9.735  0.00  0.00    -0.646 OA
ENDBRANCH   5  12
ENDBRANCH   4   5
BRANCH   1  15
HETATM   15  C           1     -20.793  -5.193  -7.926  0.00  0.00     0.278 C 
BRANCH  15  16
HETATM   16  C           1     -21.194  -5.360  -6.467  0.00  0.00     0.017 C 
HETATM   17  C           1     -21.258  -6.841  -6.123  0.00  0.00     0.012 C 
HETATM   18  C           1     -20.164  -4.677  -5.577  0.00  0.00     0.012 C 
ENDBRANCH  15  16
BRANCH  15  19
HETATM   19  N           1     -19.415  -4.603  -8.001  0.00  0.00    -0.066 N 
HETATM   20  H           1     -19.400  -3.844  -8.718  0.00  0.00     0.275 HD
HETATM   21  H           1     -18.732  -5.349  -8.266  0.00  0.00     0.275 HD
HETATM   22  H           1     -19.154  -4.208  -7.070  0.00  0.00     0.275 HD
ENDBRANCH  15  19
ENDBRANCH   1  15
TORSDOF 7
ENDMDL
MODEL 5
REMARK VINA RESULT:      -5.9      1.778      5.030
REMARK  7 active torsions:
REMARK  status: ('A' for Active; 'I' for Inactive)
REMARK    1  A    between atoms: C_3  and  C_15 
REMARK       I    between atoms: C_6  and  N_22 
REMARK    2  A    between atoms: C_6  and  C_15 
REMARK       I    between atoms: C_11  and  N_12 
REMARK    3  A    between atoms: C_11  and  C_13 
REMARK    4  A    between atoms: C_13  and  C_14 
REMARK    5  A    between atoms: C_14  and  C_19 
REMARK    6  A    between atoms: C_14  and  N_22 
REMARK    7  A    between atoms: C_15  and  N_16 
ROOT
HETATM    1  C           1     -36.021  -0.843 -13.273  0.00  0.00     0.249 C 
HETATM    2  O           1     -37.028  -1.116 -12.664  0.00  0.00    -0.271 OA
HETATM    3  H           1     -33.989  -1.203 -13.441  0.00  0.00     0.163 HD
HETATM    4  N           1     -34.833  -1.432 -12.932  0.00  0.00    -0.344 N 
ENDROOT
BRANCH   4   5
HETATM    5  C           1     -34.786  -2.386 -11.840  0.00  0.00     0.194 C 
BRANCH   5   6
HETATM    6  C           1     -33.758  -3.466 -12.157  0.00  0.00     0.138 C 
BRANCH   6   7
HETATM    7  C           1     -34.276  -4.341 -13.273  0.00  0.00     0.217 C 
HETATM    8  O           1     -34.248  -3.944 -14.414  0.00  0.00    -0.274 OA
HETATM    9  N           1     -34.776  -5.584 -12.992  0.00  0.00    -0.370 N 
HETATM   10  H           1     -34.800  -5.916 -12.036  0.00  0.00     0.159 HD
HETATM   11  H           1     -35.123  -6.170 -13.740  0.00  0.00     0.159 HD
ENDBRANCH   6   7
ENDBRANCH   5   6
BRANCH   5  12
HETATM   12  C           1     -34.394  -1.675 -10.568  0.00  0.00     0.197 C 
HETATM   13  O           1     -35.272  -1.148  -9.852  0.00  0.00    -0.646 OA
HETATM   14  O           1     -33.192  -1.613 -10.232  0.00  0.00    -0.646 OA
ENDBRANCH   5  12
ENDBRANCH   4   5
BRANCH   1  15
HETATM   15  C           1     -36.071   0.150 -14.408  0.00  0.00     0.278 C 
BRANCH  15  16
HETATM   16  C           1     -37.023  -0.356 -15.484  0.00  0.00     0.017 C 
HETATM   17  C           1     -38.007   0.745 -15.850  0.00  0.00     0.012 C 
HETATM   18  C           1     -36.226  -0.756 -16.719  0.00  0.00     0.012 C 
ENDBRANCH  15  16
BRANCH  15  19
HETATM   19  N           1     -34.698   0.310 -14.992  0.00  0.00    -0.066 N 
HETATM   20  H           1     -34.574   1.293 -15.326  0.00  0.00     0.275 HD
HETATM   21  H           1     -34.583  -0.350 -15.795  0.00  0.00     0.275 HD
HETATM   22  H           1     -33.982   0.098 -14.262  0.00  0.00     0.275 HD
ENDBRANCH  15  19
ENDBRANCH   1  15
TORSDOF 7
ENDMDL
MODEL 6
REMARK VINA RESULT:      -5.6     12.919     15.879
REMARK  7 active torsions:
REMARK  status: ('A' for Active; 'I' for Inactive)
REMARK    1  A    between atoms: C_3  and  C_15 
REMARK       I    between atoms: C_6  and  N_22 
REMARK    2  A    between atoms: C_6  and  C_15 
REMARK       I    between atoms: C_11  and  N_12 
REMARK    3  A    between atoms: C_11  and  C_13 
REMARK    4  A    between atoms: C_13  and  C_14 
REMARK    5  A    between atoms: C_14  and  C_19 
REMARK    6  A    between atoms: C_14  and  N_22 
REMARK    7  A    between atoms: C_15  and  N_16 
ROOT
HETATM    1  C           1     -22.330  -4.260  -8.201  0.00  0.00     0.249 C 
HETATM    2  O           1     -21.948  -3.245  -7.668  0.00  0.00    -0.271 OA
HETATM    3  H           1     -22.238  -6.328  -8.178  0.00  0.00     0.163 HD
HETATM    4  N           1     -21.919  -5.478  -7.730  0.00  0.00    -0.344 N 
ENDROOT
BRANCH   4   5
HETATM    5  C           1     -21.026  -5.549  -6.590  0.00  0.00     0.194 C 
BRANCH   5   6
HETATM    6  C           1     -21.410  -6.739  -5.720  0.00  0.00     0.138 C 
BRANCH   6   7
HETATM    7  C           1     -22.462  -6.315  -4.724  0.00  0.00     0.217 C 
HETATM    8  O           1     -23.576  -6.040  -5.101  0.00  0.00    -0.274 OA
HETATM    9  N           1     -22.153  -6.242  -3.391  0.00  0.00    -0.370 N 
HETATM   10  H           1     -21.219  -6.473  -3.075  0.00  0.00     0.159 HD
HETATM   11  H           1     -22.858  -5.958  -2.724  0.00  0.00     0.159 HD
ENDBRANCH   6   7
ENDBRANCH   5   6
BRANCH   5  12
HETATM   12  C           1     -19.606  -5.715  -7.073  0.00  0.00     0.197 C 
HETATM   13  O           1     -19.120  -6.860  -7.204  0.00  0.00    -0.646 OA
HETATM   14  O           1     -18.915  -4.709  -7.340  0.00  0.00    -0.646 OA
ENDBRANCH   5  12
ENDBRANCH   4   5
BRANCH   1  15
HETATM   15  C           1     -23.259  -4.185  -9.388  0.00  0.00     0.278 C 
BRANCH  15  16
HETATM   16  C           1     -22.571  -3.443 -10.526  0.00  0.00     0.017 C 
HETATM   17  C           1     -21.525  -4.347 -11.164  0.00  0.00     0.012 C 
HETATM   18  C           1     -23.605  -3.048 -11.572  0.00  0.00     0.012 C 
ENDBRANCH  15  16
BRANCH  15  19
HETATM   19  N           1     -24.509  -3.453  -8.998  0.00  0.00    -0.066 N 
HETATM   20  H           1     -24.289  -2.442  -8.852  0.00  0.00     0.275 HD
HETATM   21  H           1     -24.889  -3.861  -8.114  0.00  0.00     0.275 HD
HETATM   22  H           1     -25.220  -3.548  -9.758  0.00  0.00     0.275 HD
ENDBRANCH  15  19
ENDBRANCH   1  15
TORSDOF 7
ENDMDL
MODEL 7
REMARK VINA RESULT:      -5.5     11.845     14.311
REMARK  7 active torsions:
REMARK  status: ('A' for Active; 'I' for Inactive)
REMARK    1  A    between atoms: C_3  and  C_15 
REMARK       I    between atoms: C_6  and  N_22 
REMARK    2  A    between atoms: C_6  and  C_15 
REMARK       I    between atoms: C_11  and  N_12 
REMARK    3  A    between atoms: C_11  and  C_13 
REMARK    4  A    between atoms: C_13  and  C_14 
REMARK    5  A    between atoms: C_14  and  C_19 
REMARK    6  A    between atoms: C_14  and  N_22 
REMARK    7  A    between atoms: C_15  and  N_16 
ROOT
HETATM    1  C           1     -22.233  -4.599  -7.917  0.00  0.00     0.249 C 
HETATM    2  O           1     -23.440  -4.560  -7.875  0.00  0.00    -0.271 OA
HETATM    3  H           1     -20.573  -4.481  -9.148  0.00  0.00     0.163 HD
HETATM    4  N           1     -21.584  -4.447  -9.112  0.00  0.00    -0.344 N 
ENDROOT
BRANCH   4   5
HETATM    5  C           1     -22.346  -4.239 -10.329  0.00  0.00     0.194 C 
BRANCH   5   6
HETATM    6  C           1     -23.180  -2.971 -10.192  0.00  0.00     0.138 C 
BRANCH   6   7
HETATM    7  C           1     -24.601  -3.256 -10.612  0.00  0.00     0.217 C 
HETATM    8  O           1     -24.934  -3.099 -11.762  0.00  0.00    -0.274 OA
HETATM    9  N           1     -25.513  -3.694  -9.689  0.00  0.00    -0.370 N 
HETATM   10  H           1     -25.234  -3.826  -8.725  0.00  0.00     0.159 HD
HETATM   11  H           1     -26.466  -3.885  -9.970  0.00  0.00     0.159 HD
ENDBRANCH   6   7
ENDBRANCH   5   6
BRANCH   5  12
HETATM   12  C           1     -21.401  -4.096 -11.496  0.00  0.00     0.197 C 
HETATM   13  O           1     -20.183  -4.335 -11.347  0.00  0.00    -0.646 OA
HETATM   14  O           1     -21.835  -3.739 -12.612  0.00  0.00    -0.646 OA
ENDBRANCH   5  12
ENDBRANCH   4   5
BRANCH   1  15
HETATM   15  C           1     -21.440  -4.816  -6.651  0.00  0.00     0.278 C 
BRANCH  15  16
HETATM   16  C           1     -20.189  -5.624  -6.968  0.00  0.00     0.017 C 
HETATM   17  C           1     -18.970  -4.713  -6.919  0.00  0.00     0.012 C 
HETATM   18  C           1     -20.031  -6.737  -5.941  0.00  0.00     0.012 C 
ENDBRANCH  15  16
BRANCH  15  19
HETATM   19  N           1     -22.279  -5.565  -5.658  0.00  0.00    -0.066 N 
HETATM   20  H           1     -21.943  -5.357  -4.691  0.00  0.00     0.275 HD
HETATM   21  H           1     -22.204  -6.591  -5.843  0.00  0.00     0.275 HD
HETATM   22  H           1     -23.277  -5.268  -5.751  0.00  0.00     0.275 HD
ENDBRANCH  15  19
ENDBRANCH   1  15
TORSDOF 7
ENDMDL
MODEL 8
REMARK VINA RESULT:      -5.4     14.335     16.968
REMARK  7 active torsions:
REMARK  status: ('A' for Active; 'I' for Inactive)
REMARK    1  A    between atoms: C_3  and  C_15 
REMARK       I    between atoms: C_6  and  N_22 
REMARK    2  A    between atoms: C_6  and  C_15 
REMARK       I    between atoms: C_11  and  N_12 
REMARK    3  A    between atoms: C_11  and  C_13 
REMARK    4  A    between atoms: C_13  and  C_14 
REMARK    5  A    between atoms: C_14  and  C_19 
REMARK    6  A    between atoms: C_14  and  N_22 
REMARK    7  A    between atoms: C_15  and  N_16 
ROOT
HETATM    1  C           1     -21.480  -6.482  -4.233  0.00  0.00     0.249 C 
HETATM    2  O           1     -22.085  -7.353  -4.811  0.00  0.00    -0.271 OA
HETATM    3  H           1     -20.435  -4.708  -4.455  0.00  0.00     0.163 HD
HETATM    4  N           1     -20.943  -5.437  -4.938  0.00  0.00    -0.344 N 
ENDROOT
BRANCH   4   5
HETATM    5  C           1     -21.103  -5.378  -6.378  0.00  0.00     0.194 C 
BRANCH   5   6
HETATM    6  C           1     -21.537  -3.974  -6.782  0.00  0.00     0.138 C 
BRANCH   6   7
HETATM    7  C           1     -22.336  -4.043  -8.060  0.00  0.00     0.217 C 
HETATM    8  O           1     -23.526  -4.247  -8.019  0.00  0.00    -0.274 OA
HETATM    9  N           1     -21.712  -3.873  -9.267  0.00  0.00    -0.370 N 
HETATM   10  H           1     -20.715  -3.702  -9.302  0.00  0.00     0.159 HD
HETATM   11  H           1     -22.247  -3.919 -10.125  0.00  0.00     0.159 HD
ENDBRANCH   6   7
ENDBRANCH   5   6
BRANCH   5  12
HETATM   12  C           1     -19.791  -5.711  -7.044  0.00  0.00     0.197 C 
HETATM   13  O           1     -19.373  -6.889  -7.049  0.00  0.00    -0.646 OA
HETATM   14  O           1     -19.120  -4.808  -7.590  0.00  0.00    -0.646 OA
ENDBRANCH   5  12
ENDBRANCH   4   5
BRANCH   1  15
HETATM   15  C           1     -21.313  -6.544  -2.735  0.00  0.00     0.278 C 
BRANCH  15  16
HETATM   16  C           1     -21.358  -7.996  -2.279  0.00  0.00     0.017 C 
HETATM   17  C           1     -19.943  -8.555  -2.222  0.00  0.00     0.012 C 
HETATM   18  C           1     -21.989  -8.073  -0.895  0.00  0.00     0.012 C 
ENDBRANCH  15  16
BRANCH  15  19
HETATM   19  N           1     -22.424  -5.779  -2.077  0.00  0.00    -0.066 N 
HETATM   20  H           1     -23.344  -6.159  -2.395  0.00  0.00     0.275 HD
HETATM   21  H           1     -22.352  -4.769  -2.338  0.00  0.00     0.275 HD
HETATM   22  H           1     -22.347  -5.876  -1.040  0.00  0.00     0.275 HD
ENDBRANCH  15  19
ENDBRANCH   1  15
TORSDOF 7
ENDMDL
MODEL 9
REMARK VINA RESULT:      -5.3     24.778     26.000
REMARK  7 active torsions:
REMARK  status: ('A' for Active; 'I' for Inactive)
REMARK    1  A    between atoms: C_3  and  C_15 
REMARK       I    between atoms: C_6  and  N_22 
REMARK    2  A    between atoms: C_6  and  C_15 
REMARK       I    between atoms: C_11  and  N_12 
REMARK    3  A    between atoms: C_11  and  C_13 
REMARK    4  A    between atoms: C_13  and  C_14 
REMARK    5  A    between atoms: C_14  and  C_19 
REMARK    6  A    between atoms: C_14  and  N_22 
REMARK    7  A    between atoms: C_15  and  N_16 
ROOT
HETATM    1  C           1     -12.538   6.241 -20.446  0.00  0.00     0.249 C 
HETATM    2  O           1     -13.200   6.806 -21.284  0.00  0.00    -0.271 OA
HETATM    3  H           1     -10.931   6.415 -19.152  0.00  0.00     0.163 HD
HETATM    4  N           1     -11.487   6.888 -19.853  0.00  0.00    -0.344 N 
ENDROOT
BRANCH   4   5
HETATM    5  C           1     -11.170   8.252 -20.231  0.00  0.00     0.194 C 
BRANCH   5   6
HETATM    6  C           1     -11.409   9.175 -19.043  0.00  0.00     0.138 C 
BRANCH   6   7
HETATM    7  C           1     -12.876   9.519 -18.961  0.00  0.00     0.217 C 
HETATM    8  O           1     -13.638   8.783 -18.380  0.00  0.00    -0.274 OA
HETATM    9  N           1     -13.344  10.666 -19.546  0.00  0.00    -0.370 N 
HETATM   10  H           1     -12.706  11.282 -20.032  0.00  0.00     0.159 HD
HETATM   11  H           1     -14.327  10.896 -19.491  0.00  0.00     0.159 HD
ENDBRANCH   6   7
ENDBRANCH   5   6
BRANCH   5  12
HETATM   12  C           1      -9.722   8.334 -20.650  0.00  0.00     0.197 C 
HETATM   13  O           1      -9.219   9.438 -20.947  0.00  0.00    -0.646 OA
HETATM   14  O           1      -9.026   7.296 -20.701  0.00  0.00    -0.646 OA
ENDBRANCH   5  12
ENDBRANCH   4   5
BRANCH   1  15
HETATM   15  C           1     -12.868   4.822 -20.053  0.00  0.00     0.278 C 
BRANCH  15  16
HETATM   16  C           1     -12.216   3.858 -21.035  0.00  0.00     0.017 C 
HETATM   17  C           1     -11.088   3.109 -20.340  0.00  0.00     0.012 C 
HETATM   18  C           1     -13.255   2.862 -21.532  0.00  0.00     0.012 C 
ENDBRANCH  15  16
BRANCH  15  19
HETATM   19  N           1     -14.355   4.630 -20.078  0.00  0.00    -0.066 N 
HETATM   20  H           1     -14.800   5.418 -20.601  0.00  0.00     0.275 HD
HETATM   21  H           1     -14.720   4.611 -19.098  0.00  0.00     0.275 HD
HETATM   22  H           1     -14.583   3.727 -20.550  0.00  0.00     0.275 HD
ENDBRANCH  15  19
ENDBRANCH   1  15
TORSDOF 7
ENDMDL
