MODEL 1
REMARK VINA RESULT:      -7.9      0.000      0.000
REMARK  11 active torsions:
REMARK  status: ('A' for Active; 'I' for Inactive)
REMARK    1  A    between atoms: C_5  and  O_6 
REMARK    2  A    between atoms: C_5  and  C_7 
REMARK    3  A    between atoms: C_7  and  C_8 
REMARK    4  A    between atoms: C_7  and  N_11 
REMARK       I    between atoms: N_11  and  C_12 
REMARK    5  A    between atoms: C_12  and  C_13 
REMARK    6  A    between atoms: C_13  and  C_14 
REMARK    7  A    between atoms: C_13  and  N_26 
REMARK    8  A    between atoms: C_14  and  C_15 
REMARK    9  A    between atoms: C_18  and  O_19 
REMARK   10  A    between atoms: O_19  and  P_20 
REMARK   11  A    between atoms: P_20  and  O_21 
ROOT
HETATM    1  C           1     -20.830  -4.830  -6.515  0.00  0.00     0.278 C 
ENDROOT
BRANCH   1   2
HETATM    2  C           1     -21.556  -5.787  -5.602  0.00  0.00     0.249 C 
HETATM    3  N           1     -20.848  -6.609  -4.768  0.00  0.00    -0.343 N 
HETATM    4  H           1     -19.836  -6.575  -4.764  0.00  0.00     0.163 HD
HETATM    5  O           1     -22.764  -5.829  -5.608  0.00  0.00    -0.271 OA
BRANCH   3   6
HETATM    6  C           1     -21.545  -7.530  -3.891  0.00  0.00     0.214 C 
BRANCH   6   7
HETATM    7  C           1     -20.800  -8.857  -3.851  0.00  0.00     0.147 C 
HETATM    8  C           1     -21.270  -9.738  -5.001  0.00  0.00     0.042 C 
BRANCH   7   9
HETATM    9  O           1     -19.423  -8.624  -3.975  0.00  0.00    -0.393 OA
HETATM   10  H           1     -19.321  -7.734  -4.267  0.00  0.00     0.210 HD
ENDBRANCH   7   9
ENDBRANCH   6   7
BRANCH   6  11
HETATM   11  C           1     -21.609  -6.948  -2.500  0.00  0.00     0.199 C 
HETATM   12  O           1     -20.897  -7.426  -1.590  0.00  0.00    -0.646 OA
HETATM   13  O           1     -22.374  -5.989  -2.257  0.00  0.00    -0.646 OA
ENDBRANCH   6  11
ENDBRANCH   3   6
ENDBRANCH   1   2
BRANCH   1  14
HETATM   14  C           1     -20.554  -5.510  -7.850  0.00  0.00     0.081 C 
BRANCH  14  15
HETATM   15  C           1     -21.165  -4.706  -8.955  0.00  0.00    -0.056 A 
HETATM   16  C           1     -22.475  -4.242  -8.839  0.00  0.00     0.010 A 
HETATM   17  C           1     -23.044  -3.492  -9.868  0.00  0.00     0.038 A 
HETATM   18  C           1     -22.302  -3.207 -11.015  0.00  0.00     0.081 A 
HETATM   19  C           1     -20.991  -3.671 -11.131  0.00  0.00     0.038 A 
HETATM   20  C           1     -20.423  -4.420 -10.101  0.00  0.00     0.010 A 
BRANCH  18  21
HETATM   21  O           1     -22.855  -2.479 -12.015  0.00  0.00    -0.247 OA
BRANCH  21  22
HETATM   22  P           1     -23.928  -3.206 -12.978  0.00  0.00     0.411 P 
HETATM   23  O           1     -25.298  -2.860 -12.538  0.00  0.00    -0.624 OA
HETATM   24  O           1     -23.727  -2.753 -14.373  0.00  0.00    -0.624 OA
BRANCH  22  25
HETATM   25  O           1     -23.727  -4.807 -12.899  0.00  0.00    -0.300 OA
HETATM   26  H           1     -24.599  -5.161 -12.879  0.00  0.00     0.223 HD
ENDBRANCH  22  25
ENDBRANCH  21  22
ENDBRANCH  18  21
ENDBRANCH  14  15
ENDBRANCH   1  14
BRANCH   1  27
HETATM   27  N           1     -19.532  -4.426  -5.883  0.00  0.00    -0.066 N 
HETATM   28  H           1     -19.469  -4.834  -4.923  0.00  0.00     0.275 HD
HETATM   29  H           1     -19.483  -3.384  -5.823  0.00  0.00     0.275 HD
HETATM   30  H           1     -18.736  -4.778  -6.463  0.00  0.00     0.275 HD
ENDBRANCH   1  27
TORSDOF 11
ENDMDL
MODEL 2
REMARK VINA RESULT:      -7.4      1.064      1.761
REMARK  11 active torsions:
REMARK  status: ('A' for Active; 'I' for Inactive)
REMARK    1  A    between atoms: C_5  and  O_6 
REMARK    2  A    between atoms: C_5  and  C_7 
REMARK    3  A    between atoms: C_7  and  C_8 
REMARK    4  A    between atoms: C_7  and  N_11 
REMARK       I    between atoms: N_11  and  C_12 
REMARK    5  A    between atoms: C_12  and  C_13 
REMARK    6  A    between atoms: C_13  and  C_14 
REMARK    7  A    between atoms: C_13  and  N_26 
REMARK    8  A    between atoms: C_14  and  C_15 
REMARK    9  A    between atoms: C_18  and  O_19 
REMARK   10  A    between atoms: O_19  and  P_20 
REMARK   11  A    between atoms: P_20  and  O_21 
ROOT
HETATM    1  C           1     -20.963  -4.681  -7.208  0.00  0.00     0.278 C 
ENDROOT
BRANCH   1   2
HETATM    2  C           1     -21.808  -5.404  -6.188  0.00  0.00     0.249 C 
HETATM    3  N           1     -21.226  -6.289  -5.320  0.00  0.00    -0.343 N 
HETATM    4  H           1     -20.229  -6.457  -5.363  0.00  0.00     0.163 HD
HETATM    5  O           1     -22.998  -5.203  -6.137  0.00  0.00    -0.271 OA
BRANCH   3   6
HETATM    6  C           1     -22.038  -6.984  -4.340  0.00  0.00     0.214 C 
BRANCH   6   7
HETATM    7  C           1     -21.641  -8.454  -4.303  0.00  0.00     0.147 C 
HETATM    8  C           1     -20.312  -8.640  -5.025  0.00  0.00     0.042 C 
BRANCH   7   9
HETATM    9  O           1     -21.509  -8.869  -2.970  0.00  0.00    -0.393 OA
HETATM   10  H           1     -22.211  -9.474  -2.802  0.00  0.00     0.210 HD
ENDBRANCH   7   9
ENDBRANCH   6   7
BRANCH   6  11
HETATM   11  C           1     -21.820  -6.370  -2.980  0.00  0.00     0.199 C 
HETATM   12  O           1     -20.658  -6.200  -2.551  0.00  0.00    -0.646 OA
HETATM   13  O           1     -22.800  -6.033  -2.281  0.00  0.00    -0.646 OA
ENDBRANCH   6  11
ENDBRANCH   3   6
ENDBRANCH   1   2
BRANCH   1  14
HETATM   14  C           1     -21.023  -5.423  -8.537  0.00  0.00     0.081 C 
BRANCH  14  15
HETATM   15  C           1     -21.482  -4.487  -9.611  0.00  0.00    -0.056 A 
HETATM   16  C           1     -20.622  -4.146 -10.654  0.00  0.00     0.010 A 
HETATM   17  C           1     -21.050  -3.274 -11.656  0.00  0.00     0.038 A 
HETATM   18  C           1     -22.340  -2.744 -11.613  0.00  0.00     0.081 A 
HETATM   19  C           1     -23.201  -3.086 -10.570  0.00  0.00     0.038 A 
HETATM   20  C           1     -22.772  -3.957  -9.569  0.00  0.00     0.010 A 
BRANCH  18  21
HETATM   21  O           1     -22.756  -1.897 -12.586  0.00  0.00    -0.247 OA
BRANCH  21  22
HETATM   22  P           1     -23.588  -2.516 -13.824  0.00  0.00     0.411 P 
HETATM   23  O           1     -22.653  -2.873 -14.915  0.00  0.00    -0.624 OA
HETATM   24  O           1     -24.311  -3.728 -13.377  0.00  0.00    -0.624 OA
BRANCH  22  25
HETATM   25  O           1     -24.650  -1.424 -14.361  0.00  0.00    -0.300 OA
HETATM   26  H           1     -24.177  -0.919 -15.001  0.00  0.00     0.223 HD
ENDBRANCH  22  25
ENDBRANCH  21  22
ENDBRANCH  18  21
ENDBRANCH  14  15
ENDBRANCH   1  14
BRANCH   1  27
HETATM   27  N           1     -19.543  -4.625  -6.731  0.00  0.00    -0.066 N 
HETATM   28  H           1     -19.236  -5.580  -6.438  0.00  0.00     0.275 HD
HETATM   29  H           1     -19.474  -3.972  -5.918  0.00  0.00     0.275 HD
HETATM   30  H           1     -18.927  -4.284  -7.504  0.00  0.00     0.275 HD
ENDBRANCH   1  27
TORSDOF 11
ENDMDL
MODEL 3
REMARK VINA RESULT:      -7.2      3.542      8.992
REMARK  11 active torsions:
REMARK  status: ('A' for Active; 'I' for Inactive)
REMARK    1  A    between atoms: C_5  and  O_6 
REMARK    2  A    between atoms: C_5  and  C_7 
REMARK    3  A    between atoms: C_7  and  C_8 
REMARK    4  A    between atoms: C_7  and  N_11 
REMARK       I    between atoms: N_11  and  C_12 
REMARK    5  A    between atoms: C_12  and  C_13 
REMARK    6  A    between atoms: C_13  and  C_14 
REMARK    7  A    between atoms: C_13  and  N_26 
REMARK    8  A    between atoms: C_14  and  C_15 
REMARK    9  A    between atoms: C_18  and  O_19 
REMARK   10  A    between atoms: O_19  and  P_20 
REMARK   11  A    between atoms: P_20  and  O_21 
ROOT
HETATM    1  C           1     -20.994  -5.639  -6.890  0.00  0.00     0.278 C 
ENDROOT
BRANCH   1   2
HETATM    2  C           1     -21.616  -4.458  -7.595  0.00  0.00     0.249 C 
HETATM    3  N           1     -22.239  -4.631  -8.801  0.00  0.00    -0.343 N 
HETATM    4  H           1     -22.282  -5.551  -9.221  0.00  0.00     0.163 HD
HETATM    5  O           1     -21.564  -3.359  -7.095  0.00  0.00    -0.271 OA
BRANCH   3   6
HETATM    6  C           1     -22.837  -3.496  -9.479  0.00  0.00     0.214 C 
BRANCH   6   7
HETATM    7  C           1     -22.165  -3.302 -10.832  0.00  0.00     0.147 C 
HETATM    8  C           1     -21.210  -4.458 -11.097  0.00  0.00     0.042 C 
BRANCH   7   9
HETATM    9  O           1     -23.141  -3.263 -11.838  0.00  0.00    -0.393 OA
HETATM   10  H           1     -23.864  -3.787 -11.537  0.00  0.00     0.210 HD
ENDBRANCH   7   9
ENDBRANCH   6   7
BRANCH   6  11
HETATM   11  C           1     -24.310  -3.751  -9.682  0.00  0.00     0.199 C 
HETATM   12  O           1     -24.713  -4.902  -9.958  0.00  0.00    -0.646 OA
HETATM   13  O           1     -25.128  -2.811  -9.575  0.00  0.00    -0.646 OA
ENDBRANCH   6  11
ENDBRANCH   3   6
ENDBRANCH   1   2
BRANCH   1  14
HETATM   14  C           1     -20.653  -5.253  -5.457  0.00  0.00     0.081 C 
BRANCH  14  15
HETATM   15  C           1     -21.029  -6.372  -4.536  0.00  0.00    -0.056 A 
HETATM   16  C           1     -21.155  -7.670  -5.030  0.00  0.00     0.010 A 
HETATM   17  C           1     -21.505  -8.713  -4.171  0.00  0.00     0.038 A 
HETATM   18  C           1     -21.728  -8.456  -2.819  0.00  0.00     0.081 A 
HETATM   19  C           1     -21.600  -7.158  -2.324  0.00  0.00     0.038 A 
HETATM   20  C           1     -21.251  -6.116  -3.183  0.00  0.00     0.010 A 
BRANCH  18  21
HETATM   21  O           1     -22.067  -9.469  -1.985  0.00  0.00    -0.247 OA
BRANCH  21  22
HETATM   22  P           1     -20.902 -10.133  -1.085  0.00  0.00     0.411 P 
HETATM   23  O           1     -21.134 -11.590  -0.976  0.00  0.00    -0.624 OA
HETATM   24  O           1     -19.588  -9.888  -1.721  0.00  0.00    -0.624 OA
BRANCH  22  25
HETATM   25  O           1     -20.916  -9.473   0.390  0.00  0.00    -0.300 OA
HETATM   26  H           1     -21.173  -8.578   0.253  0.00  0.00     0.223 HD
ENDBRANCH  22  25
ENDBRANCH  21  22
ENDBRANCH  18  21
ENDBRANCH  14  15
ENDBRANCH   1  14
BRANCH   1  27
HETATM   27  N           1     -19.744  -6.047  -7.609  0.00  0.00    -0.066 N 
HETATM   28  H           1     -19.808  -5.759  -8.612  0.00  0.00     0.275 HD
HETATM   29  H           1     -19.632  -7.085  -7.551  0.00  0.00     0.275 HD
HETATM   30  H           1     -18.919  -5.583  -7.166  0.00  0.00     0.275 HD
ENDBRANCH   1  27
TORSDOF 11
ENDMDL
MODEL 4
REMARK VINA RESULT:      -7.2      1.965      2.854
REMARK  11 active torsions:
REMARK  status: ('A' for Active; 'I' for Inactive)
REMARK    1  A    between atoms: C_5  and  O_6 
REMARK    2  A    between atoms: C_5  and  C_7 
REMARK    3  A    between atoms: C_7  and  C_8 
REMARK    4  A    between atoms: C_7  and  N_11 
REMARK       I    between atoms: N_11  and  C_12 
REMARK    5  A    between atoms: C_12  and  C_13 
REMARK    6  A    between atoms: C_13  and  C_14 
REMARK    7  A    between atoms: C_13  and  N_26 
REMARK    8  A    between atoms: C_14  and  C_15 
REMARK    9  A    between atoms: C_18  and  O_19 
REMARK   10  A    between atoms: O_19  and  P_20 
REMARK   11  A    between atoms: P_20  and  O_21 
ROOT
HETATM    1  C           1     -21.416  -6.695  -5.493  0.00  0.00     0.278 C 
ENDROOT
BRANCH   1   2
HETATM    2  C           1     -20.707  -7.568  -4.487  0.00  0.00     0.249 C 
HETATM    3  N           1     -21.264  -7.783  -3.255  0.00  0.00    -0.343 N 
HETATM    4  H           1     -22.150  -7.356  -3.019  0.00  0.00     0.163 HD
HETATM    5  O           1     -19.648  -8.077  -4.769  0.00  0.00    -0.271 OA
BRANCH   3   6
HETATM    6  C           1     -20.582  -8.622  -2.288  0.00  0.00     0.214 C 
BRANCH   6   7
HETATM    7  C           1     -20.924  -8.154  -0.880  0.00  0.00     0.147 C 
HETATM    8  C           1     -22.091  -7.177  -0.938  0.00  0.00     0.042 C 
BRANCH   7   9
HETATM    9  O           1     -21.280  -9.259  -0.093  0.00  0.00    -0.393 OA
HETATM   10  H           1     -20.492  -9.559   0.329  0.00  0.00     0.210 HD
ENDBRANCH   7   9
ENDBRANCH   6   7
BRANCH   6  11
HETATM   11  C           1     -21.027 -10.053  -2.463  0.00  0.00     0.199 C 
HETATM   12  O           1     -20.196 -10.983  -2.363  0.00  0.00    -0.646 OA
HETATM   13  O           1     -22.226 -10.311  -2.708  0.00  0.00    -0.646 OA
ENDBRANCH   6  11
ENDBRANCH   3   6
ENDBRANCH   1   2
BRANCH   1  14
HETATM   14  C           1     -20.576  -5.455  -5.771  0.00  0.00     0.081 C 
BRANCH  14  15
HETATM   15  C           1     -20.943  -4.893  -7.109  0.00  0.00    -0.056 A 
HETATM   16  C           1     -22.090  -4.112  -7.248  0.00  0.00     0.010 A 
HETATM   17  C           1     -22.431  -3.588  -8.495  0.00  0.00     0.038 A 
HETATM   18  C           1     -21.624  -3.846  -9.604  0.00  0.00     0.081 A 
HETATM   19  C           1     -20.475  -4.626  -9.465  0.00  0.00     0.038 A 
HETATM   20  C           1     -20.135  -5.149  -8.217  0.00  0.00     0.010 A 
BRANCH  18  21
HETATM   21  O           1     -21.955  -3.337 -10.815  0.00  0.00    -0.247 OA
BRANCH  21  22
HETATM   22  P           1     -23.308  -3.870 -11.517  0.00  0.00     0.411 P 
HETATM   23  O           1     -23.631  -5.219 -11.002  0.00  0.00    -0.624 OA
HETATM   24  O           1     -24.422  -2.945 -11.209  0.00  0.00    -0.624 OA
BRANCH  22  25
HETATM   25  O           1     -23.095  -3.941 -13.117  0.00  0.00    -0.300 OA
HETATM   26  H           1     -23.935  -3.723 -13.483  0.00  0.00     0.223 HD
ENDBRANCH  22  25
ENDBRANCH  21  22
ENDBRANCH  18  21
ENDBRANCH  14  15
ENDBRANCH   1  14
BRANCH   1  27
HETATM   27  N           1     -22.749  -6.282  -4.945  0.00  0.00    -0.066 N 
HETATM   28  H           1     -22.783  -5.242  -4.856  0.00  0.00     0.275 HD
HETATM   29  H           1     -22.889  -6.717  -4.005  0.00  0.00     0.275 HD
HETATM   30  H           1     -23.506  -6.601  -5.592  0.00  0.00     0.275 HD
ENDBRANCH   1  27
TORSDOF 11
ENDMDL
MODEL 5
REMARK VINA RESULT:      -6.9      1.942      3.281
REMARK  11 active torsions:
REMARK  status: ('A' for Active; 'I' for Inactive)
REMARK    1  A    between atoms: C_5  and  O_6 
REMARK    2  A    between atoms: C_5  and  C_7 
REMARK    3  A    between atoms: C_7  and  C_8 
REMARK    4  A    between atoms: C_7  and  N_11 
REMARK       I    between atoms: N_11  and  C_12 
REMARK    5  A    between atoms: C_12  and  C_13 
REMARK    6  A    between atoms: C_13  and  C_14 
REMARK    7  A    between atoms: C_13  and  N_26 
REMARK    8  A    between atoms: C_14  and  C_15 
REMARK    9  A    between atoms: C_18  and  O_19 
REMARK   10  A    between atoms: O_19  and  P_20 
REMARK   11  A    between atoms: P_20  and  O_21 
ROOT
HETATM    1  C           1     -21.496  -6.718  -5.277  0.00  0.00     0.278 C 
ENDROOT
BRANCH   1   2
HETATM    2  C           1     -20.706  -7.880  -4.727  0.00  0.00     0.249 C 
HETATM    3  N           1     -20.262  -8.865  -5.568  0.00  0.00    -0.343 N 
HETATM    4  H           1     -20.464  -8.814  -6.558  0.00  0.00     0.163 HD
HETATM    5  O           1     -20.464  -7.942  -3.545  0.00  0.00    -0.271 OA
BRANCH   3   6
HETATM    6  C           1     -19.503  -9.982  -5.040  0.00  0.00     0.214 C 
BRANCH   6   7
HETATM    7  C           1     -20.138 -11.289  -5.495  0.00  0.00     0.147 C 
HETATM    8  C           1     -21.551 -11.390  -4.934  0.00  0.00     0.042 C 
BRANCH   7   9
HETATM    9  O           1     -20.190 -11.320  -6.896  0.00  0.00    -0.393 OA
HETATM   10  H           1     -19.625 -10.633  -7.206  0.00  0.00     0.210 HD
ENDBRANCH   7   9
ENDBRANCH   6   7
BRANCH   6  11
HETATM   11  C           1     -18.084  -9.910  -5.548  0.00  0.00     0.199 C 
HETATM   12  O           1     -17.157 -10.431  -4.889  0.00  0.00    -0.646 OA
HETATM   13  O           1     -17.834  -9.331  -6.627  0.00  0.00    -0.646 OA
ENDBRANCH   6  11
ENDBRANCH   3   6
ENDBRANCH   1   2
BRANCH   1  14
HETATM   14  C           1     -20.541  -5.619  -5.723  0.00  0.00     0.081 C 
BRANCH  14  15
HETATM   15  C           1     -21.020  -5.035  -7.016  0.00  0.00    -0.056 A 
HETATM   16  C           1     -22.292  -4.471  -7.097  0.00  0.00     0.010 A 
HETATM   17  C           1     -22.738  -3.926  -8.302  0.00  0.00     0.038 A 
HETATM   18  C           1     -21.911  -3.946  -9.424  0.00  0.00     0.081 A 
HETATM   19  C           1     -20.637  -4.509  -9.343  0.00  0.00     0.038 A 
HETATM   20  C           1     -20.192  -5.054  -8.138  0.00  0.00     0.010 A 
BRANCH  18  21
HETATM   21  O           1     -22.344  -3.417 -10.594  0.00  0.00    -0.247 OA
BRANCH  21  22
HETATM   22  P           1     -23.646  -4.074 -11.287  0.00  0.00     0.411 P 
HETATM   23  O           1     -23.874  -5.424 -10.725  0.00  0.00    -0.624 OA
HETATM   24  O           1     -24.828  -3.223 -11.024  0.00  0.00    -0.624 OA
BRANCH  22  25
HETATM   25  O           1     -23.411  -4.188 -12.881  0.00  0.00    -0.300 OA
HETATM   26  H           1     -23.935  -4.921 -13.153  0.00  0.00     0.223 HD
ENDBRANCH  22  25
ENDBRANCH  21  22
ENDBRANCH  18  21
ENDBRANCH  14  15
ENDBRANCH   1  14
BRANCH   1  27
HETATM   27  N           1     -22.407  -6.186  -4.212  0.00  0.00    -0.066 N 
HETATM   28  H           1     -21.839  -5.724  -3.466  0.00  0.00     0.275 HD
HETATM   29  H           1     -22.955  -6.973  -3.797  0.00  0.00     0.275 HD
HETATM   30  H           1     -23.064  -5.488  -4.631  0.00  0.00     0.275 HD
ENDBRANCH   1  27
TORSDOF 11
ENDMDL
MODEL 6
REMARK VINA RESULT:      -6.8      1.965      2.991
REMARK  11 active torsions:
REMARK  status: ('A' for Active; 'I' for Inactive)
REMARK    1  A    between atoms: C_5  and  O_6 
REMARK    2  A    between atoms: C_5  and  C_7 
REMARK    3  A    between atoms: C_7  and  C_8 
REMARK    4  A    between atoms: C_7  and  N_11 
REMARK       I    between atoms: N_11  and  C_12 
REMARK    5  A    between atoms: C_12  and  C_13 
REMARK    6  A    between atoms: C_13  and  C_14 
REMARK    7  A    between atoms: C_13  and  N_26 
REMARK    8  A    between atoms: C_14  and  C_15 
REMARK    9  A    between atoms: C_18  and  O_19 
REMARK   10  A    between atoms: O_19  and  P_20 
REMARK   11  A    between atoms: P_20  and  O_21 
ROOT
HETATM    1  C           1     -21.524  -6.566  -5.284  0.00  0.00     0.278 C 
ENDROOT
BRANCH   1   2
HETATM    2  C           1     -20.982  -7.959  -5.078  0.00  0.00     0.249 C 
HETATM    3  N           1     -21.494  -8.754  -4.088  0.00  0.00    -0.343 N 
HETATM    4  H           1     -22.236  -8.407  -3.495  0.00  0.00     0.163 HD
HETATM    5  O           1     -20.094  -8.373  -5.786  0.00  0.00    -0.271 OA
BRANCH   3   6
HETATM    6  C           1     -20.972 -10.093  -3.890  0.00  0.00     0.214 C 
BRANCH   6   7
HETATM    7  C           1     -20.223 -10.154  -2.565  0.00  0.00     0.147 C 
HETATM    8  C           1     -18.768  -9.762  -2.785  0.00  0.00     0.042 C 
BRANCH   7   9
HETATM    9  O           1     -20.813  -9.268  -1.653  0.00  0.00    -0.393 OA
HETATM   10  H           1     -20.111  -8.868  -1.168  0.00  0.00     0.210 HD
ENDBRANCH   7   9
ENDBRANCH   6   7
BRANCH   6  11
HETATM   11  C           1     -22.114 -11.079  -3.868  0.00  0.00     0.199 C 
HETATM   12  O           1     -22.961 -11.033  -2.949  0.00  0.00    -0.646 OA
HETATM   13  O           1     -22.213 -11.941  -4.767  0.00  0.00    -0.646 OA
ENDBRANCH   6  11
ENDBRANCH   3   6
ENDBRANCH   1   2
BRANCH   1  14
HETATM   14  C           1     -20.442  -5.684  -5.892  0.00  0.00     0.081 C 
BRANCH  14  15
HETATM   15  C           1     -20.966  -5.038  -7.137  0.00  0.00    -0.056 A 
HETATM   16  C           1     -20.194  -5.032  -8.298  0.00  0.00     0.010 A 
HETATM   17  C           1     -20.682  -4.431  -9.459  0.00  0.00     0.038 A 
HETATM   18  C           1     -21.944  -3.836  -9.457  0.00  0.00     0.081 A 
HETATM   19  C           1     -22.718  -3.844  -8.296  0.00  0.00     0.038 A 
HETATM   20  C           1     -22.228  -4.445  -7.136  0.00  0.00     0.010 A 
BRANCH  18  21
HETATM   21  O           1     -22.418  -3.253 -10.585  0.00  0.00    -0.247 OA
BRANCH  21  22
HETATM   22  P           1     -23.718  -3.906 -11.287  0.00  0.00     0.411 P 
HETATM   23  O           1     -24.935  -3.209 -10.816  0.00  0.00    -0.624 OA
HETATM   24  O           1     -23.606  -3.768 -12.757  0.00  0.00    -0.624 OA
BRANCH  22  25
HETATM   25  O           1     -23.810  -5.472 -10.900  0.00  0.00    -0.300 OA
HETATM   26  H           1     -24.550  -5.798 -11.383  0.00  0.00     0.223 HD
ENDBRANCH  22  25
ENDBRANCH  21  22
ENDBRANCH  18  21
ENDBRANCH  14  15
ENDBRANCH   1  14
BRANCH   1  27
HETATM   27  N           1     -21.950  -5.996  -3.965  0.00  0.00    -0.066 N 
HETATM   28  H           1     -22.068  -6.770  -3.272  0.00  0.00     0.275 HD
HETATM   29  H           1     -22.858  -5.491  -4.080  0.00  0.00     0.275 HD
HETATM   30  H           1     -21.223  -5.329  -3.620  0.00  0.00     0.275 HD
ENDBRANCH   1  27
TORSDOF 11
ENDMDL
MODEL 7
REMARK VINA RESULT:      -6.6      3.777      9.161
REMARK  11 active torsions:
REMARK  status: ('A' for Active; 'I' for Inactive)
REMARK    1  A    between atoms: C_5  and  O_6 
REMARK    2  A    between atoms: C_5  and  C_7 
REMARK    3  A    between atoms: C_7  and  C_8 
REMARK    4  A    between atoms: C_7  and  N_11 
REMARK       I    between atoms: N_11  and  C_12 
REMARK    5  A    between atoms: C_12  and  C_13 
REMARK    6  A    between atoms: C_13  and  C_14 
REMARK    7  A    between atoms: C_13  and  N_26 
REMARK    8  A    between atoms: C_14  and  C_15 
REMARK    9  A    between atoms: C_18  and  O_19 
REMARK   10  A    between atoms: O_19  and  P_20 
REMARK   11  A    between atoms: P_20  and  O_21 
ROOT
HETATM    1  C           1     -21.751  -5.959  -5.835  0.00  0.00     0.278 C 
ENDROOT
BRANCH   1   2
HETATM    2  C           1     -21.840  -4.854  -6.859  0.00  0.00     0.249 C 
HETATM    3  N           1     -22.611  -5.018  -7.978  0.00  0.00    -0.343 N 
HETATM    4  H           1     -23.121  -5.881  -8.119  0.00  0.00     0.163 HD
HETATM    5  O           1     -21.231  -3.825  -6.691  0.00  0.00    -0.271 OA
BRANCH   3   6
HETATM    6  C           1     -22.696  -3.956  -8.962  0.00  0.00     0.214 C 
BRANCH   6   7
HETATM    7  C           1     -21.732  -4.245 -10.105  0.00  0.00     0.147 C 
HETATM    8  C           1     -21.900  -3.191 -11.191  0.00  0.00     0.042 C 
BRANCH   7   9
HETATM    9  O           1     -20.415  -4.213  -9.625  0.00  0.00    -0.393 OA
HETATM   10  H           1     -20.164  -5.105  -9.454  0.00  0.00     0.210 HD
ENDBRANCH   7   9
ENDBRANCH   6   7
BRANCH   6  11
HETATM   11  C           1     -24.103  -3.881  -9.500  0.00  0.00     0.199 C 
HETATM   12  O           1     -24.744  -2.810  -9.426  0.00  0.00    -0.646 OA
HETATM   13  O           1     -24.630  -4.890 -10.019  0.00  0.00    -0.646 OA
ENDBRANCH   6  11
ENDBRANCH   3   6
ENDBRANCH   1   2
BRANCH   1  14
HETATM   14  C           1     -20.855  -5.517  -4.686  0.00  0.00     0.081 C 
BRANCH  14  15
HETATM   15  C           1     -21.065  -6.423  -3.512  0.00  0.00    -0.056 A 
HETATM   16  C           1     -20.341  -7.610  -3.409  0.00  0.00     0.010 A 
HETATM   17  C           1     -20.535  -8.454  -2.315  0.00  0.00     0.038 A 
HETATM   18  C           1     -21.454  -8.109  -1.324  0.00  0.00     0.081 A 
HETATM   19  C           1     -22.178  -6.921  -1.427  0.00  0.00     0.038 A 
HETATM   20  C           1     -21.983  -6.078  -2.521  0.00  0.00     0.010 A 
BRANCH  18  21
HETATM   21  O           1     -21.643  -8.928  -0.261  0.00  0.00    -0.247 OA
BRANCH  21  22
HETATM   22  P           1     -22.650 -10.178  -0.438  0.00  0.00     0.411 P 
HETATM   23  O           1     -22.091 -11.362   0.250  0.00  0.00    -0.624 OA
HETATM   24  O           1     -23.966  -9.840   0.150  0.00  0.00    -0.624 OA
BRANCH  22  25
HETATM   25  O           1     -22.833 -10.506  -2.010  0.00  0.00    -0.300 OA
HETATM   26  H           1     -22.461 -11.363  -2.124  0.00  0.00     0.223 HD
ENDBRANCH  22  25
ENDBRANCH  21  22
ENDBRANCH  18  21
ENDBRANCH  14  15
ENDBRANCH   1  14
BRANCH   1  27
HETATM   27  N           1     -21.175  -7.187  -6.474  0.00  0.00    -0.066 N 
HETATM   28  H           1     -21.032  -7.014  -7.495  0.00  0.00     0.275 HD
HETATM   29  H           1     -21.832  -7.989  -6.345  0.00  0.00     0.275 HD
HETATM   30  H           1     -20.257  -7.415  -6.028  0.00  0.00     0.275 HD
ENDBRANCH   1  27
TORSDOF 11
ENDMDL
MODEL 8
REMARK VINA RESULT:      -6.5      2.230      3.148
REMARK  11 active torsions:
REMARK  status: ('A' for Active; 'I' for Inactive)
REMARK    1  A    between atoms: C_5  and  O_6 
REMARK    2  A    between atoms: C_5  and  C_7 
REMARK    3  A    between atoms: C_7  and  C_8 
REMARK    4  A    between atoms: C_7  and  N_11 
REMARK       I    between atoms: N_11  and  C_12 
REMARK    5  A    between atoms: C_12  and  C_13 
REMARK    6  A    between atoms: C_13  and  C_14 
REMARK    7  A    between atoms: C_13  and  N_26 
REMARK    8  A    between atoms: C_14  and  C_15 
REMARK    9  A    between atoms: C_18  and  O_19 
REMARK   10  A    between atoms: O_19  and  P_20 
REMARK   11  A    between atoms: P_20  and  O_21 
ROOT
HETATM    1  C           1     -21.440  -6.953  -4.569  0.00  0.00     0.278 C 
ENDROOT
BRANCH   1   2
HETATM    2  C           1     -21.290  -8.395  -4.152  0.00  0.00     0.249 C 
HETATM    3  N           1     -20.533  -8.717  -3.059  0.00  0.00    -0.343 N 
HETATM    4  H           1     -20.073  -7.987  -2.530  0.00  0.00     0.163 HD
HETATM    5  O           1     -21.838  -9.267  -4.784  0.00  0.00    -0.271 OA
BRANCH   3   6
HETATM    6  C           1     -20.388 -10.103  -2.658  0.00  0.00     0.214 C 
BRANCH   6   7
HETATM    7  C           1     -18.918 -10.496  -2.709  0.00  0.00     0.147 C 
HETATM    8  C           1     -18.067  -9.253  -2.936  0.00  0.00     0.042 C 
BRANCH   7   9
HETATM    9  O           1     -18.552 -11.097  -1.497  0.00  0.00    -0.393 OA
HETATM   10  H           1     -18.596 -12.029  -1.629  0.00  0.00     0.210 HD
ENDBRANCH   7   9
ENDBRANCH   6   7
BRANCH   6  11
HETATM   11  C           1     -20.905 -10.276  -1.251  0.00  0.00     0.199 C 
HETATM   12  O           1     -21.425 -11.359  -0.905  0.00  0.00    -0.646 OA
HETATM   13  O           1     -20.814  -9.337  -0.431  0.00  0.00    -0.646 OA
ENDBRANCH   6  11
ENDBRANCH   3   6
ENDBRANCH   1   2
BRANCH   1  14
HETATM   14  C           1     -20.454  -6.642  -5.688  0.00  0.00     0.081 C 
BRANCH  14  15
HETATM   15  C           1     -21.103  -5.736  -6.687  0.00  0.00    -0.056 A 
HETATM   16  C           1     -22.393  -5.258  -6.462  0.00  0.00     0.010 A 
HETATM   17  C           1     -22.997  -4.413  -7.394  0.00  0.00     0.038 A 
HETATM   18  C           1     -22.310  -4.046  -8.550  0.00  0.00     0.081 A 
HETATM   19  C           1     -21.018  -4.523  -8.776  0.00  0.00     0.038 A 
HETATM   20  C           1     -20.415  -5.368  -7.844  0.00  0.00     0.010 A 
BRANCH  18  21
HETATM   21  O           1     -22.897  -3.225  -9.455  0.00  0.00    -0.247 OA
BRANCH  21  22
HETATM   22  P           1     -24.123  -3.812 -10.326  0.00  0.00     0.411 P 
HETATM   23  O           1     -24.315  -2.975 -11.532  0.00  0.00    -0.624 OA
HETATM   24  O           1     -23.819  -5.202 -10.733  0.00  0.00    -0.624 OA
BRANCH  22  25
HETATM   25  O           1     -25.473  -3.795  -9.439  0.00  0.00    -0.300 OA
HETATM   26  H           1     -25.189  -3.572  -8.569  0.00  0.00     0.223 HD
ENDBRANCH  22  25
ENDBRANCH  21  22
ENDBRANCH  18  21
ENDBRANCH  14  15
ENDBRANCH   1  14
BRANCH   1  27
HETATM   27  N           1     -21.161  -6.062  -3.396  0.00  0.00    -0.066 N 
HETATM   28  H           1     -20.439  -5.354  -3.660  0.00  0.00     0.275 HD
HETATM   29  H           1     -20.809  -6.638  -2.598  0.00  0.00     0.275 HD
HETATM   30  H           1     -22.040  -5.574  -3.111  0.00  0.00     0.275 HD
ENDBRANCH   1  27
TORSDOF 11
ENDMDL
MODEL 9
REMARK VINA RESULT:      -6.4      2.410      3.820
REMARK  11 active torsions:
REMARK  status: ('A' for Active; 'I' for Inactive)
REMARK    1  A    between atoms: C_5  and  O_6 
REMARK    2  A    between atoms: C_5  and  C_7 
REMARK    3  A    between atoms: C_7  and  C_8 
REMARK    4  A    between atoms: C_7  and  N_11 
REMARK       I    between atoms: N_11  and  C_12 
REMARK    5  A    between atoms: C_12  and  C_13 
REMARK    6  A    between atoms: C_13  and  C_14 
REMARK    7  A    between atoms: C_13  and  N_26 
REMARK    8  A    between atoms: C_14  and  C_15 
REMARK    9  A    between atoms: C_18  and  O_19 
REMARK   10  A    between atoms: O_19  and  P_20 
REMARK   11  A    between atoms: P_20  and  O_21 
ROOT
HETATM    1  C           1     -20.579  -7.810  -5.096  0.00  0.00     0.278 C 
ENDROOT
BRANCH   1   2
HETATM    2  C           1     -20.169  -8.429  -3.783  0.00  0.00     0.249 C 
HETATM    3  N           1     -21.067  -8.505  -2.752  0.00  0.00    -0.343 N 
HETATM    4  H           1     -22.006  -8.145  -2.872  0.00  0.00     0.163 HD
HETATM    5  O           1     -19.049  -8.859  -3.640  0.00  0.00    -0.271 OA
BRANCH   3   6
HETATM    6  C           1     -20.674  -9.100  -1.489  0.00  0.00     0.214 C 
BRANCH   6   7
HETATM    7  C           1     -21.087  -8.183  -0.346  0.00  0.00     0.147 C 
HETATM    8  C           1     -22.107  -7.171  -0.849  0.00  0.00     0.042 C 
BRANCH   7   9
HETATM    9  O           1     -21.656  -8.946   0.684  0.00  0.00    -0.393 OA
HETATM   10  H           1     -22.293  -8.399   1.110  0.00  0.00     0.210 HD
ENDBRANCH   7   9
ENDBRANCH   6   7
BRANCH   6  11
HETATM   11  C           1     -21.355 -10.438  -1.331  0.00  0.00     0.199 C 
HETATM   12  O           1     -20.752 -11.383  -0.778  0.00  0.00    -0.646 OA
HETATM   13  O           1     -22.520 -10.600  -1.752  0.00  0.00    -0.646 OA
ENDBRANCH   6  11
ENDBRANCH   3   6
ENDBRANCH   1   2
BRANCH   1  14
HETATM   14  C           1     -21.596  -6.705  -4.843  0.00  0.00     0.081 C 
BRANCH  14  15
HETATM   15  C           1     -21.747  -5.872  -6.077  0.00  0.00    -0.056 A 
HETATM   16  C           1     -20.694  -5.775  -6.986  0.00  0.00     0.010 A 
HETATM   17  C           1     -20.835  -4.999  -8.137  0.00  0.00     0.038 A 
HETATM   18  C           1     -22.029  -4.320  -8.378  0.00  0.00     0.081 A 
HETATM   19  C           1     -23.083  -4.417  -7.468  0.00  0.00     0.038 A 
HETATM   20  C           1     -22.941  -5.193  -6.318  0.00  0.00     0.010 A 
BRANCH  18  21
HETATM   21  O           1     -22.165  -3.566  -9.496  0.00  0.00    -0.247 OA
BRANCH  21  22
HETATM   22  P           1     -23.561  -3.654 -10.303  0.00  0.00     0.411 P 
HETATM   23  O           1     -23.404  -3.018 -11.630  0.00  0.00    -0.624 OA
HETATM   24  O           1     -23.941  -5.075 -10.478  0.00  0.00    -0.624 OA
BRANCH  22  25
HETATM   25  O           1     -24.715  -2.888  -9.472  0.00  0.00    -0.300 OA
HETATM   26  H           1     -25.480  -3.431  -9.561  0.00  0.00     0.223 HD
ENDBRANCH  22  25
ENDBRANCH  21  22
ENDBRANCH  18  21
ENDBRANCH  14  15
ENDBRANCH   1  14
BRANCH   1  27
HETATM   27  N           1     -21.190  -8.859  -5.975  0.00  0.00    -0.066 N 
HETATM   28  H           1     -21.867  -9.428  -5.418  0.00  0.00     0.275 HD
HETATM   29  H           1     -20.438  -9.481  -6.349  0.00  0.00     0.275 HD
HETATM   30  H           1     -21.691  -8.402  -6.770  0.00  0.00     0.275 HD
ENDBRANCH   1  27
TORSDOF 11
ENDMDL
