MODEL 1
REMARK VINA RESULT:      -7.5      0.000      0.000
REMARK  5 active torsions:
REMARK  status: ('A' for Active; 'I' for Inactive)
REMARK    1  A    between atoms: C_7  and  C_8 
REMARK    2  A    between atoms: C_8  and  C_9 
REMARK    3  A    between atoms: C_9  and  C_10 
REMARK    4  A    between atoms: C_9  and  N_13 
REMARK       I    between atoms: C_10  and  N_14 
REMARK    5  A    between atoms: C_20  and  C_22 
ROOT
HETATM    1  C           1     -35.838  -0.525 -11.571  0.00  0.00     0.279 C 
ENDROOT
BRANCH   1   2
HETATM    2  C           1     -35.881  -1.596 -10.488  0.00  0.00     0.081 C 
BRANCH   2   3
HETATM    3  C           1     -34.963  -2.720 -10.859  0.00  0.00    -0.056 A 
HETATM    4  C           1     -33.645  -2.451 -11.225  0.00  0.00     0.007 A 
HETATM    5  C           1     -32.790  -3.497 -11.572  0.00  0.00     0.001 A 
HETATM    6  C           1     -33.255  -4.812 -11.553  0.00  0.00     0.000 A 
HETATM    7  C           1     -34.573  -5.081 -11.187  0.00  0.00     0.001 A 
HETATM    8  C           1     -35.429  -4.035 -10.840  0.00  0.00     0.007 A 
ENDBRANCH   2   3
ENDBRANCH   1   2
BRANCH   1   9
HETATM    9  C           1     -37.050  -0.661 -12.461  0.00  0.00     0.251 C 
HETATM   10  N           1     -36.986  -0.265 -13.769  0.00  0.00    -0.336 N 
HETATM   11  C           1     -38.070   0.267 -14.591  0.00  0.00     0.127 C 
HETATM   12  C           1     -35.820  -0.280 -14.647  0.00  0.00     0.188 C 
HETATM   13  C           1     -37.855  -0.390 -15.943  0.00  0.00     0.022 C 
HETATM   14  C           1     -36.375  -0.755 -15.979  0.00  0.00     0.038 C 
HETATM   15  O           1     -38.075  -1.119 -12.017  0.00  0.00    -0.271 OA
BRANCH  12  16
HETATM   16  C           1     -35.225   1.101 -14.776  0.00  0.00     0.196 C 
HETATM   17  O           1     -34.472   1.542 -13.880  0.00  0.00    -0.646 OA
HETATM   18  O           1     -35.485   1.803 -15.775  0.00  0.00    -0.646 OA
ENDBRANCH  12  16
ENDBRANCH   1   9
BRANCH   1  19
HETATM   19  N           1     -35.838   0.832 -10.931  0.00  0.00    -0.066 N 
HETATM   20  H           1     -36.553   0.858 -10.171  0.00  0.00     0.275 HD
HETATM   21  H           1     -36.065   1.554 -11.651  0.00  0.00     0.275 HD
HETATM   22  H           1     -34.894   1.027 -10.528  0.00  0.00     0.275 HD
ENDBRANCH   1  19
TORSDOF 5
ENDMDL
MODEL 2
REMARK VINA RESULT:      -6.7     16.260     18.548
REMARK  5 active torsions:
REMARK  status: ('A' for Active; 'I' for Inactive)
REMARK    1  A    between atoms: C_7  and  C_8 
REMARK    2  A    between atoms: C_8  and  C_9 
REMARK    3  A    between atoms: C_9  and  C_10 
REMARK    4  A    between atoms: C_9  and  N_13 
REMARK       I    between atoms: C_10  and  N_14 
REMARK    5  A    between atoms: C_20  and  C_22 
ROOT
HETATM    1  C           1     -20.772  -8.711  -4.276  0.00  0.00     0.279 C 
ENDROOT
BRANCH   1   2
HETATM    2  C           1     -19.997  -8.867  -2.973  0.00  0.00     0.081 C 
BRANCH   2   3
HETATM    3  C           1     -20.876  -8.489  -1.821  0.00  0.00    -0.056 A 
HETATM    4  C           1     -20.956  -9.319  -0.704  0.00  0.00     0.007 A 
HETATM    5  C           1     -21.775  -8.967   0.370  0.00  0.00     0.001 A 
HETATM    6  C           1     -22.513  -7.784   0.324  0.00  0.00     0.000 A 
HETATM    7  C           1     -22.432  -6.954  -0.793  0.00  0.00     0.001 A 
HETATM    8  C           1     -21.614  -7.306  -1.866  0.00  0.00     0.007 A 
ENDBRANCH   2   3
ENDBRANCH   1   2
BRANCH   1   9
HETATM    9  C           1     -19.880  -8.083  -5.319  0.00  0.00     0.251 C 
HETATM   10  N           1     -20.179  -6.845  -5.820  0.00  0.00    -0.336 N 
HETATM   11  C           1     -19.892  -6.334  -7.158  0.00  0.00     0.127 C 
HETATM   12  C           1     -20.854  -5.747  -5.135  0.00  0.00     0.188 C 
HETATM   13  C           1     -19.456  -4.900  -6.912  0.00  0.00     0.022 C 
HETATM   14  C           1     -20.085  -4.515  -5.578  0.00  0.00     0.038 C 
HETATM   15  O           1     -18.903  -8.675  -5.712  0.00  0.00    -0.271 OA
BRANCH  12  16
HETATM   16  C           1     -22.300  -5.659  -5.556  0.00  0.00     0.196 C 
HETATM   17  O           1     -22.644  -4.847  -6.442  0.00  0.00    -0.646 OA
HETATM   18  O           1     -23.154  -6.396  -5.018  0.00  0.00    -0.646 OA
ENDBRANCH  12  16
ENDBRANCH   1   9
BRANCH   1  19
HETATM   19  N           1     -21.225 -10.060  -4.752  0.00  0.00    -0.066 N 
HETATM   20  H           1     -21.447 -10.012  -5.772  0.00  0.00     0.275 HD
HETATM   21  H           1     -22.079 -10.346  -4.221  0.00  0.00     0.275 HD
HETATM   22  H           1     -20.465 -10.759  -4.593  0.00  0.00     0.275 HD
ENDBRANCH   1  19
TORSDOF 5
ENDMDL
MODEL 3
REMARK VINA RESULT:      -6.5     15.606     18.570
REMARK  5 active torsions:
REMARK  status: ('A' for Active; 'I' for Inactive)
REMARK    1  A    between atoms: C_7  and  C_8 
REMARK    2  A    between atoms: C_8  and  C_9 
REMARK    3  A    between atoms: C_9  and  C_10 
REMARK    4  A    between atoms: C_9  and  N_13 
REMARK       I    between atoms: C_10  and  N_14 
REMARK    5  A    between atoms: C_20  and  C_22 
ROOT
HETATM    1  C           1     -20.380  -6.336  -5.634  0.00  0.00     0.279 C 
ENDROOT
BRANCH   1   2
HETATM    2  C           1     -20.449  -4.826  -5.818  0.00  0.00     0.081 C 
BRANCH   2   3
HETATM    3  C           1     -20.848  -4.511  -7.226  0.00  0.00    -0.056 A 
HETATM    4  C           1     -19.904  -4.580  -8.250  0.00  0.00     0.007 A 
HETATM    5  C           1     -20.276  -4.287  -9.563  0.00  0.00     0.001 A 
HETATM    6  C           1     -21.592  -3.925  -9.850  0.00  0.00     0.000 A 
HETATM    7  C           1     -22.536  -3.856  -8.826  0.00  0.00     0.001 A 
HETATM    8  C           1     -22.165  -4.149  -7.513  0.00  0.00     0.007 A 
ENDBRANCH   2   3
ENDBRANCH   1   2
BRANCH   1   9
HETATM    9  C           1     -20.934  -6.704  -4.279  0.00  0.00     0.251 C 
HETATM   10  N           1     -20.645  -7.924  -3.730  0.00  0.00    -0.336 N 
HETATM   11  C           1     -21.481  -8.715  -2.831  0.00  0.00     0.127 C 
HETATM   12  C           1     -19.435  -8.719  -3.915  0.00  0.00     0.188 C 
HETATM   13  C           1     -20.496  -9.274  -1.818  0.00  0.00     0.022 C 
HETATM   14  C           1     -19.149  -9.272  -2.530  0.00  0.00     0.038 C 
HETATM   15  O           1     -21.632  -5.922  -3.680  0.00  0.00    -0.271 OA
BRANCH  12  16
HETATM   16  C           1     -19.671  -9.837  -4.902  0.00  0.00     0.196 C 
HETATM   17  O           1     -18.992 -10.884  -4.834  0.00  0.00    -0.646 OA
HETATM   18  O           1     -20.545  -9.714  -5.786  0.00  0.00    -0.646 OA
ENDBRANCH  12  16
ENDBRANCH   1   9
BRANCH   1  19
HETATM   19  N           1     -21.192  -7.006  -6.704  0.00  0.00    -0.066 N 
HETATM   20  H           1     -20.734  -6.859  -7.631  0.00  0.00     0.275 HD
HETATM   21  H           1     -22.153  -6.595  -6.719  0.00  0.00     0.275 HD
HETATM   22  H           1     -21.254  -8.030  -6.504  0.00  0.00     0.275 HD
ENDBRANCH   1  19
TORSDOF 5
ENDMDL
MODEL 4
REMARK VINA RESULT:      -6.5     14.702     17.634
REMARK  5 active torsions:
REMARK  status: ('A' for Active; 'I' for Inactive)
REMARK    1  A    between atoms: C_7  and  C_8 
REMARK    2  A    between atoms: C_8  and  C_9 
REMARK    3  A    between atoms: C_9  and  C_10 
REMARK    4  A    between atoms: C_9  and  N_13 
REMARK       I    between atoms: C_10  and  N_14 
REMARK    5  A    between atoms: C_20  and  C_22 
ROOT
HETATM    1  C           1     -20.543  -5.280  -6.283  0.00  0.00     0.279 C 
ENDROOT
BRANCH   1   2
HETATM    2  C           1     -20.103  -4.584  -7.565  0.00  0.00     0.081 C 
BRANCH   2   3
HETATM    3  C           1     -21.291  -4.378  -8.454  0.00  0.00    -0.056 A 
HETATM    4  C           1     -21.118  -4.270  -9.833  0.00  0.00     0.007 A 
HETATM    5  C           1     -22.224  -4.078 -10.662  0.00  0.00     0.001 A 
HETATM    6  C           1     -23.502  -3.993 -10.110  0.00  0.00     0.000 A 
HETATM    7  C           1     -23.675  -4.101  -8.731  0.00  0.00     0.001 A 
HETATM    8  C           1     -22.569  -4.293  -7.902  0.00  0.00     0.007 A 
ENDBRANCH   2   3
ENDBRANCH   1   2
BRANCH   1   9
HETATM    9  C           1     -19.940  -6.663  -6.229  0.00  0.00     0.251 C 
HETATM   10  N           1     -20.331  -7.542  -5.256  0.00  0.00    -0.336 N 
HETATM   11  C           1     -19.531  -8.596  -4.636  0.00  0.00     0.127 C 
HETATM   12  C           1     -21.637  -7.632  -4.610  0.00  0.00     0.188 C 
HETATM   13  C           1     -20.499  -9.760  -4.513  0.00  0.00     0.022 C 
HETATM   14  C           1     -21.885  -9.126  -4.500  0.00  0.00     0.038 C 
HETATM   15  O           1     -19.113  -6.992  -7.044  0.00  0.00    -0.271 OA
BRANCH  12  16
HETATM   16  C           1     -21.607  -6.990  -3.245  0.00  0.00     0.196 C 
HETATM   17  O           1     -21.564  -7.705  -2.219  0.00  0.00    -0.646 OA
HETATM   18  O           1     -21.627  -5.746  -3.138  0.00  0.00    -0.646 OA
ENDBRANCH  12  16
ENDBRANCH   1   9
BRANCH   1  19
HETATM   19  N           1     -20.077  -4.485  -5.099  0.00  0.00    -0.066 N 
HETATM   20  H           1     -20.881  -3.950  -4.701  0.00  0.00     0.275 HD
HETATM   21  H           1     -19.329  -3.821  -5.400  0.00  0.00     0.275 HD
HETATM   22  H           1     -19.697  -5.133  -4.373  0.00  0.00     0.275 HD
ENDBRANCH   1  19
TORSDOF 5
ENDMDL
MODEL 5
REMARK VINA RESULT:      -6.3     17.827     19.561
REMARK  5 active torsions:
REMARK  status: ('A' for Active; 'I' for Inactive)
REMARK    1  A    between atoms: C_7  and  C_8 
REMARK    2  A    between atoms: C_8  and  C_9 
REMARK    3  A    between atoms: C_9  and  C_10 
REMARK    4  A    between atoms: C_9  and  N_13 
REMARK       I    between atoms: C_10  and  N_14 
REMARK    5  A    between atoms: C_20  and  C_22 
ROOT
HETATM    1  C           1     -21.928  -8.892  -0.423  0.00  0.00     0.279 C 
ENDROOT
BRANCH   1   2
HETATM    2  C           1     -23.264  -9.528  -0.061  0.00  0.00     0.081 C 
BRANCH   2   3
HETATM    3  C           1     -23.301 -10.936  -0.568  0.00  0.00    -0.056 A 
HETATM    4  C           1     -23.628 -11.980   0.296  0.00  0.00     0.007 A 
HETATM    5  C           1     -23.662 -13.293  -0.176  0.00  0.00     0.001 A 
HETATM    6  C           1     -23.369 -13.559  -1.514  0.00  0.00     0.000 A 
HETATM    7  C           1     -23.042 -12.515  -2.378  0.00  0.00     0.001 A 
HETATM    8  C           1     -23.008 -11.203  -1.906  0.00  0.00     0.007 A 
ENDBRANCH   2   3
ENDBRANCH   1   2
BRANCH   1   9
HETATM    9  C           1     -22.170  -7.603  -1.169  0.00  0.00     0.251 C 
HETATM   10  N           1     -21.617  -7.413  -2.406  0.00  0.00    -0.336 N 
HETATM   11  C           1     -21.192  -6.152  -3.007  0.00  0.00     0.127 C 
HETATM   12  C           1     -21.320  -8.428  -3.413  0.00  0.00     0.188 C 
HETATM   13  C           1     -21.636  -6.272  -4.455  0.00  0.00     0.022 C 
HETATM   14  C           1     -21.725  -7.771  -4.721  0.00  0.00     0.038 C 
HETATM   15  O           1     -22.852  -6.738  -0.674  0.00  0.00    -0.271 OA
BRANCH  12  16
HETATM   16  C           1     -19.851  -8.770  -3.416  0.00  0.00     0.196 C 
HETATM   17  O           1     -19.202  -8.729  -4.484  0.00  0.00    -0.646 OA
HETATM   18  O           1     -19.283  -9.095  -2.352  0.00  0.00    -0.646 OA
ENDBRANCH  12  16
ENDBRANCH   1   9
BRANCH   1  19
HETATM   19  N           1     -21.156  -8.606   0.831  0.00  0.00    -0.066 N 
HETATM   20  H           1     -21.799  -8.213   1.554  0.00  0.00     0.275 HD
HETATM   21  H           1     -20.400  -7.914   0.623  0.00  0.00     0.275 HD
HETATM   22  H           1     -20.729  -9.490   1.187  0.00  0.00     0.275 HD
ENDBRANCH   1  19
TORSDOF 5
ENDMDL
MODEL 6
REMARK VINA RESULT:      -6.3     26.769     28.562
REMARK  5 active torsions:
REMARK  status: ('A' for Active; 'I' for Inactive)
REMARK    1  A    between atoms: C_7  and  C_8 
REMARK    2  A    between atoms: C_8  and  C_9 
REMARK    3  A    between atoms: C_9  and  C_10 
REMARK    4  A    between atoms: C_9  and  N_13 
REMARK       I    between atoms: C_10  and  N_14 
REMARK    5  A    between atoms: C_20  and  C_22 
ROOT
HETATM    1  C           1     -14.688  10.116   5.685  0.00  0.00     0.279 C 
ENDROOT
BRANCH   1   2
HETATM    2  C           1     -13.714   9.067   5.163  0.00  0.00     0.081 C 
BRANCH   2   3
HETATM    3  C           1     -13.868   8.937   3.679  0.00  0.00    -0.056 A 
HETATM    4  C           1     -14.679   7.935   3.148  0.00  0.00     0.007 A 
HETATM    5  C           1     -14.823   7.813   1.766  0.00  0.00     0.001 A 
HETATM    6  C           1     -14.154   8.693   0.916  0.00  0.00     0.000 A 
HETATM    7  C           1     -13.342   9.695   1.447  0.00  0.00     0.001 A 
HETATM    8  C           1     -13.199   9.817   2.829  0.00  0.00     0.007 A 
ENDBRANCH   2   3
ENDBRANCH   1   2
BRANCH   1   9
HETATM    9  C           1     -15.943   9.437   6.177  0.00  0.00     0.251 C 
HETATM   10  N           1     -17.144   9.700   5.576  0.00  0.00    -0.336 N 
HETATM   11  C           1     -18.468   9.689   6.192  0.00  0.00     0.127 C 
HETATM   12  C           1     -17.382  10.054   4.179  0.00  0.00     0.188 C 
HETATM   13  C           1     -19.352   9.040   5.140  0.00  0.00     0.022 C 
HETATM   14  C           1     -18.634   9.276   3.816  0.00  0.00     0.038 C 
HETATM   15  O           1     -15.887   8.663   7.101  0.00  0.00    -0.271 OA
BRANCH  12  16
HETATM   16  C           1     -17.609  11.538   4.031  0.00  0.00     0.196 C 
HETATM   17  O           1     -16.796  12.347   4.526  0.00  0.00    -0.646 OA
HETATM   18  O           1     -18.612  11.958   3.415  0.00  0.00    -0.646 OA
ENDBRANCH  12  16
ENDBRANCH   1   9
BRANCH   1  19
HETATM   19  N           1     -14.052  10.869   6.816  0.00  0.00    -0.066 N 
HETATM   20  H           1     -13.465  11.644   6.432  0.00  0.00     0.275 HD
HETATM   21  H           1     -13.452  10.218   7.372  0.00  0.00     0.275 HD
HETATM   22  H           1     -14.796  11.268   7.431  0.00  0.00     0.275 HD
ENDBRANCH   1  19
TORSDOF 5
ENDMDL
MODEL 7
REMARK VINA RESULT:      -6.2     16.764     19.728
REMARK  5 active torsions:
REMARK  status: ('A' for Active; 'I' for Inactive)
REMARK    1  A    between atoms: C_7  and  C_8 
REMARK    2  A    between atoms: C_8  and  C_9 
REMARK    3  A    between atoms: C_9  and  C_10 
REMARK    4  A    between atoms: C_9  and  N_13 
REMARK       I    between atoms: C_10  and  N_14 
REMARK    5  A    between atoms: C_20  and  C_22 
ROOT
HETATM    1  C           1     -20.360  -7.498  -5.133  0.00  0.00     0.279 C 
ENDROOT
BRANCH   1   2
HETATM    2  C           1     -20.967  -6.115  -4.934  0.00  0.00     0.081 C 
BRANCH   2   3
HETATM    3  C           1     -20.850  -5.330  -6.204  0.00  0.00    -0.056 A 
HETATM    4  C           1     -21.999  -4.859  -6.839  0.00  0.00     0.007 A 
HETATM    5  C           1     -21.891  -4.128  -8.023  0.00  0.00     0.001 A 
HETATM    6  C           1     -20.634  -3.871  -8.571  0.00  0.00     0.000 A 
HETATM    7  C           1     -19.486  -4.342  -7.936  0.00  0.00     0.001 A 
HETATM    8  C           1     -19.594  -5.073  -6.752  0.00  0.00     0.007 A 
ENDBRANCH   2   3
ENDBRANCH   1   2
BRANCH   1   9
HETATM    9  C           1     -20.256  -8.198  -3.800  0.00  0.00     0.251 C 
HETATM   10  N           1     -19.372  -9.231  -3.637  0.00  0.00    -0.336 N 
HETATM   11  C           1     -19.508 -10.386  -2.753  0.00  0.00     0.127 C 
HETATM   12  C           1     -18.089  -9.418  -4.307  0.00  0.00     0.188 C 
HETATM   13  C           1     -18.111 -10.575  -2.188  0.00  0.00     0.022 C 
HETATM   14  C           1     -17.177  -9.934  -3.208  0.00  0.00     0.038 C 
HETATM   15  O           1     -20.952  -7.848  -2.879  0.00  0.00    -0.271 OA
BRANCH  12  16
HETATM   16  C           1     -18.208 -10.426  -5.424  0.00  0.00     0.196 C 
HETATM   17  O           1     -17.285 -11.245  -5.627  0.00  0.00    -0.646 OA
HETATM   18  O           1     -19.227 -10.441  -6.146  0.00  0.00    -0.646 OA
ENDBRANCH  12  16
ENDBRANCH   1   9
BRANCH   1  19
HETATM   19  N           1     -21.235  -8.299  -6.051  0.00  0.00    -0.066 N 
HETATM   20  H           1     -21.530  -7.704  -6.858  0.00  0.00     0.275 HD
HETATM   21  H           1     -22.080  -8.624  -5.529  0.00  0.00     0.275 HD
HETATM   22  H           1     -20.704  -9.127  -6.404  0.00  0.00     0.275 HD
ENDBRANCH   1  19
TORSDOF 5
ENDMDL
MODEL 8
REMARK VINA RESULT:      -6.1     19.319     21.066
REMARK  5 active torsions:
REMARK  status: ('A' for Active; 'I' for Inactive)
REMARK    1  A    between atoms: C_7  and  C_8 
REMARK    2  A    between atoms: C_8  and  C_9 
REMARK    3  A    between atoms: C_9  and  C_10 
REMARK    4  A    between atoms: C_9  and  N_13 
REMARK       I    between atoms: C_10  and  N_14 
REMARK    5  A    between atoms: C_20  and  C_22 
ROOT
HETATM    1  C           1     -20.732  -9.413  -3.235  0.00  0.00     0.279 C 
ENDROOT
BRANCH   1   2
HETATM    2  C           1     -19.968  -8.794  -4.399  0.00  0.00     0.081 C 
BRANCH   2   3
HETATM    3  C           1     -18.544  -9.257  -4.364  0.00  0.00    -0.056 A 
HETATM    4  C           1     -17.867  -9.335  -3.147  0.00  0.00     0.007 A 
HETATM    5  C           1     -16.540  -9.766  -3.114  0.00  0.00     0.001 A 
HETATM    6  C           1     -15.892 -10.117  -4.298  0.00  0.00     0.000 A 
HETATM    7  C           1     -16.569 -10.038  -5.515  0.00  0.00     0.001 A 
HETATM    8  C           1     -17.896  -9.608  -5.548  0.00  0.00     0.007 A 
ENDBRANCH   2   3
ENDBRANCH   1   2
BRANCH   1   9
HETATM    9  C           1     -21.213  -8.321  -2.311  0.00  0.00     0.251 C 
HETATM   10  N           1     -21.621  -8.628  -1.042  0.00  0.00    -0.336 N 
HETATM   11  C           1     -22.635  -7.944  -0.244  0.00  0.00     0.127 C 
HETATM   12  C           1     -21.139  -9.712  -0.190  0.00  0.00     0.188 C 
HETATM   13  C           1     -22.040  -7.918   1.154  0.00  0.00     0.022 C 
HETATM   14  C           1     -21.051  -9.078   1.187  0.00  0.00     0.038 C 
HETATM   15  O           1     -21.238  -7.176  -2.693  0.00  0.00    -0.271 OA
BRANCH  12  16
HETATM   16  C           1     -22.109 -10.867  -0.189  0.00  0.00     0.196 C 
HETATM   17  O           1     -23.005 -10.932  -1.059  0.00  0.00    -0.646 OA
HETATM   18  O           1     -22.018 -11.758   0.682  0.00  0.00    -0.646 OA
ENDBRANCH  12  16
ENDBRANCH   1   9
BRANCH   1  19
HETATM   19  N           1     -21.911 -10.177  -3.762  0.00  0.00    -0.066 N 
HETATM   20  H           1     -21.939 -11.123  -3.320  0.00  0.00     0.275 HD
HETATM   21  H           1     -21.824 -10.277  -4.799  0.00  0.00     0.275 HD
HETATM   22  H           1     -22.790  -9.660  -3.535  0.00  0.00     0.275 HD
ENDBRANCH   1  19
TORSDOF 5
ENDMDL
MODEL 9
REMARK VINA RESULT:      -6.0     16.202     18.723
REMARK  5 active torsions:
REMARK  status: ('A' for Active; 'I' for Inactive)
REMARK    1  A    between atoms: C_7  and  C_8 
REMARK    2  A    between atoms: C_8  and  C_9 
REMARK    3  A    between atoms: C_9  and  C_10 
REMARK    4  A    between atoms: C_9  and  N_13 
REMARK       I    between atoms: C_10  and  N_14 
REMARK    5  A    between atoms: C_20  and  C_22 
ROOT
HETATM    1  C           1     -21.506  -6.454  -4.367  0.00  0.00     0.279 C 
ENDROOT
BRANCH   1   2
HETATM    2  C           1     -20.631  -5.238  -4.639  0.00  0.00     0.081 C 
BRANCH   2   3
HETATM    3  C           1     -20.621  -4.948  -6.108  0.00  0.00    -0.056 A 
HETATM    4  C           1     -21.374  -3.889  -6.614  0.00  0.00     0.007 A 
HETATM    5  C           1     -21.366  -3.618  -7.983  0.00  0.00     0.001 A 
HETATM    6  C           1     -20.605  -4.409  -8.844  0.00  0.00     0.000 A 
HETATM    7  C           1     -19.853  -5.468  -8.339  0.00  0.00     0.001 A 
HETATM    8  C           1     -19.861  -5.738  -6.970  0.00  0.00     0.007 A 
ENDBRANCH   2   3
ENDBRANCH   1   2
BRANCH   1   9
HETATM    9  C           1     -21.697  -6.614  -2.878  0.00  0.00     0.251 C 
HETATM   10  N           1     -21.499  -7.834  -2.289  0.00  0.00    -0.336 N 
HETATM   11  C           1     -22.169  -8.370  -1.108  0.00  0.00     0.127 C 
HETATM   12  C           1     -20.573  -8.883  -2.706  0.00  0.00     0.188 C 
HETATM   13  C           1     -21.057  -9.071  -0.347  0.00  0.00     0.022 C 
HETATM   14  C           1     -20.004  -9.404  -1.398  0.00  0.00     0.038 C 
HETATM   15  O           1     -22.024  -5.665  -2.207  0.00  0.00    -0.271 OA
BRANCH  12  16
HETATM   16  C           1     -21.299  -9.977  -3.450  0.00  0.00     0.196 C 
HETATM   17  O           1     -21.979  -9.699  -4.461  0.00  0.00    -0.646 OA
HETATM   18  O           1     -21.220 -11.159  -3.054  0.00  0.00    -0.646 OA
ENDBRANCH  12  16
ENDBRANCH   1   9
BRANCH   1  19
HETATM   19  N           1     -22.842  -6.265  -5.023  0.00  0.00    -0.066 N 
HETATM   20  H           1     -22.886  -5.314  -5.454  0.00  0.00     0.275 HD
HETATM   21  H           1     -23.597  -6.361  -4.307  0.00  0.00     0.275 HD
HETATM   22  H           1     -22.971  -6.989  -5.765  0.00  0.00     0.275 HD
ENDBRANCH   1  19
TORSDOF 5
ENDMDL
