MODEL 1
REMARK VINA RESULT:      -6.3      0.000      0.000
REMARK  8 active torsions:
REMARK  status: ('A' for Active; 'I' for Inactive)
REMARK    1  A    between atoms: N_2  and  C_20 
REMARK       I    between atoms: C_11  and  N_23 
REMARK    2  A    between atoms: C_11  and  C_20 
REMARK    3  A    between atoms: C_12  and  C_13 
REMARK    4  A    between atoms: C_13  and  C_14 
REMARK    5  A    between atoms: C_13  and  N_23 
REMARK    6  A    between atoms: C_14  and  C_25 
REMARK       I    between atoms: N_15  and  C_25 
REMARK       I    between atoms: N_17  and  C_18 
REMARK    7  A    between atoms: C_18  and  C_19 
REMARK    8  A    between atoms: C_19  and  C_20 
ROOT
HETATM    1  O           1     -21.157  -3.762  -8.257  0.00  0.00    -0.271 OA
HETATM    2  H           1     -24.164  -4.645  -8.402  0.00  0.00     0.163 HD
HETATM    3  C           1     -22.201  -4.243  -7.885  0.00  0.00     0.249 C 
HETATM    4  N           1     -23.290  -4.242  -8.714  0.00  0.00    -0.344 N 
ENDROOT
BRANCH   3   5
HETATM    5  C           1     -22.304  -4.846  -6.506  0.00  0.00     0.283 C 
BRANCH   5   6
HETATM    6  N           1     -23.737  -5.175  -6.211  0.00  0.00    -0.066 N 
HETATM    7  H           1     -24.348  -4.779  -6.960  0.00  0.00     0.275 HD
HETATM    8  H           1     -23.856  -6.213  -6.177  0.00  0.00     0.275 HD
HETATM    9  H           1     -24.007  -4.763  -5.289  0.00  0.00     0.275 HD
ENDBRANCH   5   6
BRANCH   5  10
HETATM   10  C           1     -21.469  -6.119  -6.443  0.00  0.00     0.145 C 
BRANCH  10  11
HETATM   11  C           1     -21.291  -6.533  -5.003  0.00  0.00     0.217 C 
HETATM   12  O           1     -21.931  -5.991  -4.134  0.00  0.00    -0.274 OA
HETATM   13  N           1     -20.404  -7.526  -4.682  0.00  0.00    -0.370 N 
HETATM   14  H           1     -20.284  -7.805  -3.716  0.00  0.00     0.159 HD
HETATM   15  H           1     -19.869  -7.981  -5.410  0.00  0.00     0.159 HD
ENDBRANCH  10  11
ENDBRANCH   5  10
ENDBRANCH   3   5
BRANCH   4  16
HETATM   16  C           1     -23.191  -3.661 -10.040  0.00  0.00     0.194 C 
BRANCH  16  17
HETATM   17  C           1     -24.564  -3.264 -10.519  0.00  0.00     0.197 C 
HETATM   18  O           1     -25.507  -3.164  -9.704  0.00  0.00    -0.646 OA
HETATM   19  O           1     -24.761  -3.035 -11.733  0.00  0.00    -0.646 OA
ENDBRANCH  16  17
BRANCH  16  20
HETATM   20  C           1     -22.594  -4.684 -10.997  0.00  0.00     0.138 C 
BRANCH  20  21
HETATM   21  C           1     -21.537  -4.022 -11.847  0.00  0.00     0.217 C 
HETATM   22  N           1     -21.868  -3.501 -13.068  0.00  0.00    -0.370 N 
HETATM   23  H           1     -22.822  -3.559 -13.401  0.00  0.00     0.159 HD
HETATM   24  H           1     -21.159  -3.057 -13.639  0.00  0.00     0.159 HD
HETATM   25  O           1     -20.399  -3.953 -11.450  0.00  0.00    -0.274 OA
ENDBRANCH  20  21
ENDBRANCH  16  20
ENDBRANCH   4  16
TORSDOF 8
ENDMDL
MODEL 2
REMARK VINA RESULT:      -6.3      2.259      6.588
REMARK  8 active torsions:
REMARK  status: ('A' for Active; 'I' for Inactive)
REMARK    1  A    between atoms: N_2  and  C_20 
REMARK       I    between atoms: C_11  and  N_23 
REMARK    2  A    between atoms: C_11  and  C_20 
REMARK    3  A    between atoms: C_12  and  C_13 
REMARK    4  A    between atoms: C_13  and  C_14 
REMARK    5  A    between atoms: C_13  and  N_23 
REMARK    6  A    between atoms: C_14  and  C_25 
REMARK       I    between atoms: N_15  and  C_25 
REMARK       I    between atoms: N_17  and  C_18 
REMARK    7  A    between atoms: C_18  and  C_19 
REMARK    8  A    between atoms: C_19  and  C_20 
ROOT
HETATM    1  O           1     -23.648  -4.558 -10.514  0.00  0.00    -0.271 OA
HETATM    2  H           1     -20.755  -3.422 -10.082  0.00  0.00     0.163 HD
HETATM    3  C           1     -22.656  -3.908 -10.742  0.00  0.00     0.249 C 
HETATM    4  N           1     -21.585  -3.967  -9.891  0.00  0.00    -0.344 N 
ENDROOT
BRANCH   3   5
HETATM    5  C           1     -22.595  -3.030 -11.968  0.00  0.00     0.283 C 
BRANCH   5   6
HETATM    6  N           1     -21.678  -3.648 -12.981  0.00  0.00    -0.066 N 
HETATM    7  H           1     -22.143  -4.479 -13.412  0.00  0.00     0.275 HD
HETATM    8  H           1     -21.458  -2.948 -13.724  0.00  0.00     0.275 HD
HETATM    9  H           1     -20.794  -3.950 -12.512  0.00  0.00     0.275 HD
ENDBRANCH   5   6
BRANCH   5  10
HETATM   10  C           1     -23.991  -2.893 -12.565  0.00  0.00     0.145 C 
BRANCH  10  11
HETATM   11  C           1     -23.883  -2.399 -13.987  0.00  0.00     0.217 C 
HETATM   12  O           1     -23.677  -3.180 -14.885  0.00  0.00    -0.274 OA
HETATM   13  N           1     -24.020  -1.064 -14.259  0.00  0.00    -0.370 N 
HETATM   14  H           1     -23.949  -0.732 -15.212  0.00  0.00     0.159 HD
HETATM   15  H           1     -24.194  -0.409 -13.507  0.00  0.00     0.159 HD
ENDBRANCH  10  11
ENDBRANCH   5  10
ENDBRANCH   3   5
BRANCH   4  16
HETATM   16  C           1     -21.644  -4.810  -8.712  0.00  0.00     0.194 C 
BRANCH  16  17
HETATM   17  C           1     -22.279  -4.046  -7.577  0.00  0.00     0.197 C 
HETATM   18  O           1     -23.397  -4.392  -7.138  0.00  0.00    -0.646 OA
HETATM   19  O           1     -21.688  -3.064  -7.076  0.00  0.00    -0.646 OA
ENDBRANCH  16  17
BRANCH  16  20
HETATM   20  C           1     -20.233  -5.227  -8.317  0.00  0.00     0.138 C 
BRANCH  20  21
HETATM   21  C           1     -20.264  -5.892  -6.963  0.00  0.00     0.217 C 
HETATM   22  N           1     -19.778  -5.234  -5.866  0.00  0.00    -0.370 N 
HETATM   23  H           1     -19.397  -4.301  -5.964  0.00  0.00     0.159 HD
HETATM   24  H           1     -19.798  -5.679  -4.957  0.00  0.00     0.159 HD
HETATM   25  O           1     -20.719  -7.005  -6.847  0.00  0.00    -0.274 OA
ENDBRANCH  20  21
ENDBRANCH  16  20
ENDBRANCH   4  16
TORSDOF 8
ENDMDL
MODEL 3
REMARK VINA RESULT:      -6.1      1.599      6.081
REMARK  8 active torsions:
REMARK  status: ('A' for Active; 'I' for Inactive)
REMARK    1  A    between atoms: N_2  and  C_20 
REMARK       I    between atoms: C_11  and  N_23 
REMARK    2  A    between atoms: C_11  and  C_20 
REMARK    3  A    between atoms: C_12  and  C_13 
REMARK    4  A    between atoms: C_13  and  C_14 
REMARK    5  A    between atoms: C_13  and  N_23 
REMARK    6  A    between atoms: C_14  and  C_25 
REMARK       I    between atoms: N_15  and  C_25 
REMARK       I    between atoms: N_17  and  C_18 
REMARK    7  A    between atoms: C_18  and  C_19 
REMARK    8  A    between atoms: C_19  and  C_20 
ROOT
HETATM    1  O           1     -21.716  -3.295  -8.830  0.00  0.00    -0.271 OA
HETATM    2  H           1     -22.821  -5.488  -6.876  0.00  0.00     0.163 HD
HETATM    3  C           1     -22.487  -4.112  -8.386  0.00  0.00     0.249 C 
HETATM    4  N           1     -22.174  -4.803  -7.246  0.00  0.00    -0.344 N 
ENDROOT
BRANCH   3   5
HETATM    5  C           1     -23.797  -4.372  -9.089  0.00  0.00     0.283 C 
BRANCH   5   6
HETATM    6  N           1     -24.673  -3.159  -8.977  0.00  0.00    -0.066 N 
HETATM    7  H           1     -24.079  -2.300  -8.962  0.00  0.00     0.275 HD
HETATM    8  H           1     -25.320  -3.121  -9.797  0.00  0.00     0.275 HD
HETATM    9  H           1     -25.230  -3.212  -8.095  0.00  0.00     0.275 HD
ENDBRANCH   5   6
BRANCH   5  10
HETATM   10  C           1     -23.535  -4.673 -10.560  0.00  0.00     0.145 C 
BRANCH  10  11
HETATM   11  C           1     -23.789  -3.432 -11.380  0.00  0.00     0.217 C 
HETATM   12  O           1     -24.911  -3.161 -11.736  0.00  0.00    -0.274 OA
HETATM   13  N           1     -22.746  -2.613 -11.721  0.00  0.00    -0.370 N 
HETATM   14  H           1     -22.916  -1.781 -12.271  0.00  0.00     0.159 HD
HETATM   15  H           1     -21.806  -2.839 -11.423  0.00  0.00     0.159 HD
ENDBRANCH  10  11
ENDBRANCH   5  10
ENDBRANCH   3   5
BRANCH   4  16
HETATM   16  C           1     -20.915  -4.553  -6.572  0.00  0.00     0.194 C 
BRANCH  16  17
HETATM   17  C           1     -19.783  -5.114  -7.396  0.00  0.00     0.197 C 
HETATM   18  O           1     -19.815  -6.306  -7.774  0.00  0.00    -0.646 OA
HETATM   19  O           1     -18.811  -4.388  -7.700  0.00  0.00    -0.646 OA
ENDBRANCH  16  17
BRANCH  16  20
HETATM   20  C           1     -20.931  -5.225  -5.205  0.00  0.00     0.138 C 
BRANCH  20  21
HETATM   21  C           1     -21.926  -6.360  -5.213  0.00  0.00     0.217 C 
HETATM   22  N           1     -21.513  -7.631  -5.504  0.00  0.00    -0.370 N 
HETATM   23  H           1     -20.539  -7.811  -5.714  0.00  0.00     0.159 HD
HETATM   24  H           1     -22.181  -8.392  -5.509  0.00  0.00     0.159 HD
HETATM   25  O           1     -23.088  -6.145  -4.962  0.00  0.00    -0.274 OA
ENDBRANCH  20  21
ENDBRANCH  16  20
ENDBRANCH   4  16
TORSDOF 8
ENDMDL
MODEL 4
REMARK VINA RESULT:      -6.0      9.168     12.169
REMARK  8 active torsions:
REMARK  status: ('A' for Active; 'I' for Inactive)
REMARK    1  A    between atoms: N_2  and  C_20 
REMARK       I    between atoms: C_11  and  N_23 
REMARK    2  A    between atoms: C_11  and  C_20 
REMARK    3  A    between atoms: C_12  and  C_13 
REMARK    4  A    between atoms: C_13  and  C_14 
REMARK    5  A    between atoms: C_13  and  N_23 
REMARK    6  A    between atoms: C_14  and  C_25 
REMARK       I    between atoms: N_15  and  C_25 
REMARK       I    between atoms: N_17  and  C_18 
REMARK    7  A    between atoms: C_18  and  C_19 
REMARK    8  A    between atoms: C_19  and  C_20 
ROOT
HETATM    1  O           1     -28.024  -5.504 -19.136  0.00  0.00    -0.271 OA
HETATM    2  H           1     -25.496  -7.178 -18.328  0.00  0.00     0.163 HD
HETATM    3  C           1     -27.029  -6.173 -19.288  0.00  0.00     0.249 C 
HETATM    4  N           1     -26.329  -6.618 -18.199  0.00  0.00    -0.344 N 
ENDROOT
BRANCH   3   5
HETATM    5  C           1     -26.559  -6.518 -20.680  0.00  0.00     0.283 C 
BRANCH   5   6
HETATM    6  N           1     -25.381  -5.660 -21.036  0.00  0.00    -0.066 N 
HETATM    7  H           1     -24.514  -6.243 -21.047  0.00  0.00     0.275 HD
HETATM    8  H           1     -25.530  -5.241 -21.982  0.00  0.00     0.275 HD
HETATM    9  H           1     -25.279  -4.898 -20.329  0.00  0.00     0.275 HD
ENDBRANCH   5   6
BRANCH   5  10
HETATM   10  C           1     -26.150  -7.985 -20.729  0.00  0.00     0.145 C 
BRANCH  10  11
HETATM   11  C           1     -24.785  -8.106 -21.361  0.00  0.00     0.217 C 
HETATM   12  O           1     -24.645  -7.904 -22.544  0.00  0.00    -0.274 OA
HETATM   13  N           1     -23.703  -8.444 -20.592  0.00  0.00    -0.370 N 
HETATM   14  H           1     -22.787  -8.524 -21.015  0.00  0.00     0.159 HD
HETATM   15  H           1     -23.819  -8.612 -19.602  0.00  0.00     0.159 HD
ENDBRANCH  10  11
ENDBRANCH   5  10
ENDBRANCH   3   5
BRANCH   4  16
HETATM   16  C           1     -26.781  -6.285 -16.862  0.00  0.00     0.194 C 
BRANCH  16  17
HETATM   17  C           1     -25.643  -6.460 -15.888  0.00  0.00     0.197 C 
HETATM   18  O           1     -25.322  -7.604 -15.499  0.00  0.00    -0.646 OA
HETATM   19  O           1     -25.020  -5.460 -15.467  0.00  0.00    -0.646 OA
ENDBRANCH  16  17
BRANCH  16  20
HETATM   20  C           1     -27.930  -7.205 -16.472  0.00  0.00     0.138 C 
BRANCH  20  21
HETATM   21  C           1     -29.160  -6.381 -16.183  0.00  0.00     0.217 C 
HETATM   22  N           1     -30.212  -6.392 -17.058  0.00  0.00    -0.370 N 
HETATM   23  H           1     -30.166  -6.953 -17.898  0.00  0.00     0.159 HD
HETATM   24  H           1     -31.038  -5.839 -16.864  0.00  0.00     0.159 HD
HETATM   25  O           1     -29.216  -5.711 -15.180  0.00  0.00    -0.274 OA
ENDBRANCH  20  21
ENDBRANCH  16  20
ENDBRANCH   4  16
TORSDOF 8
ENDMDL
MODEL 5
REMARK VINA RESULT:      -6.0      2.119      6.559
REMARK  8 active torsions:
REMARK  status: ('A' for Active; 'I' for Inactive)
REMARK    1  A    between atoms: N_2  and  C_20 
REMARK       I    between atoms: C_11  and  N_23 
REMARK    2  A    between atoms: C_11  and  C_20 
REMARK    3  A    between atoms: C_12  and  C_13 
REMARK    4  A    between atoms: C_13  and  C_14 
REMARK    5  A    between atoms: C_13  and  N_23 
REMARK    6  A    between atoms: C_14  and  C_25 
REMARK       I    between atoms: N_15  and  C_25 
REMARK       I    between atoms: N_17  and  C_18 
REMARK    7  A    between atoms: C_18  and  C_19 
REMARK    8  A    between atoms: C_19  and  C_20 
ROOT
HETATM    1  O           1     -23.126  -3.512  -9.484  0.00  0.00    -0.271 OA
HETATM    2  H           1     -20.363  -4.926  -9.943  0.00  0.00     0.163 HD
HETATM    3  C           1     -22.214  -4.013 -10.098  0.00  0.00     0.249 C 
HETATM    4  N           1     -21.127  -4.508  -9.428  0.00  0.00    -0.344 N 
ENDROOT
BRANCH   3   5
HETATM    5  C           1     -22.273  -4.094 -11.604  0.00  0.00     0.283 C 
BRANCH   5   6
HETATM    6  N           1     -23.439  -4.944 -12.013  0.00  0.00    -0.066 N 
HETATM    7  H           1     -24.316  -4.559 -11.595  0.00  0.00     0.275 HD
HETATM    8  H           1     -23.521  -4.944 -13.054  0.00  0.00     0.275 HD
HETATM    9  H           1     -23.293  -5.922 -11.674  0.00  0.00     0.275 HD
ENDBRANCH   5   6
BRANCH   5  10
HETATM   10  C           1     -22.438  -2.694 -12.183  0.00  0.00     0.145 C 
BRANCH  10  11
HETATM   11  C           1     -23.218  -2.773 -13.473  0.00  0.00     0.217 C 
HETATM   12  O           1     -24.421  -2.660 -13.461  0.00  0.00    -0.274 OA
HETATM   13  N           1     -22.561  -2.971 -14.657  0.00  0.00    -0.370 N 
HETATM   14  H           1     -23.082  -3.023 -15.523  0.00  0.00     0.159 HD
HETATM   15  H           1     -21.553  -3.065 -14.668  0.00  0.00     0.159 HD
ENDBRANCH  10  11
ENDBRANCH   5  10
ENDBRANCH   3   5
BRANCH   4  16
HETATM   16  C           1     -21.070  -4.428  -7.981  0.00  0.00     0.194 C 
BRANCH  16  17
HETATM   17  C           1     -19.644  -4.203  -7.545  0.00  0.00     0.197 C 
HETATM   18  O           1     -18.844  -3.612  -8.303  0.00  0.00    -0.646 OA
HETATM   19  O           1     -19.261  -4.608  -6.425  0.00  0.00    -0.646 OA
ENDBRANCH  16  17
BRANCH  16  20
HETATM   20  C           1     -21.585  -5.730  -7.383  0.00  0.00     0.138 C 
BRANCH  20  21
HETATM   21  C           1     -22.674  -5.429  -6.382  0.00  0.00     0.217 C 
HETATM   22  N           1     -23.683  -4.565  -6.708  0.00  0.00    -0.370 N 
HETATM   23  H           1     -23.700  -4.127  -7.621  0.00  0.00     0.159 HD
HETATM   24  H           1     -24.414  -4.363  -6.037  0.00  0.00     0.159 HD
HETATM   25  O           1     -22.655  -5.952  -5.293  0.00  0.00    -0.274 OA
ENDBRANCH  20  21
ENDBRANCH  16  20
ENDBRANCH   4  16
TORSDOF 8
ENDMDL
MODEL 6
REMARK VINA RESULT:      -5.9     10.694     12.649
REMARK  8 active torsions:
REMARK  status: ('A' for Active; 'I' for Inactive)
REMARK    1  A    between atoms: N_2  and  C_20 
REMARK       I    between atoms: C_11  and  N_23 
REMARK    2  A    between atoms: C_11  and  C_20 
REMARK    3  A    between atoms: C_12  and  C_13 
REMARK    4  A    between atoms: C_13  and  C_14 
REMARK    5  A    between atoms: C_13  and  N_23 
REMARK    6  A    between atoms: C_14  and  C_25 
REMARK       I    between atoms: N_15  and  C_25 
REMARK       I    between atoms: N_17  and  C_18 
REMARK    7  A    between atoms: C_18  and  C_19 
REMARK    8  A    between atoms: C_19  and  C_20 
ROOT
HETATM    1  O           1     -29.875  -8.035 -17.843  0.00  0.00    -0.271 OA
HETATM    2  H           1     -28.961  -5.107 -18.503  0.00  0.00     0.163 HD
HETATM    3  C           1     -29.973  -6.842 -18.003  0.00  0.00     0.249 C 
HETATM    4  N           1     -28.878  -6.107 -18.370  0.00  0.00    -0.344 N 
ENDROOT
BRANCH   3   5
HETATM    5  C           1     -31.304  -6.161 -17.798  0.00  0.00     0.283 C 
BRANCH   5   6
HETATM    6  N           1     -32.304  -7.160 -17.295  0.00  0.00    -0.066 N 
HETATM    7  H           1     -32.784  -6.779 -16.449  0.00  0.00     0.275 HD
HETATM    8  H           1     -33.011  -7.349 -18.041  0.00  0.00     0.275 HD
HETATM    9  H           1     -31.813  -8.048 -17.046  0.00  0.00     0.275 HD
ENDBRANCH   5   6
BRANCH   5  10
HETATM   10  C           1     -31.150  -5.040 -16.778  0.00  0.00     0.145 C 
BRANCH  10  11
HETATM   11  C           1     -31.927  -3.831 -17.239  0.00  0.00     0.217 C 
HETATM   12  O           1     -31.368  -2.947 -17.843  0.00  0.00    -0.274 OA
HETATM   13  N           1     -33.267  -3.736 -16.972  0.00  0.00    -0.370 N 
HETATM   14  H           1     -33.788  -2.926 -17.282  0.00  0.00     0.159 HD
HETATM   15  H           1     -33.736  -4.477 -16.467  0.00  0.00     0.159 HD
ENDBRANCH  10  11
ENDBRANCH   5  10
ENDBRANCH   3   5
BRANCH   4  16
HETATM   16  C           1     -27.599  -6.761 -18.566  0.00  0.00     0.194 C 
BRANCH  16  17
HETATM   17  C           1     -26.631  -6.304 -17.502  0.00  0.00     0.197 C 
HETATM   18  O           1     -27.060  -5.885 -16.405  0.00  0.00    -0.646 OA
HETATM   19  O           1     -25.400  -6.343 -17.718  0.00  0.00    -0.646 OA
ENDBRANCH  16  17
BRANCH  16  20
HETATM   20  C           1     -27.051  -6.402 -19.940  0.00  0.00     0.138 C 
BRANCH  20  21
HETATM   21  C           1     -26.619  -7.658 -20.656  0.00  0.00     0.217 C 
HETATM   22  N           1     -27.542  -8.618 -20.969  0.00  0.00    -0.370 N 
HETATM   23  H           1     -28.514  -8.486 -20.721  0.00  0.00     0.159 HD
HETATM   24  H           1     -27.252  -9.462 -21.450  0.00  0.00     0.159 HD
HETATM   25  O           1     -25.459  -7.816 -20.952  0.00  0.00    -0.274 OA
ENDBRANCH  20  21
ENDBRANCH  16  20
ENDBRANCH   4  16
TORSDOF 8
ENDMDL
MODEL 7
REMARK VINA RESULT:      -5.9      9.419     12.171
REMARK  8 active torsions:
REMARK  status: ('A' for Active; 'I' for Inactive)
REMARK    1  A    between atoms: N_2  and  C_20 
REMARK       I    between atoms: C_11  and  N_23 
REMARK    2  A    between atoms: C_11  and  C_20 
REMARK    3  A    between atoms: C_12  and  C_13 
REMARK    4  A    between atoms: C_13  and  C_14 
REMARK    5  A    between atoms: C_13  and  N_23 
REMARK    6  A    between atoms: C_14  and  C_25 
REMARK       I    between atoms: N_15  and  C_25 
REMARK       I    between atoms: N_17  and  C_18 
REMARK    7  A    between atoms: C_18  and  C_19 
REMARK    8  A    between atoms: C_19  and  C_20 
ROOT
HETATM    1  O           1     -28.576  -5.119 -19.092  0.00  0.00    -0.271 OA
HETATM    2  H           1     -27.486  -7.967 -18.351  0.00  0.00     0.163 HD
HETATM    3  C           1     -28.592  -6.243 -18.649  0.00  0.00     0.249 C 
HETATM    4  N           1     -27.472  -7.026 -18.722  0.00  0.00    -0.344 N 
ENDROOT
BRANCH   3   5
HETATM    5  C           1     -29.849  -6.784 -18.013  0.00  0.00     0.283 C 
BRANCH   5   6
HETATM    6  N           1     -29.669  -8.242 -17.711  0.00  0.00    -0.066 N 
HETATM    7  H           1     -29.020  -8.666 -18.411  0.00  0.00     0.275 HD
HETATM    8  H           1     -29.266  -8.352 -16.753  0.00  0.00     0.275 HD
HETATM    9  H           1     -30.594  -8.725 -17.758  0.00  0.00     0.275 HD
ENDBRANCH   5   6
BRANCH   5  10
HETATM   10  C           1     -30.129  -6.030 -16.719  0.00  0.00     0.145 C 
BRANCH  10  11
HETATM   11  C           1     -31.364  -5.178 -16.890  0.00  0.00     0.217 C 
HETATM   12  O           1     -31.263  -3.979 -16.992  0.00  0.00    -0.274 OA
HETATM   13  N           1     -32.600  -5.767 -16.931  0.00  0.00    -0.370 N 
HETATM   14  H           1     -33.428  -5.197 -17.047  0.00  0.00     0.159 HD
HETATM   15  H           1     -32.685  -6.771 -16.847  0.00  0.00     0.159 HD
ENDBRANCH  10  11
ENDBRANCH   5  10
ENDBRANCH   3   5
BRANCH   4  16
HETATM   16  C           1     -26.264  -6.506 -19.335  0.00  0.00     0.194 C 
BRANCH  16  17
HETATM   17  C           1     -26.039  -7.187 -20.662  0.00  0.00     0.197 C 
HETATM   18  O           1     -25.034  -6.903 -21.348  0.00  0.00    -0.646 OA
HETATM   19  O           1     -26.860  -8.035 -21.076  0.00  0.00    -0.646 OA
ENDBRANCH  16  17
BRANCH  16  20
HETATM   20  C           1     -25.077  -6.772 -18.419  0.00  0.00     0.138 C 
BRANCH  20  21
HETATM   21  C           1     -25.501  -6.603 -16.981  0.00  0.00     0.217 C 
HETATM   22  N           1     -25.135  -7.532 -16.045  0.00  0.00    -0.370 N 
HETATM   23  H           1     -24.579  -8.332 -16.318  0.00  0.00     0.159 HD
HETATM   24  H           1     -25.420  -7.418 -15.080  0.00  0.00     0.159 HD
HETATM   25  O           1     -26.165  -5.648 -16.656  0.00  0.00    -0.274 OA
ENDBRANCH  20  21
ENDBRANCH  16  20
ENDBRANCH   4  16
TORSDOF 8
ENDMDL
MODEL 8
REMARK VINA RESULT:      -5.9      9.987     12.530
REMARK  8 active torsions:
REMARK  status: ('A' for Active; 'I' for Inactive)
REMARK    1  A    between atoms: N_2  and  C_20 
REMARK       I    between atoms: C_11  and  N_23 
REMARK    2  A    between atoms: C_11  and  C_20 
REMARK    3  A    between atoms: C_12  and  C_13 
REMARK    4  A    between atoms: C_13  and  C_14 
REMARK    5  A    between atoms: C_13  and  N_23 
REMARK    6  A    between atoms: C_14  and  C_25 
REMARK       I    between atoms: N_15  and  C_25 
REMARK       I    between atoms: N_17  and  C_18 
REMARK    7  A    between atoms: C_18  and  C_19 
REMARK    8  A    between atoms: C_19  and  C_20 
ROOT
HETATM    1  O           1     -27.825  -5.812 -19.631  0.00  0.00    -0.271 OA
HETATM    2  H           1     -26.511  -7.365 -17.242  0.00  0.00     0.163 HD
HETATM    3  C           1     -26.971  -6.409 -19.019  0.00  0.00     0.249 C 
HETATM    4  N           1     -27.227  -6.865 -17.754  0.00  0.00    -0.344 N 
ENDROOT
BRANCH   3   5
HETATM    5  C           1     -25.622  -6.653 -19.650  0.00  0.00     0.283 C 
BRANCH   5   6
HETATM    6  N           1     -24.654  -7.107 -18.599  0.00  0.00    -0.066 N 
HETATM    7  H           1     -25.091  -7.863 -18.025  0.00  0.00     0.275 HD
HETATM    8  H           1     -23.790  -7.474 -19.057  0.00  0.00     0.275 HD
HETATM    9  H           1     -24.406  -6.301 -17.982  0.00  0.00     0.275 HD
ENDBRANCH   5   6
BRANCH   5  10
HETATM   10  C           1     -25.749  -7.729 -20.722  0.00  0.00     0.145 C 
BRANCH  10  11
HETATM   11  C           1     -24.459  -7.818 -21.500  0.00  0.00     0.217 C 
HETATM   12  O           1     -24.261  -7.073 -22.431  0.00  0.00    -0.274 OA
HETATM   13  N           1     -23.511  -8.743 -21.150  0.00  0.00    -0.370 N 
HETATM   14  H           1     -22.646  -8.802 -21.671  0.00  0.00     0.159 HD
HETATM   15  H           1     -23.676  -9.366 -20.370  0.00  0.00     0.159 HD
ENDBRANCH  10  11
ENDBRANCH   5  10
ENDBRANCH   3   5
BRANCH   4  16
HETATM   16  C           1     -28.523  -6.629 -17.148  0.00  0.00     0.194 C 
BRANCH  16  17
HETATM   17  C           1     -28.363  -6.492 -15.654  0.00  0.00     0.197 C 
HETATM   18  O           1     -28.806  -5.481 -15.067  0.00  0.00    -0.646 OA
HETATM   19  O           1     -27.785  -7.390 -15.002  0.00  0.00    -0.646 OA
ENDBRANCH  16  17
BRANCH  16  20
HETATM   20  C           1     -29.446  -7.801 -17.455  0.00  0.00     0.138 C 
BRANCH  20  21
HETATM   21  C           1     -30.808  -7.281 -17.846  0.00  0.00     0.217 C 
HETATM   22  N           1     -31.431  -6.343 -17.069  0.00  0.00    -0.370 N 
HETATM   23  H           1     -30.980  -5.998 -16.232  0.00  0.00     0.159 HD
HETATM   24  H           1     -32.345  -5.994 -17.332  0.00  0.00     0.159 HD
HETATM   25  O           1     -31.347  -7.693 -18.845  0.00  0.00    -0.274 OA
ENDBRANCH  20  21
ENDBRANCH  16  20
ENDBRANCH   4  16
TORSDOF 8
ENDMDL
MODEL 9
REMARK VINA RESULT:      -5.6      1.561      2.626
REMARK  8 active torsions:
REMARK  status: ('A' for Active; 'I' for Inactive)
REMARK    1  A    between atoms: N_2  and  C_20 
REMARK       I    between atoms: C_11  and  N_23 
REMARK    2  A    between atoms: C_11  and  C_20 
REMARK    3  A    between atoms: C_12  and  C_13 
REMARK    4  A    between atoms: C_13  and  C_14 
REMARK    5  A    between atoms: C_13  and  N_23 
REMARK    6  A    between atoms: C_14  and  C_25 
REMARK       I    between atoms: N_15  and  C_25 
REMARK       I    between atoms: N_17  and  C_18 
REMARK    7  A    between atoms: C_18  and  C_19 
REMARK    8  A    between atoms: C_19  and  C_20 
ROOT
HETATM    1  O           1     -21.341  -5.237  -8.943  0.00  0.00    -0.271 OA
HETATM    2  H           1     -22.987  -2.582  -9.241  0.00  0.00     0.163 HD
HETATM    3  C           1     -21.971  -4.266  -8.596  0.00  0.00     0.249 C 
HETATM    4  N           1     -22.460  -3.395  -9.532  0.00  0.00    -0.344 N 
ENDROOT
BRANCH   3   5
HETATM    5  C           1     -22.219  -4.014  -7.129  0.00  0.00     0.283 C 
BRANCH   5   6
HETATM    6  N           1     -23.520  -4.644  -6.727  0.00  0.00    -0.066 N 
HETATM    7  H           1     -24.238  -3.899  -6.579  0.00  0.00     0.275 HD
HETATM    8  H           1     -23.841  -5.291  -7.482  0.00  0.00     0.275 HD
HETATM    9  H           1     -23.388  -5.180  -5.840  0.00  0.00     0.275 HD
ENDBRANCH   5   6
BRANCH   5  10
HETATM   10  C           1     -21.088  -4.620  -6.309  0.00  0.00     0.145 C 
BRANCH  10  11
HETATM   11  C           1     -21.525  -5.956  -5.759  0.00  0.00     0.217 C 
HETATM   12  O           1     -22.138  -6.011  -4.719  0.00  0.00    -0.274 OA
HETATM   13  N           1     -21.228  -7.106  -6.440  0.00  0.00    -0.370 N 
HETATM   14  H           1     -21.521  -8.002  -6.072  0.00  0.00     0.159 HD
HETATM   15  H           1     -20.715  -7.060  -7.311  0.00  0.00     0.159 HD
ENDBRANCH  10  11
ENDBRANCH   5  10
ENDBRANCH   3   5
BRANCH   4  16
HETATM   16  C           1     -22.220  -3.638 -10.942  0.00  0.00     0.194 C 
BRANCH  16  17
HETATM   17  C           1     -20.757  -3.431 -11.246  0.00  0.00     0.197 C 
HETATM   18  O           1     -20.267  -2.281 -11.209  0.00  0.00    -0.646 OA
HETATM   19  O           1     -20.035  -4.409 -11.537  0.00  0.00    -0.646 OA
ENDBRANCH  16  17
BRANCH  16  20
HETATM   20  C           1     -23.054  -2.671 -11.771  0.00  0.00     0.138 C 
BRANCH  20  21
HETATM   21  C           1     -23.351  -3.287 -13.116  0.00  0.00     0.217 C 
HETATM   22  N           1     -22.488  -3.098 -14.161  0.00  0.00    -0.370 N 
HETATM   23  H           1     -21.650  -2.546 -14.032  0.00  0.00     0.159 HD
HETATM   24  H           1     -22.687  -3.511 -15.064  0.00  0.00     0.159 HD
HETATM   25  O           1     -24.351  -3.946 -13.271  0.00  0.00    -0.274 OA
ENDBRANCH  20  21
ENDBRANCH  16  20
ENDBRANCH   4  16
TORSDOF 8
ENDMDL
