MODEL 1
REMARK VINA RESULT:      -9.0      0.000      0.000
REMARK  9 active torsions:
REMARK  status: ('A' for Active; 'I' for Inactive)
REMARK    1  A    between atoms: C_1  and  C_25 
REMARK    2  A    between atoms: C_5  and  C_11 
REMARK    3  A    between atoms: N_6  and  C_25 
REMARK       I    between atoms: N_6  and  C_23 
REMARK    4  A    between atoms: N_10  and  C_12 
REMARK    5  A    between atoms: C_11  and  C_12 
REMARK    6  A    between atoms: C_12  and  C_23 
REMARK    7  A    between atoms: C_25  and  C_26 
REMARK    8  A    between atoms: C_26  and  C_29 
REMARK    9  A    between atoms: C_32  and  O_33 
ROOT
HETATM    1  H           1     -20.082  -7.199  -6.898  0.00  0.00     0.163 HD
HETATM    2  N           1     -20.109  -6.737  -5.998  0.00  0.00    -0.344 N 
HETATM    3  O           1     -20.189  -4.819  -4.858  0.00  0.00    -0.271 OA
HETATM    4  C           1     -20.158  -5.371  -5.932  0.00  0.00     0.249 C 
ENDROOT
BRANCH   4   5
HETATM    5  C           1     -20.173  -4.554  -7.201  0.00  0.00     0.278 C 
BRANCH   5   6
HETATM    6  N           1     -18.765  -4.227  -7.601  0.00  0.00    -0.066 N 
HETATM    7  H           1     -18.549  -3.238  -7.340  0.00  0.00     0.275 HD
HETATM    8  H           1     -18.105  -4.869  -7.107  0.00  0.00     0.275 HD
HETATM    9  H           1     -18.660  -4.345  -8.634  0.00  0.00     0.275 HD
ENDBRANCH   5   6
BRANCH   5  10
HETATM   10  C           1     -20.844  -5.353  -8.312  0.00  0.00     0.083 C 
BRANCH  10  11
HETATM   11  C           1     -22.117  -4.677  -8.713  0.00  0.00    -0.028 A 
HETATM   12  C           1     -23.182  -4.394  -7.888  0.00  0.00     0.096 A 
HETATM   13  N           1     -24.143  -3.774  -8.642  0.00  0.00    -0.365 N 
HETATM   14  C           1     -23.719  -3.649  -9.946  0.00  0.00     0.042 A 
HETATM   15  H           1     -25.070  -3.442  -8.278  0.00  0.00     0.165 HD
HETATM   16  C           1     -22.444  -4.211 -10.017  0.00  0.00    -0.002 A 
HETATM   17  C           1     -24.361  -3.087 -11.056  0.00  0.00     0.030 A 
HETATM   18  C           1     -21.772  -4.214 -11.255  0.00  0.00     0.014 A 
HETATM   19  C           1     -22.400  -3.656 -12.376  0.00  0.00     0.001 A 
HETATM   20  C           1     -23.675  -3.102 -12.274  0.00  0.00     0.002 A 
ENDBRANCH  10  11
ENDBRANCH   5  10
ENDBRANCH   4   5
BRANCH   2  21
HETATM   21  C           1     -20.095  -7.522  -4.779  0.00  0.00     0.189 C 
BRANCH  21  22
HETATM   22  C           1     -19.163  -8.696  -4.948  0.00  0.00     0.197 C 
HETATM   23  O           1     -18.987  -9.197  -6.081  0.00  0.00    -0.646 OA
HETATM   24  O           1     -18.567  -9.168  -3.957  0.00  0.00    -0.646 OA
ENDBRANCH  21  22
BRANCH  21  25
HETATM   25  C           1     -21.500  -8.029  -4.485  0.00  0.00     0.074 C 
BRANCH  25  26
HETATM   26  C           1     -21.749  -7.986  -3.009  0.00  0.00    -0.056 A 
HETATM   27  C           1     -21.993  -6.767  -2.379  0.00  0.00     0.010 A 
HETATM   28  C           1     -22.225  -6.726  -1.004  0.00  0.00     0.037 A 
HETATM   29  C           1     -22.211  -7.906  -0.259  0.00  0.00     0.065 A 
HETATM   30  C           1     -21.966  -9.126  -0.890  0.00  0.00     0.037 A 
HETATM   31  C           1     -21.735  -9.166  -2.265  0.00  0.00     0.010 A 
BRANCH  29  32
HETATM   32  O           1     -22.435  -7.867   1.076  0.00  0.00    -0.361 OA
HETATM   33  H           1     -21.861  -8.530   1.497  0.00  0.00     0.217 HD
ENDBRANCH  29  32
ENDBRANCH  25  26
ENDBRANCH  21  25
ENDBRANCH   2  21
TORSDOF 9
ENDMDL
MODEL 2
REMARK VINA RESULT:      -8.6      1.230      2.035
REMARK  9 active torsions:
REMARK  status: ('A' for Active; 'I' for Inactive)
REMARK    1  A    between atoms: C_1  and  C_25 
REMARK    2  A    between atoms: C_5  and  C_11 
REMARK    3  A    between atoms: N_6  and  C_25 
REMARK       I    between atoms: N_6  and  C_23 
REMARK    4  A    between atoms: N_10  and  C_12 
REMARK    5  A    between atoms: C_11  and  C_12 
REMARK    6  A    between atoms: C_12  and  C_23 
REMARK    7  A    between atoms: C_25  and  C_26 
REMARK    8  A    between atoms: C_26  and  C_29 
REMARK    9  A    between atoms: C_32  and  O_33 
ROOT
HETATM    1  H           1     -21.881  -7.938  -6.163  0.00  0.00     0.163 HD
HETATM    2  N           1     -21.401  -7.362  -5.483  0.00  0.00    -0.344 N 
HETATM    3  O           1     -20.874  -5.310  -4.778  0.00  0.00    -0.271 OA
HETATM    4  C           1     -21.447  -5.998  -5.588  0.00  0.00     0.249 C 
ENDROOT
BRANCH   4   5
HETATM    5  C           1     -22.216  -5.354  -6.716  0.00  0.00     0.278 C 
BRANCH   5   6
HETATM    6  N           1     -23.595  -5.003  -6.244  0.00  0.00    -0.066 N 
HETATM    7  H           1     -24.110  -4.508  -7.007  0.00  0.00     0.275 HD
HETATM    8  H           1     -24.109  -5.877  -5.989  0.00  0.00     0.275 HD
HETATM    9  H           1     -23.530  -4.380  -5.407  0.00  0.00     0.275 HD
ENDBRANCH   5   6
BRANCH   5  10
HETATM   10  C           1     -21.496  -4.088  -7.164  0.00  0.00     0.083 C 
BRANCH  10  11
HETATM   11  C           1     -21.282  -4.133  -8.645  0.00  0.00    -0.028 A 
HETATM   12  C           1     -20.102  -4.439  -9.285  0.00  0.00     0.096 A 
HETATM   13  N           1     -20.328  -4.369 -10.634  0.00  0.00    -0.365 N 
HETATM   14  C           1     -21.638  -4.023 -10.880  0.00  0.00     0.042 A 
HETATM   15  H           1     -19.606  -4.553 -11.374  0.00  0.00     0.165 HD
HETATM   16  C           1     -22.261  -3.868  -9.642  0.00  0.00    -0.002 A 
HETATM   17  C           1     -22.311  -3.837 -12.094  0.00  0.00     0.030 A 
HETATM   18  C           1     -23.623  -3.511  -9.608  0.00  0.00     0.014 A 
HETATM   19  C           1     -24.311  -3.321 -10.812  0.00  0.00     0.001 A 
HETATM   20  C           1     -23.662  -3.483 -12.035  0.00  0.00     0.002 A 
ENDBRANCH  10  11
ENDBRANCH   5  10
ENDBRANCH   4   5
BRANCH   2  21
HETATM   21  C           1     -20.663  -7.981  -4.400  0.00  0.00     0.189 C 
BRANCH  21  22
HETATM   22  C           1     -19.364  -8.537  -4.929  0.00  0.00     0.197 C 
HETATM   23  O           1     -18.595  -9.163  -4.167  0.00  0.00    -0.646 OA
HETATM   24  O           1     -19.057  -8.373  -6.130  0.00  0.00    -0.646 OA
ENDBRANCH  21  22
BRANCH  21  25
HETATM   25  C           1     -21.491  -9.110  -3.801  0.00  0.00     0.074 C 
BRANCH  25  26
HETATM   26  C           1     -21.870  -8.761  -2.395  0.00  0.00    -0.056 A 
HETATM   27  C           1     -21.867  -7.430  -1.983  0.00  0.00     0.010 A 
HETATM   28  C           1     -22.220  -7.104  -0.673  0.00  0.00     0.037 A 
HETATM   29  C           1     -22.576  -8.111   0.224  0.00  0.00     0.065 A 
HETATM   30  C           1     -22.580  -9.444  -0.189  0.00  0.00     0.037 A 
HETATM   31  C           1     -22.226  -9.769  -1.499  0.00  0.00     0.010 A 
BRANCH  29  32
HETATM   32  O           1     -22.919  -7.795   1.496  0.00  0.00    -0.361 OA
HETATM   33  H           1     -23.208  -6.867   1.507  0.00  0.00     0.217 HD
ENDBRANCH  29  32
ENDBRANCH  25  26
ENDBRANCH  21  25
ENDBRANCH   2  21
TORSDOF 9
ENDMDL
MODEL 3
REMARK VINA RESULT:      -8.6      1.445      1.712
REMARK  9 active torsions:
REMARK  status: ('A' for Active; 'I' for Inactive)
REMARK    1  A    between atoms: C_1  and  C_25 
REMARK    2  A    between atoms: C_5  and  C_11 
REMARK    3  A    between atoms: N_6  and  C_25 
REMARK       I    between atoms: N_6  and  C_23 
REMARK    4  A    between atoms: N_10  and  C_12 
REMARK    5  A    between atoms: C_11  and  C_12 
REMARK    6  A    between atoms: C_12  and  C_23 
REMARK    7  A    between atoms: C_25  and  C_26 
REMARK    8  A    between atoms: C_26  and  C_29 
REMARK    9  A    between atoms: C_32  and  O_33 
ROOT
HETATM    1  H           1     -21.167  -7.077  -3.853  0.00  0.00     0.163 HD
HETATM    2  N           1     -20.512  -7.530  -4.479  0.00  0.00    -0.344 N 
HETATM    3  O           1     -19.416  -7.488  -6.424  0.00  0.00    -0.271 OA
HETATM    4  C           1     -20.197  -6.948  -5.677  0.00  0.00     0.249 C 
ENDROOT
BRANCH   4   5
HETATM    5  C           1     -20.824  -5.631  -6.064  0.00  0.00     0.278 C 
BRANCH   5   6
HETATM    6  N           1     -20.172  -4.522  -5.293  0.00  0.00    -0.066 N 
HETATM    7  H           1     -20.770  -3.666  -5.340  0.00  0.00     0.275 HD
HETATM    8  H           1     -20.060  -4.811  -4.295  0.00  0.00     0.275 HD
HETATM    9  H           1     -19.235  -4.314  -5.705  0.00  0.00     0.275 HD
ENDBRANCH   5   6
BRANCH   5  10
HETATM   10  C           1     -20.628  -5.394  -7.556  0.00  0.00     0.083 C 
BRANCH  10  11
HETATM   11  C           1     -21.856  -4.755  -8.125  0.00  0.00    -0.028 A 
HETATM   12  C           1     -23.028  -4.501  -7.448  0.00  0.00     0.096 A 
HETATM   13  N           1     -23.898  -3.910  -8.325  0.00  0.00    -0.365 N 
HETATM   14  C           1     -23.310  -3.775  -9.563  0.00  0.00     0.042 A 
HETATM   15  H           1     -24.873  -3.604  -8.088  0.00  0.00     0.165 HD
HETATM   16  C           1     -22.021  -4.301  -9.463  0.00  0.00    -0.002 A 
HETATM   17  C           1     -23.815  -3.234 -10.751  0.00  0.00     0.030 A 
HETATM   18  C           1     -21.193  -4.286 -10.602  0.00  0.00     0.014 A 
HETATM   19  C           1     -21.683  -3.749 -11.798  0.00  0.00     0.001 A 
HETATM   20  C           1     -22.976  -3.231 -11.868  0.00  0.00     0.002 A 
ENDBRANCH  10  11
ENDBRANCH   5  10
ENDBRANCH   4   5
BRANCH   2  21
HETATM   21  C           1     -19.909  -8.795  -4.106  0.00  0.00     0.189 C 
BRANCH  21  22
HETATM   22  C           1     -20.931  -9.897  -4.239  0.00  0.00     0.197 C 
HETATM   23  O           1     -20.573 -11.093  -4.168  0.00  0.00    -0.646 OA
HETATM   24  O           1     -22.135  -9.614  -4.420  0.00  0.00    -0.646 OA
ENDBRANCH  21  22
BRANCH  21  25
HETATM   25  C           1     -19.427  -8.723  -2.663  0.00  0.00     0.074 C 
BRANCH  25  26
HETATM   26  C           1     -20.587  -8.440  -1.760  0.00  0.00    -0.056 A 
HETATM   27  C           1     -21.216  -7.196  -1.803  0.00  0.00     0.010 A 
HETATM   28  C           1     -22.297  -6.933  -0.962  0.00  0.00     0.037 A 
HETATM   29  C           1     -22.749  -7.914  -0.078  0.00  0.00     0.065 A 
HETATM   30  C           1     -22.120  -9.158  -0.037  0.00  0.00     0.037 A 
HETATM   31  C           1     -21.038  -9.421  -0.878  0.00  0.00     0.010 A 
BRANCH  29  32
HETATM   32  O           1     -23.799  -7.658   0.739  0.00  0.00    -0.361 OA
HETATM   33  H           1     -23.679  -6.768   1.113  0.00  0.00     0.217 HD
ENDBRANCH  29  32
ENDBRANCH  25  26
ENDBRANCH  21  25
ENDBRANCH   2  21
TORSDOF 9
ENDMDL
MODEL 4
REMARK VINA RESULT:      -8.5      2.810      8.709
REMARK  9 active torsions:
REMARK  status: ('A' for Active; 'I' for Inactive)
REMARK    1  A    between atoms: C_1  and  C_25 
REMARK    2  A    between atoms: C_5  and  C_11 
REMARK    3  A    between atoms: N_6  and  C_25 
REMARK       I    between atoms: N_6  and  C_23 
REMARK    4  A    between atoms: N_10  and  C_12 
REMARK    5  A    between atoms: C_11  and  C_12 
REMARK    6  A    between atoms: C_12  and  C_23 
REMARK    7  A    between atoms: C_25  and  C_26 
REMARK    8  A    between atoms: C_26  and  C_29 
REMARK    9  A    between atoms: C_32  and  O_33 
ROOT
HETATM    1  H           1     -20.776  -4.284  -4.685  0.00  0.00     0.163 HD
HETATM    2  N           1     -21.016  -5.155  -5.143  0.00  0.00    -0.344 N 
HETATM    3  O           1     -21.611  -7.297  -4.939  0.00  0.00    -0.271 OA
HETATM    4  C           1     -21.326  -6.257  -4.394  0.00  0.00     0.249 C 
ENDROOT
BRANCH   4   5
HETATM    5  C           1     -21.311  -6.175  -2.887  0.00  0.00     0.278 C 
BRANCH   5   6
HETATM    6  N           1     -22.713  -6.013  -2.382  0.00  0.00    -0.066 N 
HETATM    7  H           1     -23.388  -6.250  -3.144  0.00  0.00     0.275 HD
HETATM    8  H           1     -22.867  -6.654  -1.571  0.00  0.00     0.275 HD
HETATM    9  H           1     -22.864  -5.025  -2.079  0.00  0.00     0.275 HD
ENDBRANCH   5   6
BRANCH   5  10
HETATM   10  C           1     -20.710  -7.452  -2.314  0.00  0.00     0.083 C 
BRANCH  10  11
HETATM   11  C           1     -21.656  -8.046  -1.317  0.00  0.00    -0.028 A 
HETATM   12  C           1     -22.047  -7.473  -0.128  0.00  0.00     0.096 A 
HETATM   13  N           1     -22.916  -8.336   0.486  0.00  0.00    -0.365 N 
HETATM   14  C           1     -23.097  -9.460  -0.287  0.00  0.00     0.042 A 
HETATM   15  H           1     -23.378  -8.164   1.413  0.00  0.00     0.165 HD
HETATM   16  C           1     -22.313  -9.302  -1.430  0.00  0.00    -0.002 A 
HETATM   17  C           1     -23.887 -10.595  -0.063  0.00  0.00     0.030 A 
HETATM   18  C           1     -22.315 -10.323  -2.400  0.00  0.00     0.014 A 
HETATM   19  C           1     -23.099 -11.464  -2.192  0.00  0.00     0.001 A 
HETATM   20  C           1     -23.872 -11.595  -1.040  0.00  0.00     0.002 A 
ENDBRANCH  10  11
ENDBRANCH   5  10
ENDBRANCH   4   5
BRANCH   2  21
HETATM   21  C           1     -21.030  -5.233  -6.590  0.00  0.00     0.189 C 
BRANCH  21  22
HETATM   22  C           1     -19.644  -5.552  -7.090  0.00  0.00     0.197 C 
HETATM   23  O           1     -19.320  -6.738  -7.322  0.00  0.00    -0.646 OA
HETATM   24  O           1     -18.818  -4.632  -7.272  0.00  0.00    -0.646 OA
ENDBRANCH  21  22
BRANCH  21  25
HETATM   25  C           1     -21.482  -3.898  -7.167  0.00  0.00     0.074 C 
BRANCH  25  26
HETATM   26  C           1     -22.049  -4.111  -8.537  0.00  0.00    -0.056 A 
HETATM   27  C           1     -23.408  -4.382  -8.693  0.00  0.00     0.010 A 
HETATM   28  C           1     -23.937  -4.581  -9.969  0.00  0.00     0.037 A 
HETATM   29  C           1     -23.106  -4.509 -11.087  0.00  0.00     0.065 A 
HETATM   30  C           1     -21.747  -4.238 -10.930  0.00  0.00     0.037 A 
HETATM   31  C           1     -21.218  -4.039  -9.654  0.00  0.00     0.010 A 
BRANCH  29  32
HETATM   32  O           1     -23.619  -4.702 -12.326  0.00  0.00    -0.361 OA
HETATM   33  H           1     -22.883  -4.916 -12.926  0.00  0.00     0.217 HD
ENDBRANCH  29  32
ENDBRANCH  25  26
ENDBRANCH  21  25
ENDBRANCH   2  21
TORSDOF 9
ENDMDL
MODEL 5
REMARK VINA RESULT:      -8.5      2.461      8.791
REMARK  9 active torsions:
REMARK  status: ('A' for Active; 'I' for Inactive)
REMARK    1  A    between atoms: C_1  and  C_25 
REMARK    2  A    between atoms: C_5  and  C_11 
REMARK    3  A    between atoms: N_6  and  C_25 
REMARK       I    between atoms: N_6  and  C_23 
REMARK    4  A    between atoms: N_10  and  C_12 
REMARK    5  A    between atoms: C_11  and  C_12 
REMARK    6  A    between atoms: C_12  and  C_23 
REMARK    7  A    between atoms: C_25  and  C_26 
REMARK    8  A    between atoms: C_26  and  C_29 
REMARK    9  A    between atoms: C_32  and  O_33 
ROOT
HETATM    1  H           1     -22.307  -6.539  -6.076  0.00  0.00     0.163 HD
HETATM    2  N           1     -21.337  -6.554  -6.365  0.00  0.00    -0.344 N 
HETATM    3  O           1     -19.374  -7.618  -6.348  0.00  0.00    -0.271 OA
HETATM    4  C           1     -20.532  -7.601  -6.004  0.00  0.00     0.249 C 
ENDROOT
BRANCH   4   5
HETATM    5  C           1     -21.092  -8.733  -5.178  0.00  0.00     0.278 C 
BRANCH   5   6
HETATM    6  N           1     -21.096  -9.991  -5.994  0.00  0.00    -0.066 N 
HETATM    7  H           1     -20.131 -10.180  -6.349  0.00  0.00     0.275 HD
HETATM    8  H           1     -21.408 -10.791  -5.398  0.00  0.00     0.275 HD
HETATM    9  H           1     -21.749  -9.881  -6.802  0.00  0.00     0.275 HD
ENDBRANCH   5   6
BRANCH   5  10
HETATM   10  C           1     -20.227  -8.934  -3.940  0.00  0.00     0.083 C 
BRANCH  10  11
HETATM   11  C           1     -21.054  -9.536  -2.847  0.00  0.00    -0.028 A 
HETATM   12  C           1     -21.334 -10.874  -2.683  0.00  0.00     0.096 A 
HETATM   13  N           1     -22.117 -11.004  -1.567  0.00  0.00    -0.365 N 
HETATM   14  C           1     -22.350  -9.770  -1.002  0.00  0.00     0.042 A 
HETATM   15  H           1     -22.486 -11.914  -1.196  0.00  0.00     0.165 HD
HETATM   16  C           1     -21.691  -8.827  -1.791  0.00  0.00    -0.002 A 
HETATM   17  C           1     -23.088  -9.421   0.135  0.00  0.00     0.030 A 
HETATM   18  C           1     -21.768  -7.468  -1.429  0.00  0.00     0.014 A 
HETATM   19  C           1     -22.502  -7.102  -0.295  0.00  0.00     0.001 A 
HETATM   20  C           1     -23.151  -8.066   0.474  0.00  0.00     0.002 A 
ENDBRANCH  10  11
ENDBRANCH   5  10
ENDBRANCH   4   5
BRANCH   2  21
HETATM   21  C           1     -20.800  -5.466  -7.159  0.00  0.00     0.189 C 
BRANCH  21  22
HETATM   22  C           1     -19.777  -4.709  -6.348  0.00  0.00     0.197 C 
HETATM   23  O           1     -18.692  -4.372  -6.869  0.00  0.00    -0.646 OA
HETATM   24  O           1     -20.014  -4.419  -5.156  0.00  0.00    -0.646 OA
ENDBRANCH  21  22
BRANCH  21  25
HETATM   25  C           1     -21.927  -4.524  -7.559  0.00  0.00     0.074 C 
BRANCH  25  26
HETATM   26  C           1     -21.898  -4.308  -9.040  0.00  0.00    -0.056 A 
HETATM   27  C           1     -20.684  -4.084  -9.687  0.00  0.00     0.010 A 
HETATM   28  C           1     -20.655  -3.883 -11.067  0.00  0.00     0.037 A 
HETATM   29  C           1     -21.843  -3.905 -11.799  0.00  0.00     0.065 A 
HETATM   30  C           1     -23.058  -4.130 -11.151  0.00  0.00     0.037 A 
HETATM   31  C           1     -23.085  -4.331  -9.771  0.00  0.00     0.010 A 
BRANCH  29  32
HETATM   32  O           1     -21.816  -3.710 -13.140  0.00  0.00    -0.361 OA
HETATM   33  H           1     -22.726  -3.536 -13.436  0.00  0.00     0.217 HD
ENDBRANCH  29  32
ENDBRANCH  25  26
ENDBRANCH  21  25
ENDBRANCH   2  21
TORSDOF 9
ENDMDL
MODEL 6
REMARK VINA RESULT:      -8.3      2.238      4.155
REMARK  9 active torsions:
REMARK  status: ('A' for Active; 'I' for Inactive)
REMARK    1  A    between atoms: C_1  and  C_25 
REMARK    2  A    between atoms: C_5  and  C_11 
REMARK    3  A    between atoms: N_6  and  C_25 
REMARK       I    between atoms: N_6  and  C_23 
REMARK    4  A    between atoms: N_10  and  C_12 
REMARK    5  A    between atoms: C_11  and  C_12 
REMARK    6  A    between atoms: C_12  and  C_23 
REMARK    7  A    between atoms: C_25  and  C_26 
REMARK    8  A    between atoms: C_26  and  C_29 
REMARK    9  A    between atoms: C_32  and  O_33 
ROOT
HETATM    1  H           1     -20.333  -6.641  -3.588  0.00  0.00     0.163 HD
HETATM    2  N           1     -20.501  -7.387  -4.252  0.00  0.00    -0.344 N 
HETATM    3  O           1     -21.130  -7.983  -6.309  0.00  0.00    -0.271 OA
HETATM    4  C           1     -20.929  -7.093  -5.518  0.00  0.00     0.249 C 
ENDROOT
BRANCH   4   5
HETATM    5  C           1     -21.149  -5.656  -5.926  0.00  0.00     0.278 C 
BRANCH   5   6
HETATM    6  N           1     -20.232  -4.768  -5.139  0.00  0.00    -0.066 N 
HETATM    7  H           1     -20.123  -5.149  -4.171  0.00  0.00     0.275 HD
HETATM    8  H           1     -19.298  -4.733  -5.605  0.00  0.00     0.275 HD
HETATM    9  H           1     -20.635  -3.806  -5.090  0.00  0.00     0.275 HD
ENDBRANCH   5   6
BRANCH   5  10
HETATM   10  C           1     -20.854  -5.500  -7.413  0.00  0.00     0.083 C 
BRANCH  10  11
HETATM   11  C           1     -21.988  -4.780  -8.073  0.00  0.00    -0.028 A 
HETATM   12  C           1     -23.182  -4.432  -7.483  0.00  0.00     0.096 A 
HETATM   13  N           1     -23.942  -3.790  -8.425  0.00  0.00    -0.365 N 
HETATM   14  C           1     -23.260  -3.716  -9.618  0.00  0.00     0.042 A 
HETATM   15  H           1     -24.906  -3.410  -8.260  0.00  0.00     0.165 HD
HETATM   16  C           1     -22.024  -4.333  -9.423  0.00  0.00    -0.002 A 
HETATM   17  C           1     -23.639  -3.155 -10.844  0.00  0.00     0.030 A 
HETATM   18  C           1     -21.119  -4.395 -10.500  0.00  0.00     0.014 A 
HETATM   19  C           1     -21.482  -3.839 -11.733  0.00  0.00     0.001 A 
HETATM   20  C           1     -22.724  -3.228 -11.899  0.00  0.00     0.002 A 
ENDBRANCH  10  11
ENDBRANCH   5  10
ENDBRANCH   4   5
BRANCH   2  21
HETATM   21  C           1     -20.290  -8.766  -3.859  0.00  0.00     0.189 C 
BRANCH  21  22
HETATM   22  C           1     -21.538  -9.300  -3.202  0.00  0.00     0.197 C 
HETATM   23  O           1     -21.881  -8.878  -2.076  0.00  0.00    -0.646 OA
HETATM   24  O           1     -22.231 -10.163  -3.784  0.00  0.00    -0.646 OA
ENDBRANCH  21  22
BRANCH  21  25
HETATM   25  C           1     -19.128  -8.844  -2.877  0.00  0.00     0.074 C 
BRANCH  25  26
HETATM   26  C           1     -17.947  -9.473  -3.548  0.00  0.00    -0.056 A 
HETATM   27  C           1     -16.781  -9.714  -2.822  0.00  0.00     0.010 A 
HETATM   28  C           1     -15.679 -10.300  -3.446  0.00  0.00     0.037 A 
HETATM   29  C           1     -15.745 -10.645  -4.797  0.00  0.00     0.065 A 
HETATM   30  C           1     -16.912 -10.404  -5.522  0.00  0.00     0.037 A 
HETATM   31  C           1     -18.013  -9.818  -4.897  0.00  0.00     0.010 A 
BRANCH  29  32
HETATM   32  O           1     -14.676 -11.214  -5.403  0.00  0.00    -0.361 OA
HETATM   33  H           1     -14.903 -11.359  -6.338  0.00  0.00     0.217 HD
ENDBRANCH  29  32
ENDBRANCH  25  26
ENDBRANCH  21  25
ENDBRANCH   2  21
TORSDOF 9
ENDMDL
MODEL 7
REMARK VINA RESULT:      -8.2      3.188      9.331
REMARK  9 active torsions:
REMARK  status: ('A' for Active; 'I' for Inactive)
REMARK    1  A    between atoms: C_1  and  C_25 
REMARK    2  A    between atoms: C_5  and  C_11 
REMARK    3  A    between atoms: N_6  and  C_25 
REMARK       I    between atoms: N_6  and  C_23 
REMARK    4  A    between atoms: N_10  and  C_12 
REMARK    5  A    between atoms: C_11  and  C_12 
REMARK    6  A    between atoms: C_12  and  C_23 
REMARK    7  A    between atoms: C_25  and  C_26 
REMARK    8  A    between atoms: C_26  and  C_29 
REMARK    9  A    between atoms: C_32  and  O_33 
ROOT
HETATM    1  H           1     -23.072  -5.359  -7.690  0.00  0.00     0.163 HD
HETATM    2  N           1     -22.408  -4.709  -8.091  0.00  0.00    -0.344 N 
HETATM    3  O           1     -20.378  -3.783  -8.002  0.00  0.00    -0.271 OA
HETATM    4  C           1     -21.171  -4.560  -7.525  0.00  0.00     0.249 C 
ENDROOT
BRANCH   4   5
HETATM    5  C           1     -20.797  -5.364  -6.304  0.00  0.00     0.278 C 
BRANCH   5   6
HETATM    6  N           1     -20.078  -4.484  -5.327  0.00  0.00    -0.066 N 
HETATM    7  H           1     -20.204  -4.859  -4.360  0.00  0.00     0.275 HD
HETATM    8  H           1     -19.059  -4.465  -5.560  0.00  0.00     0.275 HD
HETATM    9  H           1     -20.466  -3.515  -5.377  0.00  0.00     0.275 HD
ENDBRANCH   5   6
BRANCH   5  10
HETATM   10  C           1     -22.059  -5.918  -5.654  0.00  0.00     0.083 C 
BRANCH  10  11
HETATM   11  C           1     -21.703  -7.085  -4.787  0.00  0.00    -0.028 A 
HETATM   12  C           1     -21.229  -8.303  -5.220  0.00  0.00     0.096 A 
HETATM   13  N           1     -21.029  -9.090  -4.116  0.00  0.00    -0.365 N 
HETATM   14  C           1     -21.367  -8.401  -2.973  0.00  0.00     0.042 A 
HETATM   15  H           1     -20.670 -10.076  -4.140  0.00  0.00     0.165 HD
HETATM   16  C           1     -21.795  -7.134  -3.369  0.00  0.00    -0.002 A 
HETATM   17  C           1     -21.326  -8.801  -1.631  0.00  0.00     0.030 A 
HETATM   18  C           1     -22.203  -6.217  -2.381  0.00  0.00     0.014 A 
HETATM   19  C           1     -22.168  -6.600  -1.035  0.00  0.00     0.001 A 
HETATM   20  C           1     -21.735  -7.873  -0.669  0.00  0.00     0.002 A 
ENDBRANCH  10  11
ENDBRANCH   5  10
ENDBRANCH   4   5
BRANCH   2  21
HETATM   21  C           1     -22.767  -3.937  -9.264  0.00  0.00     0.189 C 
BRANCH  21  22
HETATM   22  C           1     -24.269  -3.889  -9.394  0.00  0.00     0.197 C 
HETATM   23  O           1     -24.864  -2.790  -9.375  0.00  0.00    -0.646 OA
HETATM   24  O           1     -24.920  -4.949  -9.520  0.00  0.00    -0.646 OA
ENDBRANCH  21  22
BRANCH  21  25
HETATM   25  C           1     -22.172  -4.589 -10.505  0.00  0.00     0.074 C 
BRANCH  25  26
HETATM   26  C           1     -22.660  -3.876 -11.728  0.00  0.00    -0.056 A 
HETATM   27  C           1     -22.220  -2.583 -12.003  0.00  0.00     0.010 A 
HETATM   28  C           1     -22.675  -1.918 -13.142  0.00  0.00     0.037 A 
HETATM   29  C           1     -23.571  -2.549 -14.006  0.00  0.00     0.065 A 
HETATM   30  C           1     -24.011  -3.844 -13.730  0.00  0.00     0.037 A 
HETATM   31  C           1     -23.556  -4.507 -12.590  0.00  0.00     0.010 A 
BRANCH  29  32
HETATM   32  O           1     -24.013  -1.904 -15.112  0.00  0.00    -0.361 OA
HETATM   33  H           1     -24.948  -1.676 -14.973  0.00  0.00     0.217 HD
ENDBRANCH  29  32
ENDBRANCH  25  26
ENDBRANCH  21  25
ENDBRANCH   2  21
TORSDOF 9
ENDMDL
MODEL 8
REMARK VINA RESULT:      -7.8      2.679      9.004
REMARK  9 active torsions:
REMARK  status: ('A' for Active; 'I' for Inactive)
REMARK    1  A    between atoms: C_1  and  C_25 
REMARK    2  A    between atoms: C_5  and  C_11 
REMARK    3  A    between atoms: N_6  and  C_25 
REMARK       I    between atoms: N_6  and  C_23 
REMARK    4  A    between atoms: N_10  and  C_12 
REMARK    5  A    between atoms: C_11  and  C_12 
REMARK    6  A    between atoms: C_12  and  C_23 
REMARK    7  A    between atoms: C_25  and  C_26 
REMARK    8  A    between atoms: C_26  and  C_29 
REMARK    9  A    between atoms: C_32  and  O_33 
ROOT
HETATM    1  H           1     -20.696  -4.615  -5.480  0.00  0.00     0.163 HD
HETATM    2  N           1     -20.919  -5.317  -6.175  0.00  0.00    -0.344 N 
HETATM    3  O           1     -21.361  -7.459  -6.626  0.00  0.00    -0.271 OA
HETATM    4  C           1     -21.095  -6.621  -5.797  0.00  0.00     0.249 C 
ENDROOT
BRANCH   4   5
HETATM    5  C           1     -20.957  -7.012  -4.346  0.00  0.00     0.278 C 
BRANCH   5   6
HETATM    6  N           1     -21.412  -5.877  -3.478  0.00  0.00    -0.066 N 
HETATM    7  H           1     -20.735  -5.746  -2.693  0.00  0.00     0.275 HD
HETATM    8  H           1     -21.458  -5.002  -4.047  0.00  0.00     0.275 HD
HETATM    9  H           1     -22.358  -6.092  -3.089  0.00  0.00     0.275 HD
ENDBRANCH   5   6
BRANCH   5  10
HETATM   10  C           1     -21.815  -8.240  -4.067  0.00  0.00     0.083 C 
BRANCH  10  11
HETATM   11  C           1     -21.233  -9.006  -2.921  0.00  0.00    -0.028 A 
HETATM   12  C           1     -20.380 -10.083  -3.013  0.00  0.00     0.096 A 
HETATM   13  N           1     -20.082 -10.491  -1.741  0.00  0.00    -0.365 N 
HETATM   14  C           1     -20.728  -9.696  -0.821  0.00  0.00     0.042 A 
HETATM   15  H           1     -19.452 -11.296  -1.501  0.00  0.00     0.165 HD
HETATM   16  C           1     -21.461  -8.751  -1.540  0.00  0.00    -0.002 A 
HETATM   17  C           1     -20.720  -9.740   0.578  0.00  0.00     0.030 A 
HETATM   18  C           1     -22.223  -7.801  -0.832  0.00  0.00     0.014 A 
HETATM   19  C           1     -22.226  -7.832   0.568  0.00  0.00     0.001 A 
HETATM   20  C           1     -21.484  -8.789   1.259  0.00  0.00     0.002 A 
ENDBRANCH  10  11
ENDBRANCH   5  10
ENDBRANCH   4   5
BRANCH   2  21
HETATM   21  C           1     -21.052  -4.941  -7.568  0.00  0.00     0.189 C 
BRANCH  21  22
HETATM   22  C           1     -19.685  -4.868  -8.202  0.00  0.00     0.197 C 
HETATM   23  O           1     -18.719  -4.409  -7.554  0.00  0.00    -0.646 OA
HETATM   24  O           1     -19.517  -5.266  -9.375  0.00  0.00    -0.646 OA
ENDBRANCH  21  22
BRANCH  21  25
HETATM   25  C           1     -21.728  -3.580  -7.666  0.00  0.00     0.074 C 
BRANCH  25  26
HETATM   26  C           1     -22.576  -3.529  -8.899  0.00  0.00    -0.056 A 
HETATM   27  C           1     -23.960  -3.663  -8.798  0.00  0.00     0.010 A 
HETATM   28  C           1     -24.751  -3.616  -9.947  0.00  0.00     0.037 A 
HETATM   29  C           1     -24.156  -3.436 -11.196  0.00  0.00     0.065 A 
HETATM   30  C           1     -22.771  -3.302 -11.296  0.00  0.00     0.037 A 
HETATM   31  C           1     -21.981  -3.349 -10.147  0.00  0.00     0.010 A 
BRANCH  29  32
HETATM   32  O           1     -24.923  -3.391 -12.311  0.00  0.00    -0.361 OA
HETATM   33  H           1     -24.383  -3.025 -13.033  0.00  0.00     0.217 HD
ENDBRANCH  29  32
ENDBRANCH  25  26
ENDBRANCH  21  25
ENDBRANCH   2  21
TORSDOF 9
ENDMDL
MODEL 9
REMARK VINA RESULT:      -7.7      2.484      3.671
REMARK  9 active torsions:
REMARK  status: ('A' for Active; 'I' for Inactive)
REMARK    1  A    between atoms: C_1  and  C_25 
REMARK    2  A    between atoms: C_5  and  C_11 
REMARK    3  A    between atoms: N_6  and  C_25 
REMARK       I    between atoms: N_6  and  C_23 
REMARK    4  A    between atoms: N_10  and  C_12 
REMARK    5  A    between atoms: C_11  and  C_12 
REMARK    6  A    between atoms: C_12  and  C_23 
REMARK    7  A    between atoms: C_25  and  C_26 
REMARK    8  A    between atoms: C_26  and  C_29 
REMARK    9  A    between atoms: C_32  and  O_33 
ROOT
HETATM    1  H           1     -21.866  -7.893  -4.785  0.00  0.00     0.163 HD
HETATM    2  N           1     -20.929  -7.866  -5.168  0.00  0.00    -0.344 N 
HETATM    3  O           1     -19.483  -6.894  -6.564  0.00  0.00    -0.271 OA
HETATM    4  C           1     -20.601  -6.926  -6.107  0.00  0.00     0.249 C 
ENDROOT
BRANCH   4   5
HETATM    5  C           1     -21.635  -5.929  -6.571  0.00  0.00     0.278 C 
BRANCH   5   6
HETATM    6  N           1     -22.615  -5.676  -5.465  0.00  0.00    -0.066 N 
HETATM    7  H           1     -22.098  -5.465  -4.581  0.00  0.00     0.275 HD
HETATM    8  H           1     -23.220  -4.862  -5.716  0.00  0.00     0.275 HD
HETATM    9  H           1     -23.210  -6.523  -5.325  0.00  0.00     0.275 HD
ENDBRANCH   5   6
BRANCH   5  10
HETATM   10  C           1     -20.948  -4.622  -6.948  0.00  0.00     0.083 C 
BRANCH  10  11
HETATM   11  C           1     -21.046  -4.416  -8.427  0.00  0.00    -0.028 A 
HETATM   12  C           1     -20.020  -4.550  -9.335  0.00  0.00     0.096 A 
HETATM   13  N           1     -20.524  -4.276 -10.579  0.00  0.00    -0.365 N 
HETATM   14  C           1     -21.862  -3.966 -10.493  0.00  0.00     0.042 A 
HETATM   15  H           1     -19.969  -4.299 -11.470  0.00  0.00     0.165 HD
HETATM   16  C           1     -22.216  -4.047  -9.146  0.00  0.00    -0.002 A 
HETATM   17  C           1     -22.778  -3.622 -11.496  0.00  0.00     0.030 A 
HETATM   18  C           1     -23.547  -3.774  -8.777  0.00  0.00     0.014 A 
HETATM   19  C           1     -24.475  -3.429  -9.767  0.00  0.00     0.001 A 
HETATM   20  C           1     -24.093  -3.355 -11.105  0.00  0.00     0.002 A 
ENDBRANCH  10  11
ENDBRANCH   5  10
ENDBRANCH   4   5
BRANCH   2  21
HETATM   21  C           1     -19.936  -8.823  -4.722  0.00  0.00     0.189 C 
BRANCH  21  22
HETATM   22  C           1     -20.296 -10.196  -5.232  0.00  0.00     0.197 C 
HETATM   23  O           1     -19.607 -10.730  -6.129  0.00  0.00    -0.646 OA
HETATM   24  O           1     -21.284 -10.800  -4.761  0.00  0.00    -0.646 OA
ENDBRANCH  21  22
BRANCH  21  25
HETATM   25  C           1     -19.897  -8.844  -3.199  0.00  0.00     0.074 C 
BRANCH  25  26
HETATM   26  C           1     -18.735  -9.669  -2.739  0.00  0.00    -0.056 A 
HETATM   27  C           1     -17.444  -9.343  -3.150  0.00  0.00     0.010 A 
HETATM   28  C           1     -16.361 -10.112  -2.722  0.00  0.00     0.037 A 
HETATM   29  C           1     -16.572 -11.207  -1.883  0.00  0.00     0.065 A 
HETATM   30  C           1     -17.865 -11.533  -1.473  0.00  0.00     0.037 A 
HETATM   31  C           1     -18.947 -10.764  -1.902  0.00  0.00     0.010 A 
BRANCH  29  32
HETATM   32  O           1     -15.521 -11.954  -1.468  0.00  0.00    -0.361 OA
HETATM   33  H           1     -15.454 -12.730  -2.051  0.00  0.00     0.217 HD
ENDBRANCH  29  32
ENDBRANCH  25  26
ENDBRANCH  21  25
ENDBRANCH   2  21
TORSDOF 9
ENDMDL
