MODEL 1
REMARK VINA RESULT:      -6.7      0.000      0.000
REMARK  8 active torsions:
REMARK  status: ('A' for Active; 'I' for Inactive)
REMARK    1  A    between atoms: C_2  and  C_12 
REMARK    2  A    between atoms: C_2  and  C_3 
REMARK    3  A    between atoms: N_7  and  C_12 
REMARK    4  A    between atoms: C_10  and  C_24 
REMARK    5  A    between atoms: C_12  and  C_20 
REMARK    6  A    between atoms: C_15  and  C_24 
REMARK    7  A    between atoms: C_15  and  C_16 
REMARK    8  A    between atoms: C_15  and  N_19 
REMARK       I    between atoms: N_19  and  C_20 
ROOT
HETATM    1  C           1     -21.127  -5.637  -6.951  0.00  0.00     0.280 C 
ENDROOT
BRANCH   1   2
HETATM    2  C           1     -20.777  -5.092  -5.573  0.00  0.00     0.101 C 
BRANCH   2   3
HETATM    3  C           1     -21.138  -6.102  -4.529  0.00  0.00     0.028 A 
HETATM    4  C           1     -21.233  -7.456  -4.752  0.00  0.00     0.114 A 
HETATM    5  N           1     -21.581  -7.990  -3.542  0.00  0.00    -0.360 N 
HETATM    6  H           1     -21.742  -9.008  -3.336  0.00  0.00     0.166 HD
HETATM    7  C           1     -21.682  -6.960  -2.652  0.00  0.00     0.180 A 
HETATM    8  N           1     -21.420  -5.805  -3.220  0.00  0.00    -0.355 N 
ATOM      9  HN          1     -21.424  -4.885  -2.782  1.00  0.00     0.166 HD
ENDBRANCH   2   3
ENDBRANCH   1   2
BRANCH   1  10
HETATM   10  N           1     -19.883  -6.151  -7.615  0.00  0.00    -0.066 N 
HETATM   11  H           1     -19.431  -5.378  -8.153  0.00  0.00     0.275 HD
HETATM   12  H           1     -19.220  -6.503  -6.888  0.00  0.00     0.275 HD
HETATM   13  H           1     -20.133  -6.930  -8.265  0.00  0.00     0.275 HD
ENDBRANCH   1  10
BRANCH   1  14
HETATM   14  C           1     -21.727  -4.536  -7.791  0.00  0.00     0.249 C 
HETATM   15  O           1     -21.678  -3.392  -7.410  0.00  0.00    -0.271 OA
HETATM   16  N           1     -22.327  -4.836  -8.985  0.00  0.00    -0.344 N 
HETATM   17  H           1     -22.367  -5.796  -9.304  0.00  0.00     0.163 HD
BRANCH  16  18
HETATM   18  C           1     -22.903  -3.778  -9.792  0.00  0.00     0.189 C 
BRANCH  18  19
HETATM   19  C           1     -22.503  -3.974 -11.248  0.00  0.00     0.014 C 
HETATM   20  C           1     -22.873  -2.731 -12.047  0.00  0.00     0.012 C 
BRANCH  19  21
HETATM   21  C           1     -20.999  -4.202 -11.334  0.00  0.00     0.002 C 
HETATM   22  C           1     -20.274  -2.869 -11.195  0.00  0.00     0.005 C 
ENDBRANCH  19  21
ENDBRANCH  18  19
BRANCH  18  23
HETATM   23  C           1     -24.407  -3.821  -9.674  0.00  0.00     0.197 C 
HETATM   24  O           1     -25.014  -4.906  -9.811  0.00  0.00    -0.646 OA
HETATM   25  O           1     -25.047  -2.773  -9.439  0.00  0.00    -0.646 OA
ENDBRANCH  18  23
ENDBRANCH  16  18
ENDBRANCH   1  14
TORSDOF 8
ENDMDL
MODEL 2
REMARK VINA RESULT:      -6.6      2.737      7.096
REMARK  8 active torsions:
REMARK  status: ('A' for Active; 'I' for Inactive)
REMARK    1  A    between atoms: C_2  and  C_12 
REMARK    2  A    between atoms: C_2  and  C_3 
REMARK    3  A    between atoms: N_7  and  C_12 
REMARK    4  A    between atoms: C_10  and  C_24 
REMARK    5  A    between atoms: C_12  and  C_20 
REMARK    6  A    between atoms: C_15  and  C_24 
REMARK    7  A    between atoms: C_15  and  C_16 
REMARK    8  A    between atoms: C_15  and  N_19 
REMARK       I    between atoms: N_19  and  C_20 
ROOT
HETATM    1  C           1     -21.960  -4.431  -7.086  0.00  0.00     0.280 C 
ENDROOT
BRANCH   1   2
HETATM    2  C           1     -21.945  -4.938  -8.522  0.00  0.00     0.101 C 
BRANCH   2   3
HETATM    3  C           1     -23.108  -4.360  -9.267  0.00  0.00     0.028 A 
HETATM    4  C           1     -23.280  -4.438 -10.629  0.00  0.00     0.114 A 
HETATM    5  N           1     -24.457  -3.788 -10.875  0.00  0.00    -0.360 N 
HETATM    6  H           1     -24.906  -3.649 -11.815  0.00  0.00     0.166 HD
HETATM    7  C           1     -24.944  -3.351  -9.676  0.00  0.00     0.180 A 
HETATM    8  N           1     -24.149  -3.682  -8.685  0.00  0.00    -0.355 N 
ATOM      9  HN          1     -24.278  -3.479  -7.694  1.00  0.00     0.166 HD
ENDBRANCH   2   3
ENDBRANCH   1   2
BRANCH   1  10
HETATM   10  N           1     -21.487  -3.008  -7.054  0.00  0.00    -0.066 N 
HETATM   11  H           1     -20.540  -2.965  -6.614  0.00  0.00     0.275 HD
HETATM   12  H           1     -21.434  -2.636  -8.030  0.00  0.00     0.275 HD
HETATM   13  H           1     -22.157  -2.431  -6.498  0.00  0.00     0.275 HD
ENDBRANCH   1  10
BRANCH   1  14
HETATM   14  C           1     -21.045  -5.284  -6.242  0.00  0.00     0.249 C 
HETATM   15  O           1     -19.853  -5.089  -6.257  0.00  0.00    -0.271 OA
HETATM   16  N           1     -21.566  -6.279  -5.459  0.00  0.00    -0.344 N 
HETATM   17  H           1     -22.565  -6.443  -5.447  0.00  0.00     0.163 HD
BRANCH  16  18
HETATM   18  C           1     -20.686  -7.099  -4.648  0.00  0.00     0.189 C 
BRANCH  18  19
HETATM   19  C           1     -21.401  -7.492  -3.362  0.00  0.00     0.014 C 
HETATM   20  C           1     -20.442  -8.264  -2.465  0.00  0.00     0.012 C 
BRANCH  19  21
HETATM   21  C           1     -21.872  -6.237  -2.639  0.00  0.00     0.002 C 
HETATM   22  C           1     -22.299  -6.598  -1.221  0.00  0.00     0.005 C 
ENDBRANCH  19  21
ENDBRANCH  18  19
BRANCH  18  23
HETATM   23  C           1     -20.312  -8.342  -5.415  0.00  0.00     0.197 C 
HETATM   24  O           1     -19.112  -8.575  -5.681  0.00  0.00    -0.646 OA
HETATM   25  O           1     -21.200  -9.141  -5.786  0.00  0.00    -0.646 OA
ENDBRANCH  18  23
ENDBRANCH  16  18
ENDBRANCH   1  14
TORSDOF 8
ENDMDL
MODEL 3
REMARK VINA RESULT:      -6.5     12.843     15.446
REMARK  8 active torsions:
REMARK  status: ('A' for Active; 'I' for Inactive)
REMARK    1  A    between atoms: C_2  and  C_12 
REMARK    2  A    between atoms: C_2  and  C_3 
REMARK    3  A    between atoms: N_7  and  C_12 
REMARK    4  A    between atoms: C_10  and  C_24 
REMARK    5  A    between atoms: C_12  and  C_20 
REMARK    6  A    between atoms: C_15  and  C_24 
REMARK    7  A    between atoms: C_15  and  C_16 
REMARK    8  A    between atoms: C_15  and  N_19 
REMARK       I    between atoms: N_19  and  C_20 
ROOT
HETATM    1  C           1     -35.930  -0.483 -12.126  0.00  0.00     0.280 C 
ENDROOT
BRANCH   1   2
HETATM    2  C           1     -35.276   0.390 -13.189  0.00  0.00     0.101 C 
BRANCH   2   3
HETATM    3  C           1     -35.710  -0.068 -14.547  0.00  0.00     0.028 A 
HETATM    4  C           1     -36.875   0.317 -15.166  0.00  0.00     0.114 A 
HETATM    5  N           1     -36.866  -0.330 -16.371  0.00  0.00    -0.360 N 
HETATM    6  H           1     -37.607  -0.271 -17.113  0.00  0.00     0.166 HD
HETATM    7  C           1     -35.718  -1.068 -16.433  0.00  0.00     0.180 A 
HETATM    8  N           1     -34.998  -0.929 -15.344  0.00  0.00    -0.355 N 
ATOM      9  HN          1     -34.102  -1.367 -15.135  1.00  0.00     0.166 HD
ENDBRANCH   2   3
ENDBRANCH   1   2
BRANCH   1  10
HETATM   10  N           1     -36.349   0.372 -10.967  0.00  0.00    -0.066 N 
HETATM   11  H           1     -37.316   0.734 -11.133  0.00  0.00     0.275 HD
HETATM   12  H           1     -36.337  -0.197 -10.091  0.00  0.00     0.275 HD
HETATM   13  H           1     -35.688   1.175 -10.870  0.00  0.00     0.275 HD
ENDBRANCH   1  10
BRANCH   1  14
HETATM   14  C           1     -34.944  -1.523 -11.652  0.00  0.00     0.249 C 
HETATM   15  O           1     -33.944  -1.184 -11.066  0.00  0.00    -0.271 OA
HETATM   16  N           1     -35.183  -2.851 -11.888  0.00  0.00    -0.344 N 
HETATM   17  H           1     -36.021  -3.134 -12.380  0.00  0.00     0.163 HD
BRANCH  16  18
HETATM   18  C           1     -34.236  -3.850 -11.433  0.00  0.00     0.189 C 
BRANCH  18  19
HETATM   19  C           1     -34.971  -5.151 -11.143  0.00  0.00     0.014 C 
HETATM   20  C           1     -35.119  -5.948 -12.434  0.00  0.00     0.012 C 
BRANCH  19  21
HETATM   21  C           1     -34.177  -5.969 -10.133  0.00  0.00     0.002 C 
HETATM   22  C           1     -34.933  -7.252  -9.811  0.00  0.00     0.005 C 
ENDBRANCH  19  21
ENDBRANCH  18  19
BRANCH  18  23
HETATM   23  C           1     -33.201  -4.084 -12.506  0.00  0.00     0.197 C 
HETATM   24  O           1     -33.488  -3.879 -13.706  0.00  0.00    -0.646 OA
HETATM   25  O           1     -32.057  -4.483 -12.196  0.00  0.00    -0.646 OA
ENDBRANCH  18  23
ENDBRANCH  16  18
ENDBRANCH   1  14
TORSDOF 8
ENDMDL
MODEL 4
REMARK VINA RESULT:      -6.3      2.684      7.247
REMARK  8 active torsions:
REMARK  status: ('A' for Active; 'I' for Inactive)
REMARK    1  A    between atoms: C_2  and  C_12 
REMARK    2  A    between atoms: C_2  and  C_3 
REMARK    3  A    between atoms: N_7  and  C_12 
REMARK    4  A    between atoms: C_10  and  C_24 
REMARK    5  A    between atoms: C_12  and  C_20 
REMARK    6  A    between atoms: C_15  and  C_24 
REMARK    7  A    between atoms: C_15  and  C_16 
REMARK    8  A    between atoms: C_15  and  N_19 
REMARK       I    between atoms: N_19  and  C_20 
ROOT
HETATM    1  C           1     -21.658  -5.090  -7.818  0.00  0.00     0.280 C 
ENDROOT
BRANCH   1   2
HETATM    2  C           1     -20.812  -4.158  -8.676  0.00  0.00     0.101 C 
BRANCH   2   3
HETATM    3  C           1     -21.332  -4.160 -10.079  0.00  0.00     0.028 A 
HETATM    4  C           1     -20.578  -3.879 -11.193  0.00  0.00     0.114 A 
HETATM    5  N           1     -21.443  -3.997 -12.246  0.00  0.00    -0.360 N 
HETATM    6  H           1     -21.210  -3.850 -13.260  0.00  0.00     0.166 HD
HETATM    7  C           1     -22.664  -4.338 -11.738  0.00  0.00     0.180 A 
HETATM    8  N           1     -22.628  -4.445 -10.430  0.00  0.00    -0.355 N 
ATOM      9  HN          1     -23.398  -4.687  -9.808  1.00  0.00     0.166 HD
ENDBRANCH   2   3
ENDBRANCH   1   2
BRANCH   1  10
HETATM   10  N           1     -22.716  -4.294  -7.112  0.00  0.00    -0.066 N 
HETATM   11  H           1     -22.934  -3.435  -7.666  0.00  0.00     0.275 HD
HETATM   12  H           1     -23.580  -4.873  -7.014  0.00  0.00     0.275 HD
HETATM   13  H           1     -22.370  -4.020  -6.165  0.00  0.00     0.275 HD
ENDBRANCH   1  10
BRANCH   1  14
HETATM   14  C           1     -20.780  -5.773  -6.799  0.00  0.00     0.249 C 
HETATM   15  O           1     -19.612  -5.479  -6.714  0.00  0.00    -0.271 OA
HETATM   16  N           1     -21.307  -6.729  -5.972  0.00  0.00    -0.344 N 
HETATM   17  H           1     -22.286  -6.976  -6.045  0.00  0.00     0.163 HD
BRANCH  16  18
HETATM   18  C           1     -20.463  -7.386  -4.993  0.00  0.00     0.189 C 
BRANCH  18  19
HETATM   19  C           1     -21.223  -7.530  -3.682  0.00  0.00     0.014 C 
HETATM   20  C           1     -20.364  -8.290  -2.679  0.00  0.00     0.012 C 
BRANCH  19  21
HETATM   21  C           1     -21.546  -6.148  -3.128  0.00  0.00     0.002 C 
HETATM   22  C           1     -22.201  -6.290  -1.759  0.00  0.00     0.005 C 
ENDBRANCH  19  21
ENDBRANCH  18  19
BRANCH  18  23
HETATM   23  C           1     -20.075  -8.752  -5.503  0.00  0.00     0.197 C 
HETATM   24  O           1     -20.960  -9.603  -5.745  0.00  0.00    -0.646 OA
HETATM   25  O           1     -18.871  -9.035  -5.683  0.00  0.00    -0.646 OA
ENDBRANCH  18  23
ENDBRANCH  16  18
ENDBRANCH   1  14
TORSDOF 8
ENDMDL
MODEL 5
REMARK VINA RESULT:      -5.9     12.631     15.079
REMARK  8 active torsions:
REMARK  status: ('A' for Active; 'I' for Inactive)
REMARK    1  A    between atoms: C_2  and  C_12 
REMARK    2  A    between atoms: C_2  and  C_3 
REMARK    3  A    between atoms: N_7  and  C_12 
REMARK    4  A    between atoms: C_10  and  C_24 
REMARK    5  A    between atoms: C_12  and  C_20 
REMARK    6  A    between atoms: C_15  and  C_24 
REMARK    7  A    between atoms: C_15  and  C_16 
REMARK    8  A    between atoms: C_15  and  N_19 
REMARK       I    between atoms: N_19  and  C_20 
ROOT
HETATM    1  C           1     -36.402  -1.329 -10.037  0.00  0.00     0.280 C 
ENDROOT
BRANCH   1   2
HETATM    2  C           1     -37.343  -0.675 -11.039  0.00  0.00     0.101 C 
BRANCH   2   3
HETATM    3  C           1     -36.552  -0.143 -12.193  0.00  0.00     0.028 A 
HETATM    4  C           1     -36.878  -0.327 -13.515  0.00  0.00     0.114 A 
HETATM    5  N           1     -35.898   0.320 -14.216  0.00  0.00    -0.360 N 
HETATM    6  H           1     -35.823   0.388 -15.262  0.00  0.00     0.166 HD
HETATM    7  C           1     -35.032   0.859 -13.308  0.00  0.00     0.180 A 
HETATM    8  N           1     -35.402   0.596 -12.075  0.00  0.00    -0.355 N 
ATOM      9  HN          1     -34.935   0.881 -11.215  1.00  0.00     0.166 HD
ENDBRANCH   2   3
ENDBRANCH   1   2
BRANCH   1  10
HETATM   10  N           1     -35.919  -0.299  -9.059  0.00  0.00    -0.066 N 
HETATM   11  H           1     -36.531   0.547  -9.114  0.00  0.00     0.275 HD
HETATM   12  H           1     -35.955  -0.692  -8.092  0.00  0.00     0.275 HD
HETATM   13  H           1     -34.935  -0.034  -9.291  0.00  0.00     0.275 HD
ENDBRANCH   1  10
BRANCH   1  14
HETATM   14  C           1     -35.221  -1.922 -10.766  0.00  0.00     0.249 C 
HETATM   15  O           1     -34.125  -1.430 -10.640  0.00  0.00    -0.271 OA
HETATM   16  N           1     -35.393  -3.016 -11.572  0.00  0.00    -0.344 N 
HETATM   17  H           1     -36.312  -3.426 -11.678  0.00  0.00     0.163 HD
BRANCH  16  18
HETATM   18  C           1     -34.259  -3.584 -12.274  0.00  0.00     0.189 C 
BRANCH  18  19
HETATM   19  C           1     -34.027  -5.010 -11.793  0.00  0.00     0.014 C 
HETATM   20  C           1     -32.534  -5.242 -11.596  0.00  0.00     0.012 C 
BRANCH  19  21
HETATM   21  C           1     -34.751  -5.223 -10.469  0.00  0.00     0.002 C 
HETATM   22  C           1     -34.699  -6.699 -10.094  0.00  0.00     0.005 C 
ENDBRANCH  19  21
ENDBRANCH  18  19
BRANCH  18  23
HETATM   23  C           1     -34.539  -3.593 -13.756  0.00  0.00     0.197 C 
HETATM   24  O           1     -34.618  -4.679 -14.371  0.00  0.00    -0.646 OA
HETATM   25  O           1     -34.694  -2.515 -14.371  0.00  0.00    -0.646 OA
ENDBRANCH  18  23
ENDBRANCH  16  18
ENDBRANCH   1  14
TORSDOF 8
ENDMDL
MODEL 6
REMARK VINA RESULT:      -5.9      2.831      7.063
REMARK  8 active torsions:
REMARK  status: ('A' for Active; 'I' for Inactive)
REMARK    1  A    between atoms: C_2  and  C_12 
REMARK    2  A    between atoms: C_2  and  C_3 
REMARK    3  A    between atoms: N_7  and  C_12 
REMARK    4  A    between atoms: C_10  and  C_24 
REMARK    5  A    between atoms: C_12  and  C_20 
REMARK    6  A    between atoms: C_15  and  C_24 
REMARK    7  A    between atoms: C_15  and  C_16 
REMARK    8  A    between atoms: C_15  and  N_19 
REMARK       I    between atoms: N_19  and  C_20 
ROOT
HETATM    1  C           1     -21.126  -4.924  -6.359  0.00  0.00     0.280 C 
ENDROOT
BRANCH   1   2
HETATM    2  C           1     -21.193  -5.493  -7.769  0.00  0.00     0.101 C 
BRANCH   2   3
HETATM    3  C           1     -22.092  -4.640  -8.609  0.00  0.00     0.028 A 
HETATM    4  C           1     -23.287  -4.111  -8.185  0.00  0.00     0.114 A 
HETATM    5  N           1     -23.765  -3.410  -9.258  0.00  0.00    -0.360 N 
HETATM    6  H           1     -24.666  -2.871  -9.296  0.00  0.00     0.166 HD
HETATM    7  C           1     -22.858  -3.540 -10.270  0.00  0.00     0.180 A 
HETATM    8  N           1     -21.835  -4.279  -9.907  0.00  0.00    -0.355 N 
ATOM      9  HN          1     -21.023  -4.530 -10.470  1.00  0.00     0.166 HD
ENDBRANCH   2   3
ENDBRANCH   1   2
BRANCH   1  10
HETATM   10  N           1     -19.691  -4.700  -5.979  0.00  0.00    -0.066 N 
HETATM   11  H           1     -19.583  -3.742  -5.576  0.00  0.00     0.275 HD
HETATM   12  H           1     -19.404  -5.411  -5.269  0.00  0.00     0.275 HD
HETATM   13  H           1     -19.089  -4.793  -6.828  0.00  0.00     0.275 HD
ENDBRANCH   1  10
BRANCH   1  14
HETATM   14  C           1     -21.755  -5.897  -5.392  0.00  0.00     0.249 C 
HETATM   15  O           1     -22.956  -6.009  -5.344  0.00  0.00    -0.271 OA
HETATM   16  N           1     -20.963  -6.653  -4.568  0.00  0.00    -0.344 N 
HETATM   17  H           1     -19.956  -6.557  -4.608  0.00  0.00     0.163 HD
BRANCH  16  18
HETATM   18  C           1     -21.569  -7.587  -3.639  0.00  0.00     0.189 C 
BRANCH  18  19
HETATM   19  C           1     -20.753  -8.873  -3.609  0.00  0.00     0.014 C 
HETATM   20  C           1     -21.580 -10.011  -4.195  0.00  0.00     0.012 C 
BRANCH  19  21
HETATM   21  C           1     -19.487  -8.690  -4.436  0.00  0.00     0.002 C 
HETATM   22  C           1     -18.315  -9.355  -3.724  0.00  0.00     0.005 C 
ENDBRANCH  19  21
ENDBRANCH  18  19
BRANCH  18  23
HETATM   23  C           1     -21.594  -6.976  -2.259  0.00  0.00     0.197 C 
HETATM   24  O           1     -20.898  -7.469  -1.345  0.00  0.00    -0.646 OA
HETATM   25  O           1     -22.312  -5.978  -2.030  0.00  0.00    -0.646 OA
ENDBRANCH  18  23
ENDBRANCH  16  18
ENDBRANCH   1  14
TORSDOF 8
ENDMDL
MODEL 7
REMARK VINA RESULT:      -5.6      3.536      8.075
REMARK  8 active torsions:
REMARK  status: ('A' for Active; 'I' for Inactive)
REMARK    1  A    between atoms: C_2  and  C_12 
REMARK    2  A    between atoms: C_2  and  C_3 
REMARK    3  A    between atoms: N_7  and  C_12 
REMARK    4  A    between atoms: C_10  and  C_24 
REMARK    5  A    between atoms: C_12  and  C_20 
REMARK    6  A    between atoms: C_15  and  C_24 
REMARK    7  A    between atoms: C_15  and  C_16 
REMARK    8  A    between atoms: C_15  and  N_19 
REMARK       I    between atoms: N_19  and  C_20 
ROOT
HETATM    1  C           1     -21.670  -6.501  -5.568  0.00  0.00     0.280 C 
ENDROOT
BRANCH   1   2
HETATM    2  C           1     -20.902  -5.219  -5.859  0.00  0.00     0.101 C 
BRANCH   2   3
HETATM    3  C           1     -21.278  -4.710  -7.216  0.00  0.00     0.028 A 
HETATM    4  C           1     -20.620  -5.028  -8.380  0.00  0.00     0.114 A 
HETATM    5  N           1     -21.291  -4.354  -9.363  0.00  0.00    -0.360 N 
HETATM    6  H           1     -21.063  -4.363 -10.389  0.00  0.00     0.166 HD
HETATM    7  C           1     -22.309  -3.667  -8.767  0.00  0.00     0.180 A 
HETATM    8  N           1     -22.327  -3.863  -7.469  0.00  0.00    -0.355 N 
ATOM      9  HN          1     -22.981  -3.470  -6.793  1.00  0.00     0.166 HD
ENDBRANCH   2   3
ENDBRANCH   1   2
BRANCH   1  10
HETATM   10  N           1     -23.048  -6.159  -5.083  0.00  0.00    -0.066 N 
HETATM   11  H           1     -23.752  -6.722  -5.611  0.00  0.00     0.275 HD
HETATM   12  H           1     -23.122  -6.376  -4.064  0.00  0.00     0.275 HD
HETATM   13  H           1     -23.227  -5.142  -5.236  0.00  0.00     0.275 HD
ENDBRANCH   1  10
BRANCH   1  14
HETATM   14  C           1     -20.945  -7.291  -4.505  0.00  0.00     0.249 C 
HETATM   15  O           1     -19.822  -7.685  -4.706  0.00  0.00    -0.271 OA
HETATM   16  N           1     -21.563  -7.562  -3.313  0.00  0.00    -0.344 N 
HETATM   17  H           1     -22.505  -7.232  -3.145  0.00  0.00     0.163 HD
BRANCH  16  18
HETATM   18  C           1     -20.866  -8.321  -2.292  0.00  0.00     0.189 C 
BRANCH  18  19
HETATM   19  C           1     -21.281  -7.820  -0.916  0.00  0.00     0.014 C 
HETATM   20  C           1     -22.240  -6.646  -1.071  0.00  0.00     0.012 C 
BRANCH  19  21
HETATM   21  C           1     -21.974  -8.942  -0.154  0.00  0.00     0.002 C 
HETATM   22  C           1     -23.221  -8.396   0.532  0.00  0.00     0.005 C 
ENDBRANCH  19  21
ENDBRANCH  18  19
BRANCH  18  23
HETATM   23  C           1     -21.222  -9.781  -2.424  0.00  0.00     0.197 C 
HETATM   24  O           1     -22.326 -10.114  -2.910  0.00  0.00    -0.646 OA
HETATM   25  O           1     -20.415 -10.659  -2.047  0.00  0.00    -0.646 OA
ENDBRANCH  18  23
ENDBRANCH  16  18
ENDBRANCH   1  14
TORSDOF 8
ENDMDL
MODEL 8
REMARK VINA RESULT:      -5.6      4.728      9.253
REMARK  8 active torsions:
REMARK  status: ('A' for Active; 'I' for Inactive)
REMARK    1  A    between atoms: C_2  and  C_12 
REMARK    2  A    between atoms: C_2  and  C_3 
REMARK    3  A    between atoms: N_7  and  C_12 
REMARK    4  A    between atoms: C_10  and  C_24 
REMARK    5  A    between atoms: C_12  and  C_20 
REMARK    6  A    between atoms: C_15  and  C_24 
REMARK    7  A    between atoms: C_15  and  C_16 
REMARK    8  A    between atoms: C_15  and  N_19 
REMARK       I    between atoms: N_19  and  C_20 
ROOT
HETATM    1  C           1     -21.012  -8.391  -4.123  0.00  0.00     0.280 C 
ENDROOT
BRANCH   1   2
HETATM    2  C           1     -21.879  -7.225  -4.578  0.00  0.00     0.101 C 
BRANCH   2   3
HETATM    3  C           1     -21.107  -6.376  -5.540  0.00  0.00     0.028 A 
HETATM    4  C           1     -20.545  -5.160  -5.231  0.00  0.00     0.114 A 
HETATM    5  N           1     -19.946  -4.743  -6.387  0.00  0.00    -0.360 N 
HETATM    6  H           1     -19.415  -3.846  -6.523  0.00  0.00     0.166 HD
HETATM    7  C           1     -20.163  -5.703  -7.332  0.00  0.00     0.180 A 
HETATM    8  N           1     -20.863  -6.704  -6.849  0.00  0.00    -0.355 N 
ATOM      9  HN          1     -21.162  -7.545  -7.342  1.00  0.00     0.166 HD
ENDBRANCH   2   3
ENDBRANCH   1   2
BRANCH   1  10
HETATM   10  N           1     -21.639  -9.681  -4.563  0.00  0.00    -0.066 N 
HETATM   11  H           1     -22.551  -9.483  -5.031  0.00  0.00     0.275 HD
HETATM   12  H           1     -21.002 -10.167  -5.234  0.00  0.00     0.275 HD
HETATM   13  H           1     -21.798 -10.292  -3.731  0.00  0.00     0.275 HD
ENDBRANCH   1  10
BRANCH   1  14
HETATM   14  C           1     -20.898  -8.377  -2.618  0.00  0.00     0.249 C 
HETATM   15  O           1     -20.491  -7.390  -2.053  0.00  0.00    -0.271 OA
HETATM   16  N           1     -21.255  -9.483  -1.893  0.00  0.00    -0.344 N 
HETATM   17  H           1     -21.595 -10.310  -2.368  0.00  0.00     0.163 HD
BRANCH  16  18
HETATM   18  C           1     -21.145  -9.468  -0.448  0.00  0.00     0.189 C 
BRANCH  18  19
HETATM   19  C           1     -22.534  -9.566   0.168  0.00  0.00     0.014 C 
HETATM   20  C           1     -23.118  -8.168   0.325  0.00  0.00     0.012 C 
BRANCH  19  21
HETATM   21  C           1     -23.435 -10.392  -0.741  0.00  0.00     0.002 C 
HETATM   22  C           1     -23.861 -11.663  -0.015  0.00  0.00     0.005 C 
ENDBRANCH  19  21
ENDBRANCH  18  19
BRANCH  18  23
HETATM   23  C           1     -20.311 -10.642   0.003  0.00  0.00     0.197 C 
HETATM   24  O           1     -19.451 -11.129  -0.763  0.00  0.00    -0.646 OA
HETATM   25  O           1     -20.479 -11.129   1.143  0.00  0.00    -0.646 OA
ENDBRANCH  18  23
ENDBRANCH  16  18
ENDBRANCH   1  14
TORSDOF 8
ENDMDL
MODEL 9
REMARK VINA RESULT:      -5.6      3.522      7.636
REMARK  8 active torsions:
REMARK  status: ('A' for Active; 'I' for Inactive)
REMARK    1  A    between atoms: C_2  and  C_12 
REMARK    2  A    between atoms: C_2  and  C_3 
REMARK    3  A    between atoms: N_7  and  C_12 
REMARK    4  A    between atoms: C_10  and  C_24 
REMARK    5  A    between atoms: C_12  and  C_20 
REMARK    6  A    between atoms: C_15  and  C_24 
REMARK    7  A    between atoms: C_15  and  C_16 
REMARK    8  A    between atoms: C_15  and  N_19 
REMARK       I    between atoms: N_19  and  C_20 
ROOT
HETATM    1  C           1     -21.565  -6.266  -5.544  0.00  0.00     0.280 C 
ENDROOT
BRANCH   1   2
HETATM    2  C           1     -20.906  -4.969  -5.992  0.00  0.00     0.101 C 
BRANCH   2   3
HETATM    3  C           1     -21.490  -4.539  -7.301  0.00  0.00     0.028 A 
HETATM    4  C           1     -20.802  -4.508  -8.491  0.00  0.00     0.114 A 
HETATM    5  N           1     -21.708  -4.060  -9.412  0.00  0.00    -0.360 N 
HETATM    6  H           1     -21.530  -3.910 -10.437  0.00  0.00     0.166 HD
HETATM    7  C           1     -22.886  -3.841  -8.757  0.00  0.00     0.180 A 
HETATM    8  N           1     -22.784  -4.122  -7.479  0.00  0.00    -0.355 N 
ATOM      9  HN          1     -23.513  -4.047  -6.769  1.00  0.00     0.166 HD
ENDBRANCH   2   3
ENDBRANCH   1   2
BRANCH   1  10
HETATM   10  N           1     -22.146  -6.083  -4.173  0.00  0.00    -0.066 N 
HETATM   11  H           1     -22.610  -6.969  -3.870  0.00  0.00     0.275 HD
HETATM   12  H           1     -21.384  -5.842  -3.500  0.00  0.00     0.275 HD
HETATM   13  H           1     -22.849  -5.310  -4.194  0.00  0.00     0.275 HD
ENDBRANCH   1  10
BRANCH   1  14
HETATM   14  C           1     -20.535  -7.369  -5.509  0.00  0.00     0.249 C 
HETATM   15  O           1     -19.644  -7.389  -6.324  0.00  0.00    -0.271 OA
HETATM   16  N           1     -20.611  -8.347  -4.553  0.00  0.00    -0.344 N 
HETATM   17  H           1     -21.358  -8.330  -3.871  0.00  0.00     0.163 HD
BRANCH  16  18
HETATM   18  C           1     -19.621  -9.407  -4.521  0.00  0.00     0.189 C 
BRANCH  18  19
HETATM   19  C           1     -19.171  -9.637  -3.084  0.00  0.00     0.014 C 
HETATM   20  C           1     -17.669  -9.402  -2.980  0.00  0.00     0.012 C 
BRANCH  19  21
HETATM   21  C           1     -19.900  -8.668  -2.163  0.00  0.00     0.002 C 
HETATM   22  C           1     -20.691  -9.453  -1.123  0.00  0.00     0.005 C 
ENDBRANCH  19  21
ENDBRANCH  18  19
BRANCH  18  23
HETATM   23  C           1     -20.227 -10.675  -5.067  0.00  0.00     0.197 C 
HETATM   24  O           1     -20.448 -10.784  -6.294  0.00  0.00    -0.646 OA
HETATM   25  O           1     -20.509 -11.618  -4.295  0.00  0.00    -0.646 OA
ENDBRANCH  18  23
ENDBRANCH  16  18
ENDBRANCH   1  14
TORSDOF 8
ENDMDL
