MODEL 1
REMARK VINA RESULT:      -6.1      0.000      0.000
REMARK  8 active torsions:
REMARK  status: ('A' for Active; 'I' for Inactive)
REMARK    1  A    between atoms: C_2  and  C_10 
REMARK    2  A    between atoms: C_2  and  C_14 
REMARK    3  A    between atoms: C_2  and  N_16 
REMARK    4  A    between atoms: C_7  and  C_19 
REMARK       I    between atoms: C_10  and  N_11 
REMARK    5  A    between atoms: N_11  and  C_18 
REMARK       I    between atoms: N_12  and  C_13 
REMARK    6  A    between atoms: C_13  and  C_14 
REMARK    7  A    between atoms: C_18  and  C_19 
REMARK    8  A    between atoms: C_18  and  C_23 
ROOT
HETATM    1  H           1     -22.394  -6.108  -9.258  0.00  0.00     0.163 HD
HETATM    2  C           1     -21.726  -4.736  -7.858  0.00  0.00     0.249 C 
HETATM    3  N           1     -22.319  -5.124  -9.029  0.00  0.00    -0.345 N 
HETATM    4  O           1     -21.638  -3.563  -7.585  0.00  0.00    -0.271 OA
ENDROOT
BRANCH   2   5
HETATM    5  C           1     -21.183  -5.775  -6.907  0.00  0.00     0.283 C 
BRANCH   5   6
HETATM    6  C           1     -21.049  -5.170  -5.516  0.00  0.00     0.145 C 
BRANCH   6   7
HETATM    7  C           1     -21.151  -6.263  -4.480  0.00  0.00     0.217 C 
HETATM    8  N           1     -21.754  -6.011  -3.277  0.00  0.00    -0.370 N 
HETATM    9  H           1     -22.131  -5.093  -3.082  0.00  0.00     0.159 HD
HETATM   10  H           1     -21.823  -6.745  -2.582  0.00  0.00     0.159 HD
HETATM   11  O           1     -20.702  -7.360  -4.713  0.00  0.00    -0.274 OA
ENDBRANCH   6   7
ENDBRANCH   5   6
BRANCH   5  12
HETATM   12  N           1     -19.836  -6.231  -7.384  0.00  0.00    -0.066 N 
HETATM   13  H           1     -19.099  -5.889  -6.726  0.00  0.00     0.275 HD
HETATM   14  H           1     -19.814  -7.275  -7.417  0.00  0.00     0.275 HD
HETATM   15  H           1     -19.655  -5.848  -8.339  0.00  0.00     0.275 HD
ENDBRANCH   5  12
ENDBRANCH   2   5
BRANCH   3  16
HETATM   16  C           1     -22.842  -4.126  -9.942  0.00  0.00     0.185 C 
BRANCH  16  17
HETATM   17  C           1     -22.619  -4.585 -11.377  0.00  0.00     0.040 C 
BRANCH  17  18
HETATM   18  C           1     -21.882  -3.499 -12.149  0.00  0.00    -0.020 C 
HETATM   19  C           1     -22.852  -2.377 -12.495  0.00  0.00     0.009 C 
HETATM   20  C           1     -20.751  -2.946 -11.292  0.00  0.00     0.009 C 
ENDBRANCH  17  18
ENDBRANCH  16  17
BRANCH  16  21
HETATM   21  C           1     -24.319  -3.944  -9.695  0.00  0.00     0.196 C 
HETATM   22  O           1     -24.779  -2.804  -9.469  0.00  0.00    -0.646 OA
HETATM   23  O           1     -25.084  -4.933  -9.717  0.00  0.00    -0.646 OA
ENDBRANCH  16  21
ENDBRANCH   3  16
TORSDOF 8
ENDMDL
MODEL 2
REMARK VINA RESULT:      -6.0      2.608      6.209
REMARK  8 active torsions:
REMARK  status: ('A' for Active; 'I' for Inactive)
REMARK    1  A    between atoms: C_2  and  C_10 
REMARK    2  A    between atoms: C_2  and  C_14 
REMARK    3  A    between atoms: C_2  and  N_16 
REMARK    4  A    between atoms: C_7  and  C_19 
REMARK       I    between atoms: C_10  and  N_11 
REMARK    5  A    between atoms: N_11  and  C_18 
REMARK       I    between atoms: N_12  and  C_13 
REMARK    6  A    between atoms: C_13  and  C_14 
REMARK    7  A    between atoms: C_18  and  C_19 
REMARK    8  A    between atoms: C_18  and  C_23 
ROOT
HETATM    1  H           1     -23.109  -3.031  -9.256  0.00  0.00     0.163 HD
HETATM    2  C           1     -21.592  -3.796 -10.438  0.00  0.00     0.249 C 
HETATM    3  N           1     -22.307  -3.649  -9.281  0.00  0.00    -0.345 N 
HETATM    4  O           1     -20.635  -4.533 -10.469  0.00  0.00    -0.271 OA
ENDROOT
BRANCH   2   5
HETATM    5  C           1     -21.997  -3.036 -11.678  0.00  0.00     0.283 C 
BRANCH   5   6
HETATM    6  C           1     -23.511  -2.874 -11.702  0.00  0.00     0.145 C 
BRANCH   6   7
HETATM    7  C           1     -23.986  -2.785 -13.132  0.00  0.00     0.217 C 
HETATM    8  N           1     -23.985  -1.580 -13.780  0.00  0.00    -0.370 N 
HETATM    9  H           1     -23.666  -0.748 -13.301  0.00  0.00     0.159 HD
HETATM   10  H           1     -24.302  -1.521 -14.740  0.00  0.00     0.159 HD
HETATM   11  O           1     -24.364  -3.779 -13.706  0.00  0.00    -0.274 OA
ENDBRANCH   6   7
ENDBRANCH   5   6
BRANCH   5  12
HETATM   12  N           1     -21.558  -3.796 -12.894  0.00  0.00    -0.066 N 
HETATM   13  H           1     -21.987  -4.749 -12.883  0.00  0.00     0.275 HD
HETATM   14  H           1     -21.867  -3.286 -13.753  0.00  0.00     0.275 HD
HETATM   15  H           1     -20.517  -3.882 -12.896  0.00  0.00     0.275 HD
ENDBRANCH   5  12
ENDBRANCH   2   5
BRANCH   3  16
HETATM   16  C           1     -21.919  -4.380  -8.091  0.00  0.00     0.185 C 
BRANCH  16  17
HETATM   17  C           1     -20.889  -3.572  -7.312  0.00  0.00     0.040 C 
BRANCH  17  18
HETATM   18  C           1     -19.786  -4.496  -6.816  0.00  0.00    -0.020 C 
HETATM   19  C           1     -19.915  -4.676  -5.310  0.00  0.00     0.009 C 
HETATM   20  C           1     -19.912  -5.850  -7.503  0.00  0.00     0.009 C 
ENDBRANCH  17  18
ENDBRANCH  16  17
BRANCH  16  21
HETATM   21  C           1     -23.132  -4.617  -7.227  0.00  0.00     0.196 C 
HETATM   22  O           1     -24.252  -4.198  -7.594  0.00  0.00    -0.646 OA
HETATM   23  O           1     -23.019  -5.232  -6.144  0.00  0.00    -0.646 OA
ENDBRANCH  16  21
ENDBRANCH   3  16
TORSDOF 8
ENDMDL
MODEL 3
REMARK VINA RESULT:      -5.8      2.307      6.629
REMARK  8 active torsions:
REMARK  status: ('A' for Active; 'I' for Inactive)
REMARK    1  A    between atoms: C_2  and  C_10 
REMARK    2  A    between atoms: C_2  and  C_14 
REMARK    3  A    between atoms: C_2  and  N_16 
REMARK    4  A    between atoms: C_7  and  C_19 
REMARK       I    between atoms: C_10  and  N_11 
REMARK    5  A    between atoms: N_11  and  C_18 
REMARK       I    between atoms: N_12  and  C_13 
REMARK    6  A    between atoms: C_13  and  C_14 
REMARK    7  A    between atoms: C_18  and  C_19 
REMARK    8  A    between atoms: C_18  and  C_23 
ROOT
HETATM    1  H           1     -20.881  -5.521  -9.800  0.00  0.00     0.163 HD
HETATM    2  C           1     -22.480  -4.229 -10.047  0.00  0.00     0.249 C 
HETATM    3  N           1     -21.579  -4.963  -9.323  0.00  0.00    -0.345 N 
HETATM    4  O           1     -23.313  -3.564  -9.478  0.00  0.00    -0.271 OA
ENDROOT
BRANCH   2   5
HETATM    5  C           1     -22.432  -4.250 -11.555  0.00  0.00     0.283 C 
BRANCH   5   6
HETATM    6  C           1     -22.484  -2.823 -12.085  0.00  0.00     0.145 C 
BRANCH   6   7
HETATM    7  C           1     -23.229  -2.800 -13.397  0.00  0.00     0.217 C 
HETATM    8  N           1     -22.553  -2.991 -14.572  0.00  0.00    -0.370 N 
HETATM    9  H           1     -21.553  -3.148 -14.561  0.00  0.00     0.159 HD
HETATM   10  H           1     -23.053  -2.977 -15.453  0.00  0.00     0.159 HD
HETATM   11  O           1     -24.423  -2.615 -13.411  0.00  0.00    -0.274 OA
ENDBRANCH   6   7
ENDBRANCH   5   6
BRANCH   5  12
HETATM   12  N           1     -23.608  -5.020 -12.080  0.00  0.00    -0.066 N 
HETATM   13  H           1     -24.475  -4.447 -11.974  0.00  0.00     0.275 HD
HETATM   14  H           1     -23.457  -5.237 -13.091  0.00  0.00     0.275 HD
HETATM   15  H           1     -23.710  -5.910 -11.544  0.00  0.00     0.275 HD
ENDBRANCH   5  12
ENDBRANCH   2   5
BRANCH   3  16
HETATM   16  C           1     -21.624  -4.942  -7.874  0.00  0.00     0.185 C 
BRANCH  16  17
HETATM   17  C           1     -21.117  -6.272  -7.331  0.00  0.00     0.040 C 
BRANCH  17  18
HETATM   18  C           1     -21.063  -6.213  -5.811  0.00  0.00    -0.020 C 
HETATM   19  C           1     -22.470  -6.360  -5.248  0.00  0.00     0.009 C 
HETATM   20  C           1     -20.186  -7.344  -5.290  0.00  0.00     0.009 C 
ENDBRANCH  17  18
ENDBRANCH  16  17
BRANCH  16  21
HETATM   21  C           1     -20.753  -3.823  -7.361  0.00  0.00     0.196 C 
HETATM   22  O           1     -21.258  -2.893  -6.696  0.00  0.00    -0.646 OA
HETATM   23  O           1     -19.525  -3.827  -7.599  0.00  0.00    -0.646 OA
ENDBRANCH  16  21
ENDBRANCH   3  16
TORSDOF 8
ENDMDL
MODEL 4
REMARK VINA RESULT:      -5.7      2.349      7.184
REMARK  8 active torsions:
REMARK  status: ('A' for Active; 'I' for Inactive)
REMARK    1  A    between atoms: C_2  and  C_10 
REMARK    2  A    between atoms: C_2  and  C_14 
REMARK    3  A    between atoms: C_2  and  N_16 
REMARK    4  A    between atoms: C_7  and  C_19 
REMARK       I    between atoms: C_10  and  N_11 
REMARK    5  A    between atoms: N_11  and  C_18 
REMARK       I    between atoms: N_12  and  C_13 
REMARK    6  A    between atoms: C_13  and  C_14 
REMARK    7  A    between atoms: C_18  and  C_19 
REMARK    8  A    between atoms: C_18  and  C_23 
ROOT
HETATM    1  H           1     -21.451  -7.607  -6.809  0.00  0.00     0.163 HD
HETATM    2  C           1     -21.028  -5.622  -6.400  0.00  0.00     0.249 C 
HETATM    3  N           1     -21.041  -6.966  -6.140  0.00  0.00    -0.345 N 
HETATM    4  O           1     -20.537  -4.858  -5.603  0.00  0.00    -0.271 OA
ENDROOT
BRANCH   2   5
HETATM    5  C           1     -21.625  -5.095  -7.682  0.00  0.00     0.283 C 
BRANCH   5   6
HETATM    6  C           1     -20.559  -4.341  -8.466  0.00  0.00     0.145 C 
BRANCH   6   7
HETATM    7  C           1     -21.051  -4.091  -9.871  0.00  0.00     0.217 C 
HETATM    8  N           1     -20.261  -4.418 -10.941  0.00  0.00    -0.370 N 
HETATM    9  H           1     -19.348  -4.826 -10.789  0.00  0.00     0.159 HD
HETATM   10  H           1     -20.591  -4.251 -11.883  0.00  0.00     0.159 HD
HETATM   11  O           1     -22.142  -3.605 -10.052  0.00  0.00    -0.274 OA
ENDBRANCH   6   7
ENDBRANCH   5   6
BRANCH   5  12
HETATM   12  N           1     -22.757  -4.166  -7.359  0.00  0.00    -0.066 N 
HETATM   13  H           1     -22.374  -3.247  -7.041  0.00  0.00     0.275 HD
HETATM   14  H           1     -23.343  -4.022  -8.212  0.00  0.00     0.275 HD
HETATM   15  H           1     -23.343  -4.580  -6.600  0.00  0.00     0.275 HD
ENDBRANCH   5  12
ENDBRANCH   2   5
BRANCH   3  16
HETATM   16  C           1     -20.466  -7.473  -4.910  0.00  0.00     0.185 C 
BRANCH  16  17
HETATM   17  C           1     -21.559  -7.615  -3.859  0.00  0.00     0.040 C 
BRANCH  17  18
HETATM   18  C           1     -21.088  -7.000  -2.549  0.00  0.00    -0.020 C 
HETATM   19  C           1     -22.222  -6.192  -1.932  0.00  0.00     0.009 C 
HETATM   20  C           1     -20.672  -8.107  -1.589  0.00  0.00     0.009 C 
ENDBRANCH  17  18
ENDBRANCH  16  17
BRANCH  16  21
HETATM   21  C           1     -19.836  -8.819  -5.166  0.00  0.00     0.196 C 
HETATM   22  O           1     -20.476  -9.703  -5.776  0.00  0.00    -0.646 OA
HETATM   23  O           1     -18.672  -9.051  -4.769  0.00  0.00    -0.646 OA
ENDBRANCH  16  21
ENDBRANCH   3  16
TORSDOF 8
ENDMDL
MODEL 5
REMARK VINA RESULT:      -5.5      2.473      5.913
REMARK  8 active torsions:
REMARK  status: ('A' for Active; 'I' for Inactive)
REMARK    1  A    between atoms: C_2  and  C_10 
REMARK    2  A    between atoms: C_2  and  C_14 
REMARK    3  A    between atoms: C_2  and  N_16 
REMARK    4  A    between atoms: C_7  and  C_19 
REMARK       I    between atoms: C_10  and  N_11 
REMARK    5  A    between atoms: N_11  and  C_18 
REMARK       I    between atoms: N_12  and  C_13 
REMARK    6  A    between atoms: C_13  and  C_14 
REMARK    7  A    between atoms: C_18  and  C_19 
REMARK    8  A    between atoms: C_18  and  C_23 
ROOT
HETATM    1  H           1     -23.740  -3.634  -7.479  0.00  0.00     0.163 HD
HETATM    2  C           1     -23.318  -4.460  -9.330  0.00  0.00     0.249 C 
HETATM    3  N           1     -23.134  -4.267  -7.988  0.00  0.00    -0.345 N 
HETATM    4  O           1     -22.596  -5.215  -9.937  0.00  0.00    -0.271 OA
ENDROOT
BRANCH   2   5
HETATM    5  C           1     -24.424  -3.730 -10.053  0.00  0.00     0.283 C 
BRANCH   5   6
HETATM    6  C           1     -23.825  -2.854 -11.146  0.00  0.00     0.145 C 
BRANCH   6   7
HETATM    7  C           1     -24.216  -3.397 -12.498  0.00  0.00     0.217 C 
HETATM    8  N           1     -23.742  -4.613 -12.911  0.00  0.00    -0.370 N 
HETATM    9  H           1     -23.129  -5.147 -12.309  0.00  0.00     0.159 HD
HETATM   10  H           1     -24.005  -4.978 -13.818  0.00  0.00     0.159 HD
HETATM   11  O           1     -24.950  -2.760 -13.216  0.00  0.00    -0.274 OA
ENDBRANCH   6   7
ENDBRANCH   5   6
BRANCH   5  12
HETATM   12  N           1     -25.173  -2.870  -9.079  0.00  0.00    -0.066 N 
HETATM   13  H           1     -25.454  -3.444  -8.252  0.00  0.00     0.275 HD
HETATM   14  H           1     -24.558  -2.085  -8.765  0.00  0.00     0.275 HD
HETATM   15  H           1     -26.026  -2.481  -9.540  0.00  0.00     0.275 HD
ENDBRANCH   5  12
ENDBRANCH   2   5
BRANCH   3  16
HETATM   16  C           1     -22.073  -4.969  -7.293  0.00  0.00     0.185 C 
BRANCH  16  17
HETATM   17  C           1     -20.879  -4.040  -7.117  0.00  0.00     0.040 C 
BRANCH  17  18
HETATM   18  C           1     -19.716  -4.540  -7.963  0.00  0.00    -0.020 C 
HETATM   19  C           1     -19.685  -3.780  -9.282  0.00  0.00     0.009 C 
HETATM   20  C           1     -18.409  -4.312  -7.214  0.00  0.00     0.009 C 
ENDBRANCH  17  18
ENDBRANCH  16  17
BRANCH  16  21
HETATM   21  C           1     -22.567  -5.415  -5.940  0.00  0.00     0.196 C 
HETATM   22  O           1     -21.751  -5.667  -5.027  0.00  0.00    -0.646 OA
HETATM   23  O           1     -23.795  -5.533  -5.730  0.00  0.00    -0.646 OA
ENDBRANCH  16  21
ENDBRANCH   3  16
TORSDOF 8
ENDMDL
MODEL 6
REMARK VINA RESULT:      -5.5      2.225      6.775
REMARK  8 active torsions:
REMARK  status: ('A' for Active; 'I' for Inactive)
REMARK    1  A    between atoms: C_2  and  C_10 
REMARK    2  A    between atoms: C_2  and  C_14 
REMARK    3  A    between atoms: C_2  and  N_16 
REMARK    4  A    between atoms: C_7  and  C_19 
REMARK       I    between atoms: C_10  and  N_11 
REMARK    5  A    between atoms: N_11  and  C_18 
REMARK       I    between atoms: N_12  and  C_13 
REMARK    6  A    between atoms: C_13  and  C_14 
REMARK    7  A    between atoms: C_18  and  C_19 
REMARK    8  A    between atoms: C_18  and  C_23 
ROOT
HETATM    1  H           1     -22.636  -6.147  -6.545  0.00  0.00     0.163 HD
HETATM    2  C           1     -21.146  -4.727  -6.769  0.00  0.00     0.249 C 
HETATM    3  N           1     -21.735  -5.828  -6.209  0.00  0.00    -0.345 N 
HETATM    4  O           1     -20.072  -4.347  -6.369  0.00  0.00    -0.271 OA
ENDROOT
BRANCH   2   5
HETATM    5  C           1     -21.839  -3.988  -7.888  0.00  0.00     0.283 C 
BRANCH   5   6
HETATM    6  C           1     -23.203  -4.616  -8.145  0.00  0.00     0.145 C 
BRANCH   6   7
HETATM    7  C           1     -23.847  -3.952  -9.338  0.00  0.00     0.217 C 
HETATM    8  N           1     -24.855  -3.044  -9.154  0.00  0.00    -0.370 N 
HETATM    9  H           1     -25.168  -2.818  -8.219  0.00  0.00     0.159 HD
HETATM   10  H           1     -25.286  -2.597  -9.954  0.00  0.00     0.159 HD
HETATM   11  O           1     -23.471  -4.219 -10.454  0.00  0.00    -0.274 OA
ENDBRANCH   6   7
ENDBRANCH   5   6
BRANCH   5  12
HETATM   12  N           1     -21.008  -4.075  -9.134  0.00  0.00    -0.066 N 
HETATM   13  H           1     -20.235  -3.373  -9.087  0.00  0.00     0.275 HD
HETATM   14  H           1     -20.600  -5.035  -9.212  0.00  0.00     0.275 HD
HETATM   15  H           1     -21.606  -3.881  -9.967  0.00  0.00     0.275 HD
ENDBRANCH   5  12
ENDBRANCH   2   5
BRANCH   3  16
HETATM   16  C           1     -21.069  -6.539  -5.136  0.00  0.00     0.185 C 
BRANCH  16  17
HETATM   17  C           1     -22.065  -6.818  -4.017  0.00  0.00     0.040 C 
BRANCH  17  18
HETATM   18  C           1     -21.332  -6.857  -2.683  0.00  0.00    -0.020 C 
HETATM   19  C           1     -22.129  -6.079  -1.644  0.00  0.00     0.009 C 
HETATM   20  C           1     -21.182  -8.303  -2.229  0.00  0.00     0.009 C 
ENDBRANCH  17  18
ENDBRANCH  16  17
BRANCH  16  21
HETATM   21  C           1     -20.523  -7.844  -5.660  0.00  0.00     0.196 C 
HETATM   22  O           1     -21.262  -8.849  -5.730  0.00  0.00    -0.646 OA
HETATM   23  O           1     -19.329  -7.920  -6.025  0.00  0.00    -0.646 OA
ENDBRANCH  16  21
ENDBRANCH   3  16
TORSDOF 8
ENDMDL
MODEL 7
REMARK VINA RESULT:      -5.4      3.120      6.782
REMARK  8 active torsions:
REMARK  status: ('A' for Active; 'I' for Inactive)
REMARK    1  A    between atoms: C_2  and  C_10 
REMARK    2  A    between atoms: C_2  and  C_14 
REMARK    3  A    between atoms: C_2  and  N_16 
REMARK    4  A    between atoms: C_7  and  C_19 
REMARK       I    between atoms: C_10  and  N_11 
REMARK    5  A    between atoms: N_11  and  C_18 
REMARK       I    between atoms: N_12  and  C_13 
REMARK    6  A    between atoms: C_13  and  C_14 
REMARK    7  A    between atoms: C_18  and  C_19 
REMARK    8  A    between atoms: C_18  and  C_23 
ROOT
HETATM    1  H           1     -20.619  -7.143  -6.941  0.00  0.00     0.163 HD
HETATM    2  C           1     -20.237  -5.271  -6.143  0.00  0.00     0.249 C 
HETATM    3  N           1     -20.389  -6.631  -6.098  0.00  0.00    -0.345 N 
HETATM    4  O           1     -19.962  -4.660  -5.138  0.00  0.00    -0.271 OA
ENDROOT
BRANCH   2   5
HETATM    5  C           1     -20.413  -4.535  -7.449  0.00  0.00     0.283 C 
BRANCH   5   6
HETATM    6  C           1     -21.541  -3.521  -7.314  0.00  0.00     0.145 C 
BRANCH   6   7
HETATM    7  C           1     -22.868  -4.239  -7.321  0.00  0.00     0.217 C 
HETATM    8  N           1     -23.786  -3.972  -8.301  0.00  0.00    -0.370 N 
HETATM    9  H           1     -23.575  -3.293  -9.020  0.00  0.00     0.159 HD
HETATM   10  H           1     -24.676  -4.455  -8.306  0.00  0.00     0.159 HD
HETATM   11  O           1     -23.119  -5.052  -6.463  0.00  0.00    -0.274 OA
ENDBRANCH   6   7
ENDBRANCH   5   6
BRANCH   5  12
HETATM   12  N           1     -20.751  -5.516  -8.533  0.00  0.00    -0.066 N 
HETATM   13  H           1     -21.701  -5.301  -8.913  0.00  0.00     0.275 HD
HETATM   14  H           1     -20.046  -5.443  -9.300  0.00  0.00     0.275 HD
HETATM   15  H           1     -20.743  -6.484  -8.142  0.00  0.00     0.275 HD
ENDBRANCH   5  12
ENDBRANCH   2   5
BRANCH   3  16
HETATM   16  C           1     -20.219  -7.338  -4.844  0.00  0.00     0.185 C 
BRANCH  16  17
HETATM   17  C           1     -21.539  -7.350  -4.085  0.00  0.00     0.040 C 
BRANCH  17  18
HETATM   18  C           1     -21.269  -7.217  -2.593  0.00  0.00    -0.020 C 
HETATM   19  C           1     -22.169  -6.136  -2.009  0.00  0.00     0.009 C 
HETATM   20  C           1     -21.558  -8.545  -1.904  0.00  0.00     0.009 C 
ENDBRANCH  17  18
ENDBRANCH  16  17
BRANCH  16  21
HETATM   21  C           1     -19.784  -8.755  -5.122  0.00  0.00     0.196 C 
HETATM   22  O           1     -18.649  -9.141  -4.768  0.00  0.00    -0.646 OA
HETATM   23  O           1     -20.559  -9.545  -5.705  0.00  0.00    -0.646 OA
ENDBRANCH  16  21
ENDBRANCH   3  16
TORSDOF 8
ENDMDL
MODEL 8
REMARK VINA RESULT:      -5.4      2.711      3.911
REMARK  8 active torsions:
REMARK  status: ('A' for Active; 'I' for Inactive)
REMARK    1  A    between atoms: C_2  and  C_10 
REMARK    2  A    between atoms: C_2  and  C_14 
REMARK    3  A    between atoms: C_2  and  N_16 
REMARK    4  A    between atoms: C_7  and  C_19 
REMARK       I    between atoms: C_10  and  N_11 
REMARK    5  A    between atoms: N_11  and  C_18 
REMARK       I    between atoms: N_12  and  C_13 
REMARK    6  A    between atoms: C_13  and  C_14 
REMARK    7  A    between atoms: C_18  and  C_19 
REMARK    8  A    between atoms: C_18  and  C_23 
ROOT
HETATM    1  H           1     -22.108  -4.828  -5.354  0.00  0.00     0.163 HD
HETATM    2  C           1     -21.578  -6.813  -5.606  0.00  0.00     0.249 C 
HETATM    3  N           1     -21.699  -5.504  -5.987  0.00  0.00    -0.345 N 
HETATM    4  O           1     -21.090  -7.620  -6.361  0.00  0.00    -0.271 OA
ENDROOT
BRANCH   2   5
HETATM    5  C           1     -22.055  -7.250  -4.242  0.00  0.00     0.283 C 
BRANCH   5   6
HETATM    6  C           1     -21.428  -6.361  -3.176  0.00  0.00     0.145 C 
BRANCH   6   7
HETATM    7  C           1     -21.432  -7.083  -1.851  0.00  0.00     0.217 C 
HETATM    8  N           1     -22.471  -6.903  -0.977  0.00  0.00    -0.370 N 
HETATM    9  H           1     -23.234  -6.285  -1.219  0.00  0.00     0.159 HD
HETATM   10  H           1     -22.474  -7.389  -0.088  0.00  0.00     0.159 HD
HETATM   11  O           1     -20.521  -7.822  -1.563  0.00  0.00    -0.274 OA
ENDBRANCH   6   7
ENDBRANCH   5   6
BRANCH   5  12
HETATM   12  N           1     -21.649  -8.674  -4.004  0.00  0.00    -0.066 N 
HETATM   13  H           1     -20.756  -8.871  -4.512  0.00  0.00     0.275 HD
HETATM   14  H           1     -21.507  -8.829  -2.981  0.00  0.00     0.275 HD
HETATM   15  H           1     -22.397  -9.314  -4.353  0.00  0.00     0.275 HD
ENDBRANCH   5  12
ENDBRANCH   2   5
BRANCH   3  16
HETATM   16  C           1     -21.240  -5.085  -7.297  0.00  0.00     0.185 C 
BRANCH  16  17
HETATM   17  C           1     -22.139  -3.970  -7.817  0.00  0.00     0.040 C 
BRANCH  17  18
HETATM   18  C           1     -22.752  -4.390  -9.145  0.00  0.00    -0.020 C 
HETATM   19  C           1     -24.149  -3.796  -9.268  0.00  0.00     0.009 C 
HETATM   20  C           1     -21.882  -3.882 -10.288  0.00  0.00     0.009 C 
ENDBRANCH  17  18
ENDBRANCH  16  17
BRANCH  16  21
HETATM   21  C           1     -19.822  -4.583  -7.195  0.00  0.00     0.196 C 
HETATM   22  O           1     -19.216  -4.208  -8.223  0.00  0.00    -0.646 OA
HETATM   23  O           1     -19.251  -4.541  -6.083  0.00  0.00    -0.646 OA
ENDBRANCH  16  21
ENDBRANCH   3  16
TORSDOF 8
ENDMDL
MODEL 9
REMARK VINA RESULT:      -5.4      2.694      6.996
REMARK  8 active torsions:
REMARK  status: ('A' for Active; 'I' for Inactive)
REMARK    1  A    between atoms: C_2  and  C_10 
REMARK    2  A    between atoms: C_2  and  C_14 
REMARK    3  A    between atoms: C_2  and  N_16 
REMARK    4  A    between atoms: C_7  and  C_19 
REMARK       I    between atoms: C_10  and  N_11 
REMARK    5  A    between atoms: N_11  and  C_18 
REMARK       I    between atoms: N_12  and  C_13 
REMARK    6  A    between atoms: C_13  and  C_14 
REMARK    7  A    between atoms: C_18  and  C_19 
REMARK    8  A    between atoms: C_18  and  C_23 
ROOT
HETATM    1  H           1     -19.829  -6.909  -4.648  0.00  0.00     0.163 HD
HETATM    2  C           1     -21.431  -5.931  -5.519  0.00  0.00     0.249 C 
HETATM    3  N           1     -20.835  -6.800  -4.646  0.00  0.00    -0.345 N 
HETATM    4  O           1     -22.632  -5.801  -5.517  0.00  0.00    -0.271 OA
ENDROOT
BRANCH   2   5
HETATM    5  C           1     -20.588  -5.134  -6.484  0.00  0.00     0.283 C 
BRANCH   5   6
HETATM    6  C           1     -21.267  -3.801  -6.772  0.00  0.00     0.145 C 
BRANCH   6   7
HETATM    7  C           1     -22.163  -3.942  -7.978  0.00  0.00     0.217 C 
HETATM    8  N           1     -23.497  -4.205  -7.813  0.00  0.00    -0.370 N 
HETATM    9  H           1     -23.881  -4.305  -6.882  0.00  0.00     0.159 HD
HETATM   10  H           1     -24.098  -4.299  -8.622  0.00  0.00     0.159 HD
HETATM   11  O           1     -21.705  -3.821  -9.090  0.00  0.00    -0.274 OA
ENDBRANCH   6   7
ENDBRANCH   5   6
BRANCH   5  12
HETATM   12  N           1     -20.435  -5.901  -7.764  0.00  0.00    -0.066 N 
HETATM   13  H           1     -19.594  -5.555  -8.279  0.00  0.00     0.275 HD
HETATM   14  H           1     -20.316  -6.917  -7.547  0.00  0.00     0.275 HD
HETATM   15  H           1     -21.285  -5.768  -8.355  0.00  0.00     0.275 HD
ENDBRANCH   5  12
ENDBRANCH   2   5
BRANCH   3  16
HETATM   16  C           1     -21.645  -7.565  -3.718  0.00  0.00     0.185 C 
BRANCH  16  17
HETATM   17  C           1     -21.070  -8.969  -3.580  0.00  0.00     0.040 C 
BRANCH  17  18
HETATM   18  C           1     -19.710  -9.031  -4.262  0.00  0.00    -0.020 C 
HETATM   19  C           1     -18.630  -9.274  -3.217  0.00  0.00     0.009 C 
HETATM   20  C           1     -19.703 -10.168  -5.276  0.00  0.00     0.009 C 
ENDBRANCH  17  18
ENDBRANCH  16  17
BRANCH  16  21
HETATM   21  C           1     -21.645  -6.885  -2.372  0.00  0.00     0.196 C 
HETATM   22  O           1     -21.002  -7.381  -1.421  0.00  0.00    -0.646 OA
HETATM   23  O           1     -22.287  -5.825  -2.207  0.00  0.00    -0.646 OA
ENDBRANCH  16  21
ENDBRANCH   3  16
TORSDOF 8
ENDMDL
