MODEL 1
REMARK VINA RESULT:      -7.6      0.000      0.000
REMARK  8 active torsions:
REMARK  status: ('A' for Active; 'I' for Inactive)
REMARK    1  A    between atoms: C_10  and  C_11 
REMARK    2  A    between atoms: C_11  and  N_14 
REMARK       I    between atoms: N_13  and  C_21 
REMARK       I    between atoms: N_14  and  C_15 
REMARK    3  A    between atoms: C_15  and  C_16 
REMARK    4  A    between atoms: C_16  and  C_17 
REMARK    5  A    between atoms: C_16  and  N_26 
REMARK    6  A    between atoms: C_17  and  C_18 
REMARK    7  A    between atoms: C_18  and  C_19 
REMARK    8  A    between atoms: C_19  and  N_20 
REMARK       I    between atoms: N_20  and  C_21 
ROOT
HETATM    1  C           1     -34.189  -1.950 -11.888  0.00  0.00     0.274 C 
ENDROOT
BRANCH   1   2
HETATM    2  C           1     -35.235  -1.394 -12.823  0.00  0.00     0.249 C 
HETATM    3  N           1     -34.860  -0.848 -14.021  0.00  0.00    -0.345 N 
HETATM    4  H           1     -33.882  -0.816 -14.280  0.00  0.00     0.163 HD
HETATM    5  O           1     -36.402  -1.432 -12.516  0.00  0.00    -0.271 OA
BRANCH   3   6
HETATM    6  C           1     -35.865  -0.314 -14.921  0.00  0.00     0.181 C 
HETATM    7  C           1     -35.566   1.152 -15.203  0.00  0.00     0.043 C 
BRANCH   6   8
HETATM    8  C           1     -35.845  -1.091 -16.215  0.00  0.00     0.196 C 
HETATM    9  O           1     -36.596  -0.756 -17.156  0.00  0.00    -0.646 OA
HETATM   10  O           1     -35.076  -2.068 -16.346  0.00  0.00    -0.646 OA
ENDBRANCH   6   8
ENDBRANCH   3   6
ENDBRANCH   1   2
BRANCH   1  11
HETATM   11  C           1     -33.981  -3.430 -12.180  0.00  0.00     0.044 C 
BRANCH  11  12
HETATM   12  C           1     -33.696  -4.169 -10.880  0.00  0.00     0.023 C 
BRANCH  12  13
HETATM   13  C           1     -34.630  -5.367 -10.761  0.00  0.00     0.138 C 
BRANCH  13  14
HETATM   14  N           1     -33.859  -6.609 -10.916  0.00  0.00    -0.227 N 
HETATM   15  C           1     -34.186  -7.643 -10.265  0.00  0.00     0.665 C 
HETATM   16  N           1     -35.204  -7.607  -9.456  0.00  0.00    -0.235 N 
HETATM   17  N           1     -33.521  -8.712 -10.399  0.00  0.00    -0.235 N 
HETATM   18  H           1     -35.752  -6.725  -9.346  0.00  0.00     0.174 HD
HETATM   19  H           1     -35.473  -8.462  -8.918  0.00  0.00     0.174 HD
HETATM   20  H           1     -32.699  -8.741 -11.051  0.00  0.00     0.174 HD
HETATM   21  H           1     -33.792  -9.570  -9.857  0.00  0.00     0.174 HD
HETATM   22  H           1     -33.037  -6.637 -11.569  0.00  0.00     0.177 HD
ENDBRANCH  13  14
ENDBRANCH  12  13
ENDBRANCH  11  12
ENDBRANCH   1  11
BRANCH   1  23
HETATM   23  N           1     -34.645  -1.779 -10.469  0.00  0.00    -0.067 N 
HETATM   24  H           1     -35.221  -2.604 -10.188  0.00  0.00     0.275 HD
HETATM   25  H           1     -35.219  -0.910 -10.390  0.00  0.00     0.275 HD
HETATM   26  H           1     -33.812  -1.705  -9.843  0.00  0.00     0.275 HD
ENDBRANCH   1  23
TORSDOF 8
ENDMDL
MODEL 2
REMARK VINA RESULT:      -6.7     13.058     15.115
REMARK  8 active torsions:
REMARK  status: ('A' for Active; 'I' for Inactive)
REMARK    1  A    between atoms: C_10  and  C_11 
REMARK    2  A    between atoms: C_11  and  N_14 
REMARK       I    between atoms: N_13  and  C_21 
REMARK       I    between atoms: N_14  and  C_15 
REMARK    3  A    between atoms: C_15  and  C_16 
REMARK    4  A    between atoms: C_16  and  C_17 
REMARK    5  A    between atoms: C_16  and  N_26 
REMARK    6  A    between atoms: C_17  and  C_18 
REMARK    7  A    between atoms: C_18  and  C_19 
REMARK    8  A    between atoms: C_19  and  N_20 
REMARK       I    between atoms: N_20  and  C_21 
ROOT
HETATM    1  C           1     -22.882  -4.452  -9.374  0.00  0.00     0.274 C 
ENDROOT
BRANCH   1   2
HETATM    2  C           1     -21.675  -4.880  -8.577  0.00  0.00     0.249 C 
HETATM    3  N           1     -21.828  -5.336  -7.295  0.00  0.00    -0.345 N 
HETATM    4  H           1     -22.750  -5.385  -6.882  0.00  0.00     0.163 HD
HETATM    5  O           1     -20.573  -4.822  -9.069  0.00  0.00    -0.271 OA
BRANCH   3   6
HETATM    6  C           1     -20.667  -5.747  -6.528  0.00  0.00     0.181 C 
HETATM    7  C           1     -20.199  -4.589  -5.656  0.00  0.00     0.043 C 
BRANCH   6   8
HETATM    8  C           1     -21.034  -6.921  -5.652  0.00  0.00     0.196 C 
HETATM    9  O           1     -21.130  -6.771  -4.415  0.00  0.00    -0.646 OA
HETATM   10  O           1     -21.242  -8.042  -6.164  0.00  0.00    -0.646 OA
ENDBRANCH   6   8
ENDBRANCH   3   6
ENDBRANCH   1   2
BRANCH   1  11
HETATM   11  C           1     -22.441  -3.545 -10.515  0.00  0.00     0.044 C 
BRANCH  11  12
HETATM   12  C           1     -23.626  -3.269 -11.431  0.00  0.00     0.023 C 
BRANCH  12  13
HETATM   13  C           1     -23.123  -3.001 -12.844  0.00  0.00     0.138 C 
BRANCH  13  14
HETATM   14  N           1     -23.836  -1.845 -13.408  0.00  0.00    -0.227 N 
HETATM   15  C           1     -23.640  -1.505 -14.611  0.00  0.00     0.665 C 
HETATM   16  N           1     -22.805  -2.177 -15.348  0.00  0.00    -0.235 N 
HETATM   17  N           1     -24.253  -0.510 -15.096  0.00  0.00    -0.235 N 
HETATM   18  H           1     -22.299  -2.998 -14.947  0.00  0.00     0.174 HD
HETATM   19  H           1     -22.642  -1.895 -16.341  0.00  0.00     0.174 HD
HETATM   20  H           1     -24.927   0.033 -14.501  0.00  0.00     0.174 HD
HETATM   21  H           1     -24.089  -0.227 -16.094  0.00  0.00     0.174 HD
HETATM   22  H           1     -24.510  -1.303 -12.813  0.00  0.00     0.177 HD
ENDBRANCH  13  14
ENDBRANCH  12  13
ENDBRANCH  11  12
ENDBRANCH   1  11
BRANCH   1  23
HETATM   23  N           1     -23.832  -3.709  -8.482  0.00  0.00    -0.067 N 
HETATM   24  H           1     -24.280  -2.934  -9.021  0.00  0.00     0.275 HD
HETATM   25  H           1     -23.310  -3.312  -7.670  0.00  0.00     0.275 HD
HETATM   26  H           1     -24.569  -4.364  -8.137  0.00  0.00     0.275 HD
ENDBRANCH   1  23
TORSDOF 8
ENDMDL
MODEL 3
REMARK VINA RESULT:      -6.6     10.051     11.017
REMARK  8 active torsions:
REMARK  status: ('A' for Active; 'I' for Inactive)
REMARK    1  A    between atoms: C_10  and  C_11 
REMARK    2  A    between atoms: C_11  and  N_14 
REMARK       I    between atoms: N_13  and  C_21 
REMARK       I    between atoms: N_14  and  C_15 
REMARK    3  A    between atoms: C_15  and  C_16 
REMARK    4  A    between atoms: C_16  and  C_17 
REMARK    5  A    between atoms: C_16  and  N_26 
REMARK    6  A    between atoms: C_17  and  C_18 
REMARK    7  A    between atoms: C_18  and  C_19 
REMARK    8  A    between atoms: C_19  and  N_20 
REMARK       I    between atoms: N_20  and  C_21 
ROOT
HETATM    1  C           1     -29.652  -6.902 -18.062  0.00  0.00     0.274 C 
ENDROOT
BRANCH   1   2
HETATM    2  C           1     -28.497  -6.462 -18.928  0.00  0.00     0.249 C 
HETATM    3  N           1     -27.709  -7.397 -19.544  0.00  0.00    -0.345 N 
HETATM    4  H           1     -27.900  -8.383 -19.418  0.00  0.00     0.163 HD
HETATM    5  O           1     -28.268  -5.286 -19.079  0.00  0.00    -0.271 OA
BRANCH   3   6
HETATM    6  C           1     -26.598  -6.975 -20.376  0.00  0.00     0.181 C 
HETATM    7  C           1     -25.388  -6.684 -19.499  0.00  0.00     0.043 C 
BRANCH   6   8
HETATM    8  C           1     -26.259  -8.073 -21.355  0.00  0.00     0.196 C 
HETATM    9  O           1     -27.120  -8.925 -21.661  0.00  0.00    -0.646 OA
HETATM   10  O           1     -25.116  -8.130 -21.859  0.00  0.00    -0.646 OA
ENDBRANCH   6   8
ENDBRANCH   3   6
ENDBRANCH   1   2
BRANCH   1  11
HETATM   11  C           1     -29.569  -6.200 -16.712  0.00  0.00     0.044 C 
BRANCH  11  12
HETATM   12  C           1     -28.774  -7.061 -15.740  0.00  0.00     0.023 C 
BRANCH  12  13
HETATM   13  C           1     -27.393  -6.452 -15.535  0.00  0.00     0.138 C 
BRANCH  13  14
HETATM   14  N           1     -26.374  -7.338 -16.116  0.00  0.00    -0.227 N 
HETATM   15  C           1     -25.145  -7.092 -15.940  0.00  0.00     0.665 C 
HETATM   16  N           1     -24.784  -6.053 -15.246  0.00  0.00    -0.235 N 
HETATM   17  N           1     -24.269  -7.855 -16.441  0.00  0.00    -0.235 N 
HETATM   18  H           1     -25.508  -5.423 -14.833  0.00  0.00     0.174 HD
HETATM   19  H           1     -23.769  -5.849 -15.102  0.00  0.00     0.174 HD
HETATM   20  H           1     -24.560  -8.693 -17.001  0.00  0.00     0.174 HD
HETATM   21  H           1     -23.249  -7.649 -16.295  0.00  0.00     0.174 HD
HETATM   22  H           1     -26.666  -8.177 -16.676  0.00  0.00     0.177 HD
ENDBRANCH  13  14
ENDBRANCH  12  13
ENDBRANCH  11  12
ENDBRANCH   1  11
BRANCH   1  23
HETATM   23  N           1     -29.587  -8.386 -17.858  0.00  0.00    -0.067 N 
HETATM   24  H           1     -29.986  -8.627 -16.923  0.00  0.00     0.275 HD
HETATM   25  H           1     -28.592  -8.702 -17.905  0.00  0.00     0.275 HD
HETATM   26  H           1     -30.139  -8.864 -18.606  0.00  0.00     0.275 HD
ENDBRANCH   1  23
TORSDOF 8
ENDMDL
MODEL 4
REMARK VINA RESULT:      -6.5     12.603     13.463
REMARK  8 active torsions:
REMARK  status: ('A' for Active; 'I' for Inactive)
REMARK    1  A    between atoms: C_10  and  C_11 
REMARK    2  A    between atoms: C_11  and  N_14 
REMARK       I    between atoms: N_13  and  C_21 
REMARK       I    between atoms: N_14  and  C_15 
REMARK    3  A    between atoms: C_15  and  C_16 
REMARK    4  A    between atoms: C_16  and  C_17 
REMARK    5  A    between atoms: C_16  and  N_26 
REMARK    6  A    between atoms: C_17  and  C_18 
REMARK    7  A    between atoms: C_18  and  C_19 
REMARK    8  A    between atoms: C_19  and  N_20 
REMARK       I    between atoms: N_20  and  C_21 
ROOT
HETATM    1  C           1     -20.858  -4.349 -10.946  0.00  0.00     0.274 C 
ENDROOT
BRANCH   1   2
HETATM    2  C           1     -22.131  -4.290 -11.753  0.00  0.00     0.249 C 
HETATM    3  N           1     -22.251  -3.387 -12.776  0.00  0.00    -0.345 N 
HETATM    4  H           1     -21.486  -2.761 -12.990  0.00  0.00     0.163 HD
HETATM    5  O           1     -23.045  -5.038 -11.498  0.00  0.00    -0.271 OA
BRANCH   3   6
HETATM    6  C           1     -23.475  -3.330 -13.552  0.00  0.00     0.181 C 
HETATM    7  C           1     -24.614  -2.841 -12.667  0.00  0.00     0.043 C 
BRANCH   6   8
HETATM    8  C           1     -23.292  -2.377 -14.709  0.00  0.00     0.196 C 
HETATM    9  O           1     -22.398  -2.589 -15.556  0.00  0.00    -0.646 OA
HETATM   10  O           1     -24.034  -1.378 -14.820  0.00  0.00    -0.646 OA
ENDBRANCH   6   8
ENDBRANCH   3   6
ENDBRANCH   1   2
BRANCH   1  11
HETATM   11  C           1     -21.199  -4.399  -9.462  0.00  0.00     0.044 C 
BRANCH  11  12
HETATM   12  C           1     -19.917  -4.343  -8.643  0.00  0.00     0.023 C 
BRANCH  12  13
HETATM   13  C           1     -20.231  -4.656  -7.186  0.00  0.00     0.138 C 
BRANCH  13  14
HETATM   14  N           1     -20.333  -6.112  -7.008  0.00  0.00    -0.227 N 
HETATM   15  C           1     -21.155  -6.592  -6.174  0.00  0.00     0.665 C 
HETATM   16  N           1     -21.909  -5.797  -5.473  0.00  0.00    -0.235 N 
HETATM   17  N           1     -21.243  -7.845  -6.020  0.00  0.00    -0.235 N 
HETATM   18  H           1     -21.837  -4.762  -5.601  0.00  0.00     0.174 HD
HETATM   19  H           1     -22.588  -6.193  -4.785  0.00  0.00     0.174 HD
HETATM   20  H           1     -20.634  -8.487  -6.585  0.00  0.00     0.174 HD
HETATM   21  H           1     -21.925  -8.243  -5.328  0.00  0.00     0.174 HD
HETATM   22  H           1     -19.724  -6.754  -7.573  0.00  0.00     0.177 HD
ENDBRANCH  13  14
ENDBRANCH  12  13
ENDBRANCH  11  12
ENDBRANCH   1  11
BRANCH   1  23
HETATM   23  N           1     -20.030  -3.131 -11.228  0.00  0.00    -0.067 N 
HETATM   24  H           1     -19.843  -3.068 -12.254  0.00  0.00     0.275 HD
HETATM   25  H           1     -19.124  -3.198 -10.713  0.00  0.00     0.275 HD
HETATM   26  H           1     -20.547  -2.279 -10.914  0.00  0.00     0.275 HD
ENDBRANCH   1  23
TORSDOF 8
ENDMDL
MODEL 5
REMARK VINA RESULT:      -6.4     14.046     15.999
REMARK  8 active torsions:
REMARK  status: ('A' for Active; 'I' for Inactive)
REMARK    1  A    between atoms: C_10  and  C_11 
REMARK    2  A    between atoms: C_11  and  N_14 
REMARK       I    between atoms: N_13  and  C_21 
REMARK       I    between atoms: N_14  and  C_15 
REMARK    3  A    between atoms: C_15  and  C_16 
REMARK    4  A    between atoms: C_16  and  C_17 
REMARK    5  A    between atoms: C_16  and  N_26 
REMARK    6  A    between atoms: C_17  and  C_18 
REMARK    7  A    between atoms: C_18  and  C_19 
REMARK    8  A    between atoms: C_19  and  N_20 
REMARK       I    between atoms: N_20  and  C_21 
ROOT
HETATM    1  C           1     -21.665  -4.820  -8.338  0.00  0.00     0.274 C 
ENDROOT
BRANCH   1   2
HETATM    2  C           1     -20.836  -5.346  -7.191  0.00  0.00     0.249 C 
HETATM    3  N           1     -21.450  -5.929  -6.115  0.00  0.00    -0.345 N 
HETATM    4  H           1     -22.458  -6.006  -6.088  0.00  0.00     0.163 HD
HETATM    5  O           1     -19.632  -5.254  -7.223  0.00  0.00    -0.271 OA
BRANCH   3   6
HETATM    6  C           1     -20.654  -6.434  -5.012  0.00  0.00     0.181 C 
HETATM    7  C           1     -21.402  -6.214  -3.704  0.00  0.00     0.043 C 
BRANCH   6   8
HETATM    8  C           1     -20.405  -7.910  -5.208  0.00  0.00     0.196 C 
HETATM    9  O           1     -21.193  -8.590  -5.899  0.00  0.00    -0.646 OA
HETATM   10  O           1     -19.410  -8.452  -4.679  0.00  0.00    -0.646 OA
ENDBRANCH   6   8
ENDBRANCH   3   6
ENDBRANCH   1   2
BRANCH   1  11
HETATM   11  C           1     -20.810  -3.904  -9.203  0.00  0.00     0.044 C 
BRANCH  11  12
HETATM   12  C           1     -20.885  -4.359 -10.654  0.00  0.00     0.023 C 
BRANCH  12  13
HETATM   13  C           1     -22.148  -3.800 -11.297  0.00  0.00     0.138 C 
BRANCH  13  14
HETATM   14  N           1     -21.966  -3.731 -12.755  0.00  0.00    -0.227 N 
HETATM   15  C           1     -22.717  -2.987 -13.451  0.00  0.00     0.665 C 
HETATM   16  N           1     -23.650  -2.285 -12.878  0.00  0.00    -0.235 N 
HETATM   17  N           1     -22.561  -2.928 -14.706  0.00  0.00    -0.235 N 
HETATM   18  H           1     -23.778  -2.334 -11.842  0.00  0.00     0.174 HD
HETATM   19  H           1     -24.269  -1.672 -13.454  0.00  0.00     0.174 HD
HETATM   20  H           1     -21.808  -3.494 -15.169  0.00  0.00     0.174 HD
HETATM   21  H           1     -23.184  -2.311 -15.284  0.00  0.00     0.174 HD
HETATM   22  H           1     -21.213  -4.297 -13.218  0.00  0.00     0.177 HD
ENDBRANCH  13  14
ENDBRANCH  12  13
ENDBRANCH  11  12
ENDBRANCH   1  11
BRANCH   1  23
HETATM   23  N           1     -22.834  -4.052  -7.798  0.00  0.00    -0.067 N 
HETATM   24  H           1     -22.579  -3.635  -6.875  0.00  0.00     0.275 HD
HETATM   25  H           1     -23.649  -4.695  -7.677  0.00  0.00     0.275 HD
HETATM   26  H           1     -23.088  -3.290  -8.467  0.00  0.00     0.275 HD
ENDBRANCH   1  23
TORSDOF 8
ENDMDL
MODEL 6
REMARK VINA RESULT:      -6.4      9.058     10.466
REMARK  8 active torsions:
REMARK  status: ('A' for Active; 'I' for Inactive)
REMARK    1  A    between atoms: C_10  and  C_11 
REMARK    2  A    between atoms: C_11  and  N_14 
REMARK       I    between atoms: N_13  and  C_21 
REMARK       I    between atoms: N_14  and  C_15 
REMARK    3  A    between atoms: C_15  and  C_16 
REMARK    4  A    between atoms: C_16  and  C_17 
REMARK    5  A    between atoms: C_16  and  N_26 
REMARK    6  A    between atoms: C_17  and  C_18 
REMARK    7  A    between atoms: C_18  and  C_19 
REMARK    8  A    between atoms: C_19  and  N_20 
REMARK       I    between atoms: N_20  and  C_21 
ROOT
HETATM    1  C           1     -29.402  -6.918 -18.140  0.00  0.00     0.274 C 
ENDROOT
BRANCH   1   2
HETATM    2  C           1     -28.221  -6.470 -18.967  0.00  0.00     0.249 C 
HETATM    3  N           1     -27.363  -7.399 -19.491  0.00  0.00    -0.345 N 
HETATM    4  H           1     -27.519  -8.384 -19.324  0.00  0.00     0.163 HD
HETATM    5  O           1     -28.034  -5.294 -19.167  0.00  0.00    -0.271 OA
BRANCH   3   6
HETATM    6  C           1     -26.228  -6.969 -20.286  0.00  0.00     0.181 C 
HETATM    7  C           1     -25.007  -6.819 -19.388  0.00  0.00     0.043 C 
BRANCH   6   8
HETATM    8  C           1     -25.944  -7.998 -21.354  0.00  0.00     0.196 C 
HETATM    9  O           1     -26.815  -8.843 -21.654  0.00  0.00    -0.646 OA
HETATM   10  O           1     -24.839  -8.005 -21.938  0.00  0.00    -0.646 OA
ENDBRANCH   6   8
ENDBRANCH   3   6
ENDBRANCH   1   2
BRANCH   1  11
HETATM   11  C           1     -29.072  -6.766 -16.661  0.00  0.00     0.044 C 
BRANCH  11  12
HETATM   12  C           1     -30.068  -5.815 -16.013  0.00  0.00     0.023 C 
BRANCH  12  13
HETATM   13  C           1     -31.047  -5.310 -17.065  0.00  0.00     0.138 C 
BRANCH  13  14
HETATM   14  N           1     -32.363  -5.092 -16.447  0.00  0.00    -0.227 N 
HETATM   15  C           1     -33.009  -4.030 -16.689  0.00  0.00     0.665 C 
HETATM   16  N           1     -32.507  -3.131 -17.484  0.00  0.00    -0.235 N 
HETATM   17  N           1     -34.141  -3.843 -16.156  0.00  0.00    -0.235 N 
HETATM   18  H           1     -31.572  -3.287 -17.923  0.00  0.00     0.174 HD
HETATM   19  H           1     -33.040  -2.255 -17.682  0.00  0.00     0.174 HD
HETATM   20  H           1     -34.547  -4.568 -15.515  0.00  0.00     0.174 HD
HETATM   21  H           1     -34.676  -2.962 -16.357  0.00  0.00     0.174 HD
HETATM   22  H           1     -32.768  -5.817 -15.805  0.00  0.00     0.177 HD
ENDBRANCH  13  14
ENDBRANCH  12  13
ENDBRANCH  11  12
ENDBRANCH   1  11
BRANCH   1  23
HETATM   23  N           1     -29.706  -8.356 -18.439  0.00  0.00    -0.067 N 
HETATM   24  H           1     -30.727  -8.531 -18.304  0.00  0.00     0.275 HD
HETATM   25  H           1     -29.159  -8.970 -17.795  0.00  0.00     0.275 HD
HETATM   26  H           1     -29.444  -8.568 -19.428  0.00  0.00     0.275 HD
ENDBRANCH   1  23
TORSDOF 8
ENDMDL
MODEL 7
REMARK VINA RESULT:      -6.3     12.891     14.039
REMARK  8 active torsions:
REMARK  status: ('A' for Active; 'I' for Inactive)
REMARK    1  A    between atoms: C_10  and  C_11 
REMARK    2  A    between atoms: C_11  and  N_14 
REMARK       I    between atoms: N_13  and  C_21 
REMARK       I    between atoms: N_14  and  C_15 
REMARK    3  A    between atoms: C_15  and  C_16 
REMARK    4  A    between atoms: C_16  and  C_17 
REMARK    5  A    between atoms: C_16  and  N_26 
REMARK    6  A    between atoms: C_17  and  C_18 
REMARK    7  A    between atoms: C_18  and  C_19 
REMARK    8  A    between atoms: C_19  and  N_20 
REMARK       I    between atoms: N_20  and  C_21 
ROOT
HETATM    1  C           1     -20.782  -4.044  -8.096  0.00  0.00     0.274 C 
ENDROOT
BRANCH   1   2
HETATM    2  C           1     -21.350  -4.060  -9.494  0.00  0.00     0.249 C 
HETATM    3  N           1     -22.705  -4.001  -9.682  0.00  0.00    -0.345 N 
HETATM    4  H           1     -23.325  -3.947  -8.885  0.00  0.00     0.163 HD
HETATM    5  O           1     -20.611  -4.125 -10.446  0.00  0.00    -0.271 OA
BRANCH   3   6
HETATM    6  C           1     -23.252  -4.017 -11.026  0.00  0.00     0.181 C 
HETATM    7  C           1     -23.450  -5.459 -11.476  0.00  0.00     0.043 C 
BRANCH   6   8
HETATM    8  C           1     -24.579  -3.299 -11.037  0.00  0.00     0.196 C 
HETATM    9  O           1     -25.194  -3.106  -9.965  0.00  0.00    -0.646 OA
HETATM   10  O           1     -25.064  -2.897 -12.116  0.00  0.00    -0.646 OA
ENDBRANCH   6   8
ENDBRANCH   3   6
ENDBRANCH   1   2
BRANCH   1  11
HETATM   11  C           1     -20.560  -5.474  -7.622  0.00  0.00     0.044 C 
BRANCH  11  12
HETATM   12  C           1     -20.225  -5.471  -6.136  0.00  0.00     0.023 C 
BRANCH  12  13
HETATM   13  C           1     -21.037  -6.548  -5.429  0.00  0.00     0.138 C 
BRANCH  13  14
HETATM   14  N           1     -21.794  -5.945  -4.323  0.00  0.00    -0.227 N 
HETATM   15  C           1     -21.714  -6.435  -3.159  0.00  0.00     0.665 C 
HETATM   16  N           1     -20.963  -7.475  -2.942  0.00  0.00    -0.235 N 
HETATM   17  N           1     -22.367  -5.916  -2.207  0.00  0.00    -0.235 N 
HETATM   18  H           1     -20.425  -7.903  -3.729  0.00  0.00     0.174 HD
HETATM   19  H           1     -20.898  -7.880  -1.981  0.00  0.00     0.174 HD
HETATM   20  H           1     -22.973  -5.077  -2.381  0.00  0.00     0.174 HD
HETATM   21  H           1     -22.300  -6.324  -1.242  0.00  0.00     0.174 HD
HETATM   22  H           1     -22.401  -5.106  -4.498  0.00  0.00     0.177 HD
ENDBRANCH  13  14
ENDBRANCH  12  13
ENDBRANCH  11  12
ENDBRANCH   1  11
BRANCH   1  23
HETATM   23  N           1     -21.744  -3.355  -7.174  0.00  0.00    -0.067 N 
HETATM   24  H           1     -21.214  -2.901  -6.396  0.00  0.00     0.275 HD
HETATM   25  H           1     -22.411  -4.055  -6.778  0.00  0.00     0.275 HD
HETATM   26  H           1     -22.275  -2.629  -7.705  0.00  0.00     0.275 HD
ENDBRANCH   1  23
TORSDOF 8
ENDMDL
MODEL 8
REMARK VINA RESULT:      -6.3     13.742     16.065
REMARK  8 active torsions:
REMARK  status: ('A' for Active; 'I' for Inactive)
REMARK    1  A    between atoms: C_10  and  C_11 
REMARK    2  A    between atoms: C_11  and  N_14 
REMARK       I    between atoms: N_13  and  C_21 
REMARK       I    between atoms: N_14  and  C_15 
REMARK    3  A    between atoms: C_15  and  C_16 
REMARK    4  A    between atoms: C_16  and  C_17 
REMARK    5  A    between atoms: C_16  and  N_26 
REMARK    6  A    between atoms: C_17  and  C_18 
REMARK    7  A    between atoms: C_18  and  C_19 
REMARK    8  A    between atoms: C_19  and  N_20 
REMARK       I    between atoms: N_20  and  C_21 
ROOT
HETATM    1  C           1     -20.395  -5.033  -6.499  0.00  0.00     0.274 C 
ENDROOT
BRANCH   1   2
HETATM    2  C           1     -21.329  -5.805  -5.599  0.00  0.00     0.249 C 
HETATM    3  N           1     -20.829  -6.750  -4.744  0.00  0.00    -0.345 N 
HETATM    4  H           1     -19.834  -6.932  -4.716  0.00  0.00     0.163 HD
HETATM    5  O           1     -22.517  -5.589  -5.632  0.00  0.00    -0.271 OA
BRANCH   3   6
HETATM    6  C           1     -21.726  -7.493  -3.879  0.00  0.00     0.181 C 
HETATM    7  C           1     -21.326  -8.962  -3.875  0.00  0.00     0.043 C 
BRANCH   6   8
HETATM    8  C           1     -21.640  -6.943  -2.476  0.00  0.00     0.196 C 
HETATM    9  O           1     -22.347  -5.968  -2.142  0.00  0.00    -0.646 OA
HETATM   10  O           1     -20.861  -7.463  -1.648  0.00  0.00    -0.646 OA
ENDBRANCH   6   8
ENDBRANCH   3   6
ENDBRANCH   1   2
BRANCH   1  11
HETATM   11  C           1     -21.130  -3.833  -7.082  0.00  0.00     0.044 C 
BRANCH  11  12
HETATM   12  C           1     -21.517  -4.127  -8.525  0.00  0.00     0.023 C 
BRANCH  12  13
HETATM   13  C           1     -22.998  -3.830  -8.725  0.00  0.00     0.138 C 
BRANCH  13  14
HETATM   14  N           1     -23.263  -3.593 -10.151  0.00  0.00    -0.227 N 
HETATM   15  C           1     -24.455  -3.489 -10.565  0.00  0.00     0.665 C 
HETATM   16  N           1     -25.445  -3.594  -9.729  0.00  0.00    -0.235 N 
HETATM   17  N           1     -24.683  -3.286 -11.793  0.00  0.00    -0.235 N 
HETATM   18  H           1     -25.256  -3.762  -8.714  0.00  0.00     0.174 HD
HETATM   19  H           1     -26.428  -3.510 -10.071  0.00  0.00     0.174 HD
HETATM   20  H           1     -23.884  -3.201 -12.469  0.00  0.00     0.174 HD
HETATM   21  H           1     -25.671  -3.201 -12.136  0.00  0.00     0.174 HD
HETATM   22  H           1     -22.464  -3.508 -10.827  0.00  0.00     0.177 HD
ENDBRANCH  13  14
ENDBRANCH  12  13
ENDBRANCH  11  12
ENDBRANCH   1  11
BRANCH   1  23
HETATM   23  N           1     -19.926  -5.922  -7.612  0.00  0.00    -0.067 N 
HETATM   24  H           1     -19.439  -6.754  -7.210  0.00  0.00     0.275 HD
HETATM   25  H           1     -19.265  -5.394  -8.225  0.00  0.00     0.275 HD
HETATM   26  H           1     -20.748  -6.237  -8.175  0.00  0.00     0.275 HD
ENDBRANCH   1  23
TORSDOF 8
ENDMDL
MODEL 9
REMARK VINA RESULT:      -6.1      7.936      8.912
REMARK  8 active torsions:
REMARK  status: ('A' for Active; 'I' for Inactive)
REMARK    1  A    between atoms: C_10  and  C_11 
REMARK    2  A    between atoms: C_11  and  N_14 
REMARK       I    between atoms: N_13  and  C_21 
REMARK       I    between atoms: N_14  and  C_15 
REMARK    3  A    between atoms: C_15  and  C_16 
REMARK    4  A    between atoms: C_16  and  C_17 
REMARK    5  A    between atoms: C_16  and  N_26 
REMARK    6  A    between atoms: C_17  and  C_18 
REMARK    7  A    between atoms: C_18  and  C_19 
REMARK    8  A    between atoms: C_19  and  N_20 
REMARK       I    between atoms: N_20  and  C_21 
ROOT
HETATM    1  C           1     -29.688  -7.576 -17.245  0.00  0.00     0.274 C 
ENDROOT
BRANCH   1   2
HETATM    2  C           1     -30.979  -6.806 -17.379  0.00  0.00     0.249 C 
HETATM    3  N           1     -31.147  -5.629 -16.700  0.00  0.00    -0.345 N 
HETATM    4  H           1     -30.406  -5.276 -16.109  0.00  0.00     0.163 HD
HETATM    5  O           1     -31.864  -7.227 -18.086  0.00  0.00    -0.271 OA
BRANCH   3   6
HETATM    6  C           1     -32.388  -4.888 -16.829  0.00  0.00     0.181 C 
HETATM    7  C           1     -32.981  -4.649 -15.447  0.00  0.00     0.043 C 
BRANCH   6   8
HETATM    8  C           1     -32.114  -3.562 -17.496  0.00  0.00     0.196 C 
HETATM    9  O           1     -30.975  -3.312 -17.944  0.00  0.00    -0.646 OA
HETATM   10  O           1     -33.027  -2.715 -17.600  0.00  0.00    -0.646 OA
ENDBRANCH   6   8
ENDBRANCH   3   6
ENDBRANCH   1   2
BRANCH   1  11
HETATM   11  C           1     -28.539  -6.604 -17.015  0.00  0.00     0.044 C 
BRANCH  11  12
HETATM   12  C           1     -27.891  -6.892 -15.668  0.00  0.00     0.023 C 
BRANCH  12  13
HETATM   13  C           1     -26.379  -6.766 -15.793  0.00  0.00     0.138 C 
BRANCH  13  14
HETATM   14  N           1     -26.011  -6.665 -17.213  0.00  0.00    -0.227 N 
HETATM   15  C           1     -24.919  -7.160 -17.621  0.00  0.00     0.665 C 
HETATM   16  N           1     -24.122  -7.756 -16.784  0.00  0.00    -0.235 N 
HETATM   17  N           1     -24.603  -7.073 -18.843  0.00  0.00    -0.235 N 
HETATM   18  H           1     -24.385  -7.827 -15.774  0.00  0.00     0.174 HD
HETATM   19  H           1     -23.221  -8.163 -17.121  0.00  0.00     0.174 HD
HETATM   20  H           1     -25.246  -6.593 -19.520  0.00  0.00     0.174 HD
HETATM   21  H           1     -23.697  -7.483 -19.181  0.00  0.00     0.174 HD
HETATM   22  H           1     -26.654  -6.184 -17.889  0.00  0.00     0.177 HD
ENDBRANCH  13  14
ENDBRANCH  12  13
ENDBRANCH  11  12
ENDBRANCH   1  11
BRANCH   1  23
HETATM   23  N           1     -29.439  -8.357 -18.501  0.00  0.00    -0.067 N 
HETATM   24  H           1     -28.757  -9.123 -18.304  0.00  0.00     0.275 HD
HETATM   25  H           1     -29.049  -7.723 -19.235  0.00  0.00     0.275 HD
HETATM   26  H           1     -30.338  -8.768 -18.839  0.00  0.00     0.275 HD
ENDBRANCH   1  23
TORSDOF 8
ENDMDL
