MODEL 1
REMARK VINA RESULT:      -6.5      0.000      0.000
REMARK  8 active torsions:
REMARK  status: ('A' for Active; 'I' for Inactive)
REMARK    1  A    between atoms: N_1  and  C_11 
REMARK       I    between atoms: N_1  and  C_2 
REMARK    2  A    between atoms: C_2  and  C_3 
REMARK    3  A    between atoms: C_3  and  C_4 
REMARK    4  A    between atoms: C_3  and  N_8 
REMARK    5  A    between atoms: C_4  and  C_5 
REMARK       I    between atoms: C_5  and  N_6 
REMARK    6  A    between atoms: C_9  and  O_10 
REMARK    7  A    between atoms: C_9  and  C_11 
REMARK    8  A    between atoms: C_11  and  C_12 
ROOT
HETATM    1  N           1     -34.937  -1.264 -13.914  0.00  0.00    -0.343 N 
HETATM    2  C           1     -35.195  -1.821 -12.691  0.00  0.00     0.249 C 
HETATM    3  O           1     -36.307  -1.760 -12.221  0.00  0.00    -0.271 OA
HETATM    4  H           1     -34.007  -1.315 -14.307  0.00  0.00     0.163 HD
ENDROOT
BRANCH   2   5
HETATM    5  C           1     -34.091  -2.510 -11.927  0.00  0.00     0.283 C 
BRANCH   5   6
HETATM    6  C           1     -34.548  -3.903 -11.516  0.00  0.00     0.145 C 
BRANCH   6   7
HETATM    7  C           1     -33.383  -4.858 -11.591  0.00  0.00     0.217 C 
HETATM    8  N           1     -33.545  -6.167 -11.225  0.00  0.00    -0.370 N 
HETATM    9  H           1     -32.764  -6.808 -11.276  0.00  0.00     0.159 HD
HETATM   10  H           1     -34.448  -6.494 -10.905  0.00  0.00     0.159 HD
HETATM   11  O           1     -32.305  -4.467 -11.975  0.00  0.00    -0.274 OA
ENDBRANCH   6   7
ENDBRANCH   5   6
BRANCH   5  12
HETATM   12  N           1     -33.757  -1.712 -10.701  0.00  0.00    -0.066 N 
HETATM   13  H           1     -33.749  -2.341  -9.867  0.00  0.00     0.275 HD
HETATM   14  H           1     -32.815  -1.274 -10.817  0.00  0.00     0.275 HD
HETATM   15  H           1     -34.475  -0.964 -10.567  0.00  0.00     0.275 HD
ENDBRANCH   5  12
ENDBRANCH   2   5
BRANCH   1  16
HETATM   16  C           1     -35.998  -0.602 -14.647  0.00  0.00     0.214 C 
BRANCH  16  17
HETATM   17  C           1     -35.873   0.906 -14.469  0.00  0.00     0.147 C 
HETATM   18  C           1     -34.537   1.230 -13.815  0.00  0.00     0.042 C 
BRANCH  17  19
HETATM   19  O           1     -35.944   1.531 -15.723  0.00  0.00    -0.393 OA
HETATM   20  H           1     -35.475   2.344 -15.650  0.00  0.00     0.210 HD
ENDBRANCH  17  19
ENDBRANCH  16  17
BRANCH  16  21
HETATM   21  C           1     -35.887  -0.947 -16.112  0.00  0.00     0.199 C 
HETATM   22  O           1     -34.813  -1.391 -16.570  0.00  0.00    -0.646 OA
HETATM   23  O           1     -36.871  -0.790 -16.867  0.00  0.00    -0.646 OA
ENDBRANCH  16  21
ENDBRANCH   1  16
TORSDOF 8
ENDMDL
MODEL 2
REMARK VINA RESULT:      -6.3      1.953      3.323
REMARK  8 active torsions:
REMARK  status: ('A' for Active; 'I' for Inactive)
REMARK    1  A    between atoms: N_1  and  C_11 
REMARK       I    between atoms: N_1  and  C_2 
REMARK    2  A    between atoms: C_2  and  C_3 
REMARK    3  A    between atoms: C_3  and  C_4 
REMARK    4  A    between atoms: C_3  and  N_8 
REMARK    5  A    between atoms: C_4  and  C_5 
REMARK       I    between atoms: C_5  and  N_6 
REMARK    6  A    between atoms: C_9  and  O_10 
REMARK    7  A    between atoms: C_9  and  C_11 
REMARK    8  A    between atoms: C_11  and  C_12 
ROOT
HETATM    1  N           1     -34.877  -2.329 -12.507  0.00  0.00    -0.343 N 
HETATM    2  C           1     -33.904  -2.911 -11.739  0.00  0.00     0.249 C 
HETATM    3  O           1     -33.228  -2.232 -11.002  0.00  0.00    -0.271 OA
HETATM    4  H           1     -35.442  -2.897 -13.123  0.00  0.00     0.163 HD
ENDROOT
BRANCH   2   5
HETATM    5  C           1     -33.673  -4.400 -11.815  0.00  0.00     0.283 C 
BRANCH   5   6
HETATM    6  C           1     -33.959  -5.029 -10.458  0.00  0.00     0.145 C 
BRANCH   6   7
HETATM    7  C           1     -34.592  -6.384 -10.655  0.00  0.00     0.217 C 
HETATM    8  N           1     -34.908  -6.816 -11.915  0.00  0.00    -0.370 N 
HETATM    9  H           1     -35.333  -7.725 -12.047  0.00  0.00     0.159 HD
HETATM   10  H           1     -34.716  -6.227 -12.715  0.00  0.00     0.159 HD
HETATM   11  O           1     -34.820  -7.088  -9.700  0.00  0.00    -0.274 OA
ENDBRANCH   6   7
ENDBRANCH   5   6
BRANCH   5  12
HETATM   12  N           1     -32.248  -4.666 -12.200  0.00  0.00    -0.066 N 
HETATM   13  H           1     -32.214  -5.053 -13.170  0.00  0.00     0.275 HD
HETATM   14  H           1     -31.705  -3.774 -12.162  0.00  0.00     0.275 HD
HETATM   15  H           1     -31.831  -5.357 -11.535  0.00  0.00     0.275 HD
ENDBRANCH   5  12
ENDBRANCH   2   5
BRANCH   1  16
HETATM   16  C           1     -35.097  -0.897 -12.434  0.00  0.00     0.214 C 
BRANCH  16  17
HETATM   17  C           1     -35.501  -0.376 -13.807  0.00  0.00     0.147 C 
HETATM   18  C           1     -34.721   0.896 -14.115  0.00  0.00     0.042 C 
BRANCH  17  19
HETATM   19  O           1     -35.214  -1.347 -14.778  0.00  0.00    -0.393 OA
HETATM   20  H           1     -34.748  -2.040 -14.342  0.00  0.00     0.210 HD
ENDBRANCH  17  19
ENDBRANCH  16  17
BRANCH  16  21
HETATM   21  C           1     -36.199  -0.609 -11.443  0.00  0.00     0.199 C 
HETATM   22  O           1     -37.238  -1.302 -11.445  0.00  0.00    -0.646 OA
HETATM   23  O           1     -36.070   0.323 -10.619  0.00  0.00    -0.646 OA
ENDBRANCH  16  21
ENDBRANCH   1  16
TORSDOF 8
ENDMDL
MODEL 3
REMARK VINA RESULT:      -6.2     12.028     14.443
REMARK  8 active torsions:
REMARK  status: ('A' for Active; 'I' for Inactive)
REMARK    1  A    between atoms: N_1  and  C_11 
REMARK       I    between atoms: N_1  and  C_2 
REMARK    2  A    between atoms: C_2  and  C_3 
REMARK    3  A    between atoms: C_3  and  C_4 
REMARK    4  A    between atoms: C_3  and  N_8 
REMARK    5  A    between atoms: C_4  and  C_5 
REMARK       I    between atoms: C_5  and  N_6 
REMARK    6  A    between atoms: C_9  and  O_10 
REMARK    7  A    between atoms: C_9  and  C_11 
REMARK    8  A    between atoms: C_11  and  C_12 
ROOT
HETATM    1  N           1     -22.131  -4.794  -9.064  0.00  0.00    -0.343 N 
HETATM    2  C           1     -21.679  -4.548  -7.796  0.00  0.00     0.249 C 
HETATM    3  O           1     -21.660  -3.417  -7.370  0.00  0.00    -0.271 OA
HETATM    4  H           1     -22.147  -5.741  -9.420  0.00  0.00     0.163 HD
ENDROOT
BRANCH   2   5
HETATM    5  C           1     -21.203  -5.688  -6.929  0.00  0.00     0.283 C 
BRANCH   5   6
HETATM    6  C           1     -20.967  -5.185  -5.512  0.00  0.00     0.145 C 
BRANCH   6   7
HETATM    7  C           1     -21.195  -6.311  -4.534  0.00  0.00     0.217 C 
HETATM    8  N           1     -21.901  -6.087  -3.383  0.00  0.00    -0.370 N 
HETATM    9  H           1     -22.053  -6.842  -2.727  0.00  0.00     0.159 HD
HETATM   10  H           1     -22.271  -5.165  -3.188  0.00  0.00     0.159 HD
HETATM   11  O           1     -20.753  -7.412  -4.767  0.00  0.00    -0.274 OA
ENDBRANCH   6   7
ENDBRANCH   5   6
BRANCH   5  12
HETATM   12  N           1     -19.922  -6.237  -7.484  0.00  0.00    -0.066 N 
HETATM   13  H           1     -20.136  -6.996  -8.170  0.00  0.00     0.275 HD
HETATM   14  H           1     -19.395  -5.473  -7.965  0.00  0.00     0.275 HD
HETATM   15  H           1     -19.343  -6.623  -6.705  0.00  0.00     0.275 HD
ENDBRANCH   5  12
ENDBRANCH   2   5
BRANCH   1  16
HETATM   16  C           1     -22.588  -3.699  -9.897  0.00  0.00     0.214 C 
BRANCH  16  17
HETATM   17  C           1     -21.805  -3.694 -11.204  0.00  0.00     0.147 C 
HETATM   18  C           1     -20.399  -4.226 -10.955  0.00  0.00     0.042 C 
BRANCH  17  19
HETATM   19  O           1     -22.455  -4.511 -12.140  0.00  0.00    -0.393 OA
HETATM   20  H           1     -23.042  -5.067 -11.657  0.00  0.00     0.210 HD
ENDBRANCH  17  19
ENDBRANCH  16  17
BRANCH  16  21
HETATM   21  C           1     -24.058  -3.871 -10.192  0.00  0.00     0.199 C 
HETATM   22  O           1     -24.630  -4.945  -9.909  0.00  0.00    -0.646 OA
HETATM   23  O           1     -24.703  -2.938 -10.718  0.00  0.00    -0.646 OA
ENDBRANCH  16  21
ENDBRANCH   1  16
TORSDOF 8
ENDMDL
MODEL 4
REMARK VINA RESULT:      -6.2      2.085      5.751
REMARK  8 active torsions:
REMARK  status: ('A' for Active; 'I' for Inactive)
REMARK    1  A    between atoms: N_1  and  C_11 
REMARK       I    between atoms: N_1  and  C_2 
REMARK    2  A    between atoms: C_2  and  C_3 
REMARK    3  A    between atoms: C_3  and  C_4 
REMARK    4  A    between atoms: C_3  and  N_8 
REMARK    5  A    between atoms: C_4  and  C_5 
REMARK       I    between atoms: C_5  and  N_6 
REMARK    6  A    between atoms: C_9  and  O_10 
REMARK    7  A    between atoms: C_9  and  C_11 
REMARK    8  A    between atoms: C_11  and  C_12 
ROOT
HETATM    1  N           1     -34.712  -1.553 -13.139  0.00  0.00    -0.343 N 
HETATM    2  C           1     -35.843  -0.785 -13.213  0.00  0.00     0.249 C 
HETATM    3  O           1     -36.820  -1.084 -12.567  0.00  0.00    -0.271 OA
HETATM    4  H           1     -33.895  -1.303 -13.680  0.00  0.00     0.163 HD
ENDROOT
BRANCH   2   5
HETATM    5  C           1     -35.872   0.432 -14.104  0.00  0.00     0.283 C 
BRANCH   5   6
HETATM    6  C           1     -35.865  -0.005 -15.563  0.00  0.00     0.145 C 
BRANCH   6   7
HETATM    7  C           1     -37.273   0.033 -16.106  0.00  0.00     0.217 C 
HETATM    8  N           1     -38.069   1.121 -15.871  0.00  0.00    -0.370 N 
HETATM    9  H           1     -39.012   1.146 -16.235  0.00  0.00     0.159 HD
HETATM   10  H           1     -37.713   1.901 -15.333  0.00  0.00     0.159 HD
HETATM   11  O           1     -37.697  -0.899 -16.749  0.00  0.00    -0.274 OA
ENDBRANCH   6   7
ENDBRANCH   5   6
BRANCH   5  12
HETATM   12  N           1     -34.665   1.281 -13.831  0.00  0.00    -0.066 N 
HETATM   13  H           1     -34.112   0.860 -13.051  0.00  0.00     0.275 HD
HETATM   14  H           1     -34.073   1.330 -14.691  0.00  0.00     0.275 HD
HETATM   15  H           1     -34.971   2.243 -13.563  0.00  0.00     0.275 HD
ENDBRANCH   5  12
ENDBRANCH   2   5
BRANCH   1  16
HETATM   16  C           1     -34.686  -2.723 -12.284  0.00  0.00     0.214 C 
BRANCH  16  17
HETATM   17  C           1     -34.131  -3.909 -13.063  0.00  0.00     0.147 C 
HETATM   18  C           1     -34.796  -5.190 -12.578  0.00  0.00     0.042 C 
BRANCH  17  19
HETATM   19  O           1     -34.395  -3.733 -14.429  0.00  0.00    -0.393 OA
HETATM   20  H           1     -34.135  -2.855 -14.647  0.00  0.00     0.210 HD
ENDBRANCH  17  19
ENDBRANCH  16  17
BRANCH  16  21
HETATM   21  C           1     -33.805  -2.451 -11.088  0.00  0.00     0.199 C 
HETATM   22  O           1     -32.648  -2.920 -11.044  0.00  0.00    -0.646 OA
HETATM   23  O           1     -34.234  -1.754 -10.142  0.00  0.00    -0.646 OA
ENDBRANCH  16  21
ENDBRANCH   1  16
TORSDOF 8
ENDMDL
MODEL 5
REMARK VINA RESULT:      -6.1     11.516     14.486
REMARK  8 active torsions:
REMARK  status: ('A' for Active; 'I' for Inactive)
REMARK    1  A    between atoms: N_1  and  C_11 
REMARK       I    between atoms: N_1  and  C_2 
REMARK    2  A    between atoms: C_2  and  C_3 
REMARK    3  A    between atoms: C_3  and  C_4 
REMARK    4  A    between atoms: C_3  and  N_8 
REMARK    5  A    between atoms: C_4  and  C_5 
REMARK       I    between atoms: C_5  and  N_6 
REMARK    6  A    between atoms: C_9  and  O_10 
REMARK    7  A    between atoms: C_9  and  C_11 
REMARK    8  A    between atoms: C_11  and  C_12 
ROOT
HETATM    1  N           1     -21.689  -4.001  -9.654  0.00  0.00    -0.343 N 
HETATM    2  C           1     -22.655  -4.030 -10.623  0.00  0.00     0.249 C 
HETATM    3  O           1     -23.553  -4.836 -10.558  0.00  0.00    -0.271 OA
HETATM    4  H           1     -20.937  -3.326  -9.708  0.00  0.00     0.163 HD
ENDROOT
BRANCH   2   5
HETATM    5  C           1     -22.598  -3.056 -11.774  0.00  0.00     0.283 C 
BRANCH   5   6
HETATM    6  C           1     -23.980  -2.928 -12.401  0.00  0.00     0.145 C 
BRANCH   6   7
HETATM    7  C           1     -23.843  -2.489 -13.838  0.00  0.00     0.217 C 
HETATM    8  N           1     -23.928  -1.161 -14.159  0.00  0.00    -0.370 N 
HETATM    9  H           1     -23.836  -0.867 -15.122  0.00  0.00     0.159 HD
HETATM   10  H           1     -24.083  -0.474 -13.433  0.00  0.00     0.159 HD
HETATM   11  O           1     -23.657  -3.310 -14.705  0.00  0.00    -0.274 OA
ENDBRANCH   6   7
ENDBRANCH   5   6
BRANCH   5  12
HETATM   12  N           1     -21.627  -3.553 -12.803  0.00  0.00    -0.066 N 
HETATM   13  H           1     -21.335  -2.762 -13.419  0.00  0.00     0.275 HD
HETATM   14  H           1     -20.786  -3.950 -12.325  0.00  0.00     0.275 HD
HETATM   15  H           1     -22.082  -4.296 -13.381  0.00  0.00     0.275 HD
ENDBRANCH   5  12
ENDBRANCH   2   5
BRANCH   1  16
HETATM   16  C           1     -21.743  -4.938  -8.548  0.00  0.00     0.214 C 
BRANCH  16  17
HETATM   17  C           1     -20.349  -5.494  -8.286  0.00  0.00     0.147 C 
HETATM   18  C           1     -19.344  -4.351  -8.259  0.00  0.00     0.042 C 
BRANCH  17  19
HETATM   19  O           1     -20.337  -6.157  -7.050  0.00  0.00    -0.393 OA
HETATM   20  H           1     -19.567  -5.866  -6.591  0.00  0.00     0.210 HD
ENDBRANCH  17  19
ENDBRANCH  16  17
BRANCH  16  21
HETATM   21  C           1     -22.243  -4.229  -7.313  0.00  0.00     0.199 C 
HETATM   22  O           1     -23.223  -4.682  -6.685  0.00  0.00    -0.646 OA
HETATM   23  O           1     -21.674  -3.187  -6.918  0.00  0.00    -0.646 OA
ENDBRANCH  16  21
ENDBRANCH   1  16
TORSDOF 8
ENDMDL
MODEL 6
REMARK VINA RESULT:      -6.0      1.886      2.360
REMARK  8 active torsions:
REMARK  status: ('A' for Active; 'I' for Inactive)
REMARK    1  A    between atoms: N_1  and  C_11 
REMARK       I    between atoms: N_1  and  C_2 
REMARK    2  A    between atoms: C_2  and  C_3 
REMARK    3  A    between atoms: C_3  and  C_4 
REMARK    4  A    between atoms: C_3  and  N_8 
REMARK    5  A    between atoms: C_4  and  C_5 
REMARK       I    between atoms: C_5  and  N_6 
REMARK    6  A    between atoms: C_9  and  O_10 
REMARK    7  A    between atoms: C_9  and  C_11 
REMARK    8  A    between atoms: C_11  and  C_12 
ROOT
HETATM    1  N           1     -34.969  -1.352 -12.432  0.00  0.00    -0.343 N 
HETATM    2  C           1     -34.284  -2.527 -12.587  0.00  0.00     0.249 C 
HETATM    3  O           1     -34.405  -3.167 -13.605  0.00  0.00    -0.271 OA
HETATM    4  H           1     -34.868  -0.816 -11.580  0.00  0.00     0.163 HD
ENDROOT
BRANCH   2   5
HETATM    5  C           1     -33.380  -3.024 -11.486  0.00  0.00     0.283 C 
BRANCH   5   6
HETATM    6  C           1     -32.891  -4.426 -11.824  0.00  0.00     0.145 C 
BRANCH   6   7
HETATM    7  C           1     -33.950  -5.433 -11.446  0.00  0.00     0.217 C 
HETATM    8  N           1     -34.830  -5.888 -12.390  0.00  0.00    -0.370 N 
HETATM    9  H           1     -35.540  -6.563 -12.137  0.00  0.00     0.159 HD
HETATM   10  H           1     -34.771  -5.549 -13.342  0.00  0.00     0.159 HD
HETATM   11  O           1     -34.019  -5.838 -10.309  0.00  0.00    -0.274 OA
ENDBRANCH   6   7
ENDBRANCH   5   6
BRANCH   5  12
HETATM   12  N           1     -34.138  -3.057 -10.192  0.00  0.00    -0.066 N 
HETATM   13  H           1     -33.469  -3.180  -9.399  0.00  0.00     0.275 HD
HETATM   14  H           1     -34.659  -2.159 -10.071  0.00  0.00     0.275 HD
HETATM   15  H           1     -34.814  -3.854 -10.205  0.00  0.00     0.275 HD
ENDBRANCH   5  12
ENDBRANCH   2   5
BRANCH   1  16
HETATM   16  C           1     -35.839  -0.875 -13.489  0.00  0.00     0.214 C 
BRANCH  16  17
HETATM   17  C           1     -37.179  -0.459 -12.895  0.00  0.00     0.147 C 
HETATM   18  C           1     -36.983  -0.046 -11.443  0.00  0.00     0.042 C 
BRANCH  17  19
HETATM   19  O           1     -37.697   0.621 -13.624  0.00  0.00    -0.393 OA
HETATM   20  H           1     -37.265   1.396 -13.309  0.00  0.00     0.210 HD
ENDBRANCH  17  19
ENDBRANCH  16  17
BRANCH  16  21
HETATM   21  C           1     -35.200   0.312 -14.168  0.00  0.00     0.199 C 
HETATM   22  O           1     -35.315   0.462 -15.403  0.00  0.00    -0.646 OA
HETATM   23  O           1     -34.557   1.146 -13.493  0.00  0.00    -0.646 OA
ENDBRANCH  16  21
ENDBRANCH   1  16
TORSDOF 8
ENDMDL
MODEL 7
REMARK VINA RESULT:      -5.7     11.373     14.586
REMARK  8 active torsions:
REMARK  status: ('A' for Active; 'I' for Inactive)
REMARK    1  A    between atoms: N_1  and  C_11 
REMARK       I    between atoms: N_1  and  C_2 
REMARK    2  A    between atoms: C_2  and  C_3 
REMARK    3  A    between atoms: C_3  and  C_4 
REMARK    4  A    between atoms: C_3  and  N_8 
REMARK    5  A    between atoms: C_4  and  C_5 
REMARK       I    between atoms: C_5  and  N_6 
REMARK    6  A    between atoms: C_9  and  O_10 
REMARK    7  A    between atoms: C_9  and  C_11 
REMARK    8  A    between atoms: C_11  and  C_12 
ROOT
HETATM    1  N           1     -22.594  -5.146  -8.175  0.00  0.00    -0.343 N 
HETATM    2  C           1     -23.115  -4.221  -9.039  0.00  0.00     0.249 C 
HETATM    3  O           1     -22.695  -3.088  -9.037  0.00  0.00    -0.271 OA
HETATM    4  H           1     -22.946  -6.095  -8.177  0.00  0.00     0.163 HD
ENDROOT
BRANCH   2   5
HETATM    5  C           1     -24.216  -4.615  -9.993  0.00  0.00     0.283 C 
BRANCH   5   6
HETATM    6  C           1     -23.675  -4.630 -11.416  0.00  0.00     0.145 C 
BRANCH   6   7
HETATM    7  C           1     -24.027  -3.334 -12.103  0.00  0.00     0.217 C 
HETATM    8  N           1     -23.136  -2.294 -12.102  0.00  0.00    -0.370 N 
HETATM    9  H           1     -23.372  -1.425 -12.562  0.00  0.00     0.159 HD
HETATM   10  H           1     -22.241  -2.396 -11.641  0.00  0.00     0.159 HD
HETATM   11  O           1     -25.096  -3.213 -12.654  0.00  0.00    -0.274 OA
ENDBRANCH   6   7
ENDBRANCH   5   6
BRANCH   5  12
HETATM   12  N           1     -25.340  -3.627  -9.896  0.00  0.00    -0.066 N 
HETATM   13  H           1     -25.548  -3.432  -8.891  0.00  0.00     0.275 HD
HETATM   14  H           1     -25.064  -2.738 -10.372  0.00  0.00     0.275 HD
HETATM   15  H           1     -26.190  -4.020 -10.359  0.00  0.00     0.275 HD
ENDBRANCH   5  12
ENDBRANCH   2   5
BRANCH   1  16
HETATM   16  C           1     -21.537  -4.767  -7.258  0.00  0.00     0.214 C 
BRANCH  16  17
HETATM   17  C           1     -21.557  -5.695  -6.050  0.00  0.00     0.147 C 
HETATM   18  C           1     -20.569  -5.190  -5.007  0.00  0.00     0.042 C 
BRANCH  17  19
HETATM   19  O           1     -22.847  -5.719  -5.501  0.00  0.00    -0.393 OA
HETATM   20  H           1     -22.745  -5.773  -4.566  0.00  0.00     0.210 HD
ENDBRANCH  17  19
ENDBRANCH  16  17
BRANCH  16  21
HETATM   21  C           1     -20.204  -4.877  -7.956  0.00  0.00     0.199 C 
HETATM   22  O           1     -19.544  -3.847  -8.209  0.00  0.00    -0.646 OA
HETATM   23  O           1     -19.758  -6.000  -8.279  0.00  0.00    -0.646 OA
ENDBRANCH  16  21
ENDBRANCH   1  16
TORSDOF 8
ENDMDL
MODEL 8
REMARK VINA RESULT:      -5.6      2.698      5.612
REMARK  8 active torsions:
REMARK  status: ('A' for Active; 'I' for Inactive)
REMARK    1  A    between atoms: N_1  and  C_11 
REMARK       I    between atoms: N_1  and  C_2 
REMARK    2  A    between atoms: C_2  and  C_3 
REMARK    3  A    between atoms: C_3  and  C_4 
REMARK    4  A    between atoms: C_3  and  N_8 
REMARK    5  A    between atoms: C_4  and  C_5 
REMARK       I    between atoms: C_5  and  N_6 
REMARK    6  A    between atoms: C_9  and  O_10 
REMARK    7  A    between atoms: C_9  and  C_11 
REMARK    8  A    between atoms: C_11  and  C_12 
ROOT
HETATM    1  N           1     -34.959  -3.734 -10.956  0.00  0.00    -0.343 N 
HETATM    2  C           1     -34.922  -2.448 -10.487  0.00  0.00     0.249 C 
HETATM    3  O           1     -33.878  -1.972 -10.107  0.00  0.00    -0.271 OA
HETATM    4  H           1     -35.833  -4.132 -11.273  0.00  0.00     0.163 HD
ENDROOT
BRANCH   2   5
HETATM    5  C           1     -36.187  -1.626 -10.439  0.00  0.00     0.283 C 
BRANCH   5   6
HETATM    6  C           1     -36.601  -1.249 -11.855  0.00  0.00     0.145 C 
BRANCH   6   7
HETATM    7  C           1     -35.449  -0.570 -12.553  0.00  0.00     0.217 C 
HETATM    8  N           1     -34.877  -1.150 -13.653  0.00  0.00    -0.370 N 
HETATM    9  H           1     -34.105  -0.695 -14.122  0.00  0.00     0.159 HD
HETATM   10  H           1     -35.227  -2.035 -13.999  0.00  0.00     0.159 HD
HETATM   11  O           1     -35.031   0.487 -12.141  0.00  0.00    -0.274 OA
ENDBRANCH   6   7
ENDBRANCH   5   6
BRANCH   5  12
HETATM   12  N           1     -35.944  -0.380  -9.641  0.00  0.00    -0.066 N 
HETATM   13  H           1     -35.291   0.248 -10.164  0.00  0.00     0.275 HD
HETATM   14  H           1     -36.850   0.116  -9.484  0.00  0.00     0.275 HD
HETATM   15  H           1     -35.520  -0.633  -8.720  0.00  0.00     0.275 HD
ENDBRANCH   5  12
ENDBRANCH   2   5
BRANCH   1  16
HETATM   16  C           1     -33.744  -4.524 -11.000  0.00  0.00     0.214 C 
BRANCH  16  17
HETATM   17  C           1     -34.099  -6.004 -10.942  0.00  0.00     0.147 C 
HETATM   18  C           1     -34.981  -6.266  -9.729  0.00  0.00     0.042 C 
BRANCH  17  19
HETATM   19  O           1     -34.788  -6.364 -12.110  0.00  0.00    -0.393 OA
HETATM   20  H           1     -34.526  -7.245 -12.320  0.00  0.00     0.210 HD
ENDBRANCH  17  19
ENDBRANCH  16  17
BRANCH  16  21
HETATM   21  C           1     -33.003  -4.234 -12.283  0.00  0.00     0.199 C 
HETATM   22  O           1     -33.608  -3.733 -13.255  0.00  0.00    -0.646 OA
HETATM   23  O           1     -31.782  -4.493 -12.372  0.00  0.00    -0.646 OA
ENDBRANCH  16  21
ENDBRANCH   1  16
TORSDOF 8
ENDMDL
MODEL 9
REMARK VINA RESULT:      -5.6      2.201      5.227
REMARK  8 active torsions:
REMARK  status: ('A' for Active; 'I' for Inactive)
REMARK    1  A    between atoms: N_1  and  C_11 
REMARK       I    between atoms: N_1  and  C_2 
REMARK    2  A    between atoms: C_2  and  C_3 
REMARK    3  A    between atoms: C_3  and  C_4 
REMARK    4  A    between atoms: C_3  and  N_8 
REMARK    5  A    between atoms: C_4  and  C_5 
REMARK       I    between atoms: C_5  and  N_6 
REMARK    6  A    between atoms: C_9  and  O_10 
REMARK    7  A    between atoms: C_9  and  C_11 
REMARK    8  A    between atoms: C_11  and  C_12 
ROOT
HETATM    1  N           1     -35.115  -2.323 -12.863  0.00  0.00    -0.343 N 
HETATM    2  C           1     -34.841  -1.201 -12.129  0.00  0.00     0.249 C 
HETATM    3  O           1     -33.974  -1.225 -11.288  0.00  0.00    -0.271 OA
HETATM    4  H           1     -35.841  -2.302 -13.567  0.00  0.00     0.163 HD
ENDROOT
BRANCH   2   5
HETATM    5  C           1     -35.622   0.068 -12.370  0.00  0.00     0.283 C 
BRANCH   5   6
HETATM    6  C           1     -34.797   1.019 -13.226  0.00  0.00     0.145 C 
BRANCH   6   7
HETATM    7  C           1     -35.132   0.805 -14.682  0.00  0.00     0.217 C 
HETATM    8  N           1     -35.846   1.751 -15.366  0.00  0.00    -0.370 N 
HETATM    9  H           1     -36.071   1.608 -16.342  0.00  0.00     0.159 HD
HETATM   10  H           1     -36.149   2.595 -14.896  0.00  0.00     0.159 HD
HETATM   11  O           1     -34.770  -0.202 -15.244  0.00  0.00    -0.274 OA
ENDBRANCH   6   7
ENDBRANCH   5   6
BRANCH   5  12
HETATM   12  N           1     -35.933   0.721 -11.056  0.00  0.00    -0.066 N 
HETATM   13  H           1     -35.042   0.938 -10.555  0.00  0.00     0.275 HD
HETATM   14  H           1     -36.463   1.606 -11.224  0.00  0.00     0.275 HD
HETATM   15  H           1     -36.511   0.073 -10.474  0.00  0.00     0.275 HD
ENDBRANCH   5  12
ENDBRANCH   2   5
BRANCH   1  16
HETATM   16  C           1     -34.365  -3.542 -12.630  0.00  0.00     0.214 C 
BRANCH  16  17
HETATM   17  C           1     -35.040  -4.352 -11.531  0.00  0.00     0.147 C 
HETATM   18  C           1     -34.001  -4.773 -10.500  0.00  0.00     0.042 C 
BRANCH  17  19
HETATM   19  O           1     -36.023  -3.567 -10.910  0.00  0.00    -0.393 OA
HETATM   20  H           1     -36.805  -3.646 -11.431  0.00  0.00     0.210 HD
ENDBRANCH  17  19
ENDBRANCH  16  17
BRANCH  16  21
HETATM   21  C           1     -34.324  -4.356 -13.901  0.00  0.00     0.199 C 
HETATM   22  O           1     -35.041  -5.373 -14.016  0.00  0.00    -0.646 OA
HETATM   23  O           1     -33.573  -4.011 -14.840  0.00  0.00    -0.646 OA
ENDBRANCH  16  21
ENDBRANCH   1  16
TORSDOF 8
ENDMDL
