MODEL 1
REMARK VINA RESULT:      -5.9      0.000      0.000
REMARK  4 active torsions:
REMARK  status: ('A' for Active; 'I' for Inactive)
REMARK    1  A    between atoms: N_2  and  C_12 
REMARK    2  A    between atoms: C_5  and  C_12 
REMARK    3  A    between atoms: C_9  and  C_11 
REMARK    4  A    between atoms: C_12  and  C_15 
REMARK       I    between atoms: C_15  and  N_17 
ROOT
HETATM    1  C           1     -37.623  -0.125 -14.782  0.00  0.00     0.038 C 
HETATM    2  O           1     -34.563  -2.786 -14.206  0.00  0.00    -0.271 OA
HETATM    3  C           1     -36.149  -0.485 -14.836  0.00  0.00     0.188 C 
HETATM    4  C           1     -37.950  -0.015 -13.298  0.00  0.00     0.022 C 
HETATM    5  C           1     -35.129  -2.226 -13.297  0.00  0.00     0.251 C 
HETATM    6  N           1     -35.898  -1.121 -13.547  0.00  0.00    -0.336 N 
HETATM    7  C           1     -36.648  -0.323 -12.581  0.00  0.00     0.127 C 
ENDROOT
BRANCH   5   8
HETATM    8  C           1     -34.985  -2.743 -11.886  0.00  0.00     0.278 C 
BRANCH   8   9
HETATM    9  N           1     -35.210  -4.226 -11.874  0.00  0.00    -0.066 N 
HETATM   10  H           1     -35.420  -4.554 -12.843  0.00  0.00     0.275 HD
HETATM   11  H           1     -34.351  -4.705 -11.522  0.00  0.00     0.275 HD
HETATM   12  H           1     -36.016  -4.450 -11.248  0.00  0.00     0.275 HD
ENDBRANCH   8   9
BRANCH   8  13
HETATM   13  C           1     -33.585  -2.437 -11.373  0.00  0.00     0.017 C 
HETATM   14  C           1     -32.726  -3.691 -11.464  0.00  0.00     0.012 C 
HETATM   15  C           1     -33.663  -1.980  -9.922  0.00  0.00     0.012 C 
ENDBRANCH   8  13
ENDBRANCH   5   8
BRANCH   3  16
HETATM   16  C           1     -35.300   0.752 -15.000  0.00  0.00     0.196 C 
HETATM   17  O           1     -35.757   1.747 -15.604  0.00  0.00    -0.646 OA
HETATM   18  O           1     -34.142   0.782 -14.532  0.00  0.00    -0.646 OA
ENDBRANCH   3  16
TORSDOF 4
ENDMDL
MODEL 2
REMARK VINA RESULT:      -5.4     18.763     20.205
REMARK  4 active torsions:
REMARK  status: ('A' for Active; 'I' for Inactive)
REMARK    1  A    between atoms: N_2  and  C_12 
REMARK    2  A    between atoms: C_5  and  C_12 
REMARK    3  A    between atoms: C_9  and  C_11 
REMARK    4  A    between atoms: C_12  and  C_15 
REMARK       I    between atoms: C_15  and  N_17 
ROOT
HETATM    1  C           1     -20.340  -7.728  -2.663  0.00  0.00     0.038 C 
HETATM    2  O           1     -20.925  -9.699   0.880  0.00  0.00    -0.271 OA
HETATM    3  C           1     -21.030  -7.863  -1.317  0.00  0.00     0.188 C 
HETATM    4  C           1     -20.898  -8.864  -3.511  0.00  0.00     0.022 C 
HETATM    5  C           1     -21.337 -10.110  -0.179  0.00  0.00     0.251 C 
HETATM    6  N           1     -21.407  -9.272  -1.259  0.00  0.00    -0.336 N 
HETATM    7  C           1     -21.874  -9.593  -2.605  0.00  0.00     0.127 C 
ENDROOT
BRANCH   5   8
HETATM    8  C           1     -21.775 -11.549  -0.310  0.00  0.00     0.278 C 
BRANCH   8   9
HETATM    9  N           1     -20.820 -12.431   0.438  0.00  0.00    -0.066 N 
HETATM   10  H           1     -20.099 -12.801  -0.221  0.00  0.00     0.275 HD
HETATM   11  H           1     -20.355 -11.879   1.193  0.00  0.00     0.275 HD
HETATM   12  H           1     -21.345 -13.229   0.863  0.00  0.00     0.275 HD
ENDBRANCH   8   9
BRANCH   8  13
HETATM   13  C           1     -23.174 -11.708   0.269  0.00  0.00     0.017 C 
HETATM   14  C           1     -23.253 -13.012   1.052  0.00  0.00     0.012 C 
HETATM   15  C           1     -24.193 -11.734  -0.863  0.00  0.00     0.012 C 
ENDBRANCH   8  13
ENDBRANCH   5   8
BRANCH   3  16
HETATM   16  C           1     -22.250  -6.977  -1.249  0.00  0.00     0.196 C 
HETATM   17  O           1     -23.091  -7.143  -0.339  0.00  0.00    -0.646 OA
HETATM   18  O           1     -22.419  -6.078  -2.101  0.00  0.00    -0.646 OA
ENDBRANCH   3  16
TORSDOF 4
ENDMDL
MODEL 3
REMARK VINA RESULT:      -5.4      1.924      2.655
REMARK  4 active torsions:
REMARK  status: ('A' for Active; 'I' for Inactive)
REMARK    1  A    between atoms: N_2  and  C_12 
REMARK    2  A    between atoms: C_5  and  C_12 
REMARK    3  A    between atoms: C_9  and  C_11 
REMARK    4  A    between atoms: C_12  and  C_15 
REMARK       I    between atoms: C_15  and  N_17 
ROOT
HETATM    1  C           1     -36.027   1.578 -15.402  0.00  0.00     0.038 C 
HETATM    2  O           1     -37.685  -1.010 -12.696  0.00  0.00    -0.271 OA
HETATM    3  C           1     -36.561   0.206 -15.033  0.00  0.00     0.188 C 
HETATM    4  C           1     -34.718   1.714 -14.633  0.00  0.00     0.022 C 
HETATM    5  C           1     -36.531  -0.657 -12.647  0.00  0.00     0.251 C 
HETATM    6  N           1     -35.947  -0.071 -13.739  0.00  0.00    -0.336 N 
HETATM    7  C           1     -34.576   0.414 -13.860  0.00  0.00     0.127 C 
ENDROOT
BRANCH   5   8
HETATM    8  C           1     -35.731  -0.863 -11.383  0.00  0.00     0.278 C 
BRANCH   8   9
HETATM    9  N           1     -36.659  -0.895 -10.206  0.00  0.00    -0.066 N 
HETATM   10  H           1     -36.501  -1.773  -9.662  0.00  0.00     0.275 HD
HETATM   11  H           1     -36.476  -0.068  -9.595  0.00  0.00     0.275 HD
HETATM   12  H           1     -37.649  -0.869 -10.542  0.00  0.00     0.275 HD
ENDBRANCH   8   9
BRANCH   8  13
HETATM   13  C           1     -34.974  -2.182 -11.470  0.00  0.00     0.017 C 
HETATM   14  C           1     -35.788  -3.278 -10.796  0.00  0.00     0.012 C 
HETATM   15  C           1     -33.630  -2.044 -10.769  0.00  0.00     0.012 C 
ENDBRANCH   8  13
ENDBRANCH   5   8
BRANCH   3  16
HETATM   16  C           1     -36.147  -0.824 -16.056  0.00  0.00     0.196 C 
HETATM   17  O           1     -36.539  -0.723 -17.238  0.00  0.00    -0.646 OA
HETATM   18  O           1     -35.412  -1.777 -15.721  0.00  0.00    -0.646 OA
ENDBRANCH   3  16
TORSDOF 4
ENDMDL
MODEL 4
REMARK VINA RESULT:      -5.3     24.785     25.925
REMARK  4 active torsions:
REMARK  status: ('A' for Active; 'I' for Inactive)
REMARK    1  A    between atoms: N_2  and  C_12 
REMARK    2  A    between atoms: C_5  and  C_12 
REMARK    3  A    between atoms: C_9  and  C_11 
REMARK    4  A    between atoms: C_12  and  C_15 
REMARK       I    between atoms: C_15  and  N_17 
ROOT
HETATM    1  C           1     -10.328   9.063 -19.836  0.00  0.00     0.038 C 
HETATM    2  O           1     -13.487   6.463 -19.626  0.00  0.00    -0.271 OA
HETATM    3  C           1     -11.781   8.714 -20.109  0.00  0.00     0.188 C 
HETATM    4  C           1      -9.523   8.178 -20.781  0.00  0.00     0.022 C 
HETATM    5  C           1     -12.561   6.315 -20.388  0.00  0.00     0.251 C 
HETATM    6  N           1     -11.717   7.361 -20.652  0.00  0.00    -0.336 N 
HETATM    7  C           1     -10.557   7.364 -21.539  0.00  0.00     0.127 C 
ENDROOT
BRANCH   5   8
HETATM    8  C           1     -12.336   4.977 -21.050  0.00  0.00     0.278 C 
BRANCH   8   9
HETATM    9  N           1     -11.483   4.119 -20.163  0.00  0.00    -0.066 N 
HETATM   10  H           1     -11.974   3.216 -19.976  0.00  0.00     0.275 HD
HETATM   11  H           1     -10.571   3.930 -20.634  0.00  0.00     0.275 HD
HETATM   12  H           1     -11.313   4.616 -19.259  0.00  0.00     0.275 HD
ENDBRANCH   8   9
BRANCH   8  13
HETATM   13  C           1     -13.676   4.293 -21.282  0.00  0.00     0.017 C 
HETATM   14  C           1     -13.461   2.793 -21.434  0.00  0.00     0.012 C 
HETATM   15  C           1     -14.317   4.845 -22.548  0.00  0.00     0.012 C 
ENDBRANCH   8  13
ENDBRANCH   5   8
BRANCH   3  16
HETATM   16  C           1     -12.383   9.668 -21.111  0.00  0.00     0.196 C 
HETATM   17  O           1     -13.468   9.388 -21.666  0.00  0.00    -0.646 OA
HETATM   18  O           1     -11.798  10.737 -21.387  0.00  0.00    -0.646 OA
ENDBRANCH   3  16
TORSDOF 4
ENDMDL
MODEL 5
REMARK VINA RESULT:      -5.2     24.537     25.702
REMARK  4 active torsions:
REMARK  status: ('A' for Active; 'I' for Inactive)
REMARK    1  A    between atoms: N_2  and  C_12 
REMARK    2  A    between atoms: C_5  and  C_12 
REMARK    3  A    between atoms: C_9  and  C_11 
REMARK    4  A    between atoms: C_12  and  C_15 
REMARK       I    between atoms: C_15  and  N_17 
ROOT
HETATM    1  C           1     -15.051   4.927 -21.577  0.00  0.00     0.038 C 
HETATM    2  O           1     -12.082   6.537 -19.261  0.00  0.00    -0.271 OA
HETATM    3  C           1     -13.783   4.782 -20.755  0.00  0.00     0.188 C 
HETATM    4  C           1     -14.625   5.675 -22.835  0.00  0.00     0.022 C 
HETATM    5  C           1     -12.143   6.694 -20.457  0.00  0.00     0.251 C 
HETATM    6  N           1     -12.942   5.881 -21.216  0.00  0.00    -0.336 N 
HETATM    7  C           1     -13.137   5.924 -22.662  0.00  0.00     0.127 C 
ENDROOT
BRANCH   5   8
HETATM    8  C           1     -11.337   7.788 -21.116  0.00  0.00     0.278 C 
BRANCH   8   9
HETATM    9  N           1     -11.990   9.113 -20.859  0.00  0.00    -0.066 N 
HETATM   10  H           1     -11.584   9.831 -21.500  0.00  0.00     0.275 HD
HETATM   11  H           1     -13.017   9.033 -21.029  0.00  0.00     0.275 HD
HETATM   12  H           1     -11.821   9.397 -19.867  0.00  0.00     0.275 HD
ENDBRANCH   8   9
BRANCH   8  13
HETATM   13  C           1      -9.927   7.796 -20.540  0.00  0.00     0.017 C 
HETATM   14  C           1      -9.141   8.954 -21.142  0.00  0.00     0.012 C 
HETATM   15  C           1      -9.232   6.483 -20.875  0.00  0.00     0.012 C 
ENDBRANCH   8  13
ENDBRANCH   5   8
BRANCH   3  16
HETATM   16  C           1     -13.123   3.451 -21.018  0.00  0.00     0.196 C 
HETATM   17  O           1     -13.709   2.587 -21.705  0.00  0.00    -0.646 OA
HETATM   18  O           1     -11.989   3.212 -20.548  0.00  0.00    -0.646 OA
ENDBRANCH   3  16
TORSDOF 4
ENDMDL
MODEL 6
REMARK VINA RESULT:      -5.1     19.402     21.468
REMARK  4 active torsions:
REMARK  status: ('A' for Active; 'I' for Inactive)
REMARK    1  A    between atoms: N_2  and  C_12 
REMARK    2  A    between atoms: C_5  and  C_12 
REMARK    3  A    between atoms: C_9  and  C_11 
REMARK    4  A    between atoms: C_12  and  C_15 
REMARK       I    between atoms: C_15  and  N_17 
ROOT
HETATM    1  C           1     -22.608 -13.118   1.001  0.00  0.00     0.038 C 
HETATM    2  O           1     -20.983  -9.367   1.261  0.00  0.00    -0.271 OA
HETATM    3  C           1     -21.447 -12.158   0.809  0.00  0.00     0.188 C 
HETATM    4  C           1     -23.633 -12.718  -0.054  0.00  0.00     0.022 C 
HETATM    5  C           1     -21.801  -9.674   0.428  0.00  0.00     0.251 C 
HETATM    6  N           1     -22.059 -10.995   0.174  0.00  0.00    -0.336 N 
HETATM    7  C           1     -23.007 -11.546  -0.790  0.00  0.00     0.127 C 
ENDROOT
BRANCH   5   8
HETATM    8  C           1     -22.539  -8.601  -0.335  0.00  0.00     0.278 C 
BRANCH   8   9
HETATM    9  N           1     -23.450  -7.861   0.599  0.00  0.00    -0.066 N 
HETATM   10  H           1     -23.042  -7.869   1.561  0.00  0.00     0.275 HD
HETATM   11  H           1     -23.556  -6.874   0.273  0.00  0.00     0.275 HD
HETATM   12  H           1     -24.385  -8.327   0.614  0.00  0.00     0.275 HD
ENDBRANCH   8   9
BRANCH   8  13
HETATM   13  C           1     -21.536  -7.629  -0.943  0.00  0.00     0.017 C 
HETATM   14  C           1     -22.282  -6.462  -1.578  0.00  0.00     0.012 C 
HETATM   15  C           1     -20.714  -8.345  -2.005  0.00  0.00     0.012 C 
ENDBRANCH   8  13
ENDBRANCH   5   8
BRANCH   3  16
HETATM   16  C           1     -20.392 -12.764  -0.083  0.00  0.00     0.196 C 
HETATM   17  O           1     -20.361 -14.000  -0.264  0.00  0.00    -0.646 OA
HETATM   18  O           1     -19.548 -12.029  -0.641  0.00  0.00    -0.646 OA
ENDBRANCH   3  16
TORSDOF 4
ENDMDL
MODEL 7
REMARK VINA RESULT:      -5.0     17.760     19.339
REMARK  4 active torsions:
REMARK  status: ('A' for Active; 'I' for Inactive)
REMARK    1  A    between atoms: N_2  and  C_12 
REMARK    2  A    between atoms: C_5  and  C_12 
REMARK    3  A    between atoms: C_9  and  C_11 
REMARK    4  A    between atoms: C_12  and  C_15 
REMARK       I    between atoms: C_15  and  N_17 
ROOT
HETATM    1  C           1     -20.048  -9.724  -5.267  0.00  0.00     0.038 C 
HETATM    2  O           1     -19.909  -7.804  -1.652  0.00  0.00    -0.271 OA
HETATM    3  C           1     -20.240  -8.481  -4.415  0.00  0.00     0.188 C 
HETATM    4  C           1     -21.163 -10.672  -4.843  0.00  0.00     0.022 C 
HETATM    5  C           1     -20.760  -8.614  -1.935  0.00  0.00     0.251 C 
HETATM    6  N           1     -20.957  -8.971  -3.242  0.00  0.00    -0.336 N 
HETATM    7  C           1     -21.931  -9.925  -3.766  0.00  0.00     0.127 C 
ENDROOT
BRANCH   5   8
HETATM    8  C           1     -21.606  -9.232  -0.848  0.00  0.00     0.278 C 
BRANCH   8   9
HETATM    9  N           1     -20.920 -10.456  -0.317  0.00  0.00    -0.066 N 
HETATM   10  H           1     -21.221 -11.290  -0.869  0.00  0.00     0.275 HD
HETATM   11  H           1     -19.885 -10.338  -0.400  0.00  0.00     0.275 HD
HETATM   12  H           1     -21.177 -10.591   0.686  0.00  0.00     0.275 HD
ENDBRANCH   8   9
BRANCH   8  13
HETATM   13  C           1     -21.796  -8.227   0.280  0.00  0.00     0.017 C 
HETATM   14  C           1     -21.053  -8.709   1.519  0.00  0.00     0.012 C 
HETATM   15  C           1     -23.279  -8.093   0.598  0.00  0.00     0.012 C 
ENDBRANCH   8  13
ENDBRANCH   5   8
BRANCH   3  16
HETATM   16  C           1     -21.056  -7.447  -5.151  0.00  0.00     0.196 C 
HETATM   17  O           1     -21.150  -7.496  -6.397  0.00  0.00    -0.646 OA
HETATM   18  O           1     -21.638  -6.541  -4.516  0.00  0.00    -0.646 OA
ENDBRANCH   3  16
TORSDOF 4
ENDMDL
MODEL 8
REMARK VINA RESULT:      -4.8      1.642      2.182
REMARK  4 active torsions:
REMARK  status: ('A' for Active; 'I' for Inactive)
REMARK    1  A    between atoms: N_2  and  C_12 
REMARK    2  A    between atoms: C_5  and  C_12 
REMARK    3  A    between atoms: C_9  and  C_11 
REMARK    4  A    between atoms: C_12  and  C_15 
REMARK       I    between atoms: C_15  and  N_17 
ROOT
HETATM    1  C           1     -36.937  -0.383 -12.850  0.00  0.00     0.038 C 
HETATM    2  O           1     -34.534  -3.261 -14.499  0.00  0.00    -0.271 OA
HETATM    3  C           1     -35.777  -0.794 -13.740  0.00  0.00     0.188 C 
HETATM    4  C           1     -36.456  -0.644 -11.427  0.00  0.00     0.022 C 
HETATM    5  C           1     -34.461  -2.926 -13.341  0.00  0.00     0.251 C 
HETATM    6  N           1     -35.038  -1.755 -12.928  0.00  0.00    -0.336 N 
HETATM    7  C           1     -35.049  -1.196 -11.579  0.00  0.00     0.127 C 
ENDROOT
BRANCH   5   8
HETATM    8  C           1     -33.731  -3.798 -12.348  0.00  0.00     0.278 C 
BRANCH   8   9
HETATM    9  N           1     -32.984  -2.932 -11.377  0.00  0.00    -0.066 N 
HETATM   10  H           1     -32.592  -3.526 -10.612  0.00  0.00     0.275 HD
HETATM   11  H           1     -32.206  -2.444 -11.874  0.00  0.00     0.275 HD
HETATM   12  H           1     -33.637  -2.225 -10.969  0.00  0.00     0.275 HD
ENDBRANCH   8   9
BRANCH   8  13
HETATM   13  C           1     -34.735  -4.658 -11.593  0.00  0.00     0.017 C 
HETATM   14  C           1     -34.136  -5.086 -10.259  0.00  0.00     0.012 C 
HETATM   15  C           1     -35.069  -5.893 -12.418  0.00  0.00     0.012 C 
ENDBRANCH   8  13
ENDBRANCH   5   8
BRANCH   3  16
HETATM   16  C           1     -34.915   0.396 -14.083  0.00  0.00     0.196 C 
HETATM   17  O           1     -34.930   1.409 -13.351  0.00  0.00    -0.646 OA
HETATM   18  O           1     -34.187   0.369 -15.098  0.00  0.00    -0.646 OA
ENDBRANCH   3  16
TORSDOF 4
ENDMDL
MODEL 9
REMARK VINA RESULT:      -4.8     17.860     19.477
REMARK  4 active torsions:
REMARK  status: ('A' for Active; 'I' for Inactive)
REMARK    1  A    between atoms: N_2  and  C_12 
REMARK    2  A    between atoms: C_5  and  C_12 
REMARK    3  A    between atoms: C_9  and  C_11 
REMARK    4  A    between atoms: C_12  and  C_15 
REMARK       I    between atoms: C_15  and  N_17 
ROOT
HETATM    1  C           1     -21.788  -7.228  -4.698  0.00  0.00     0.038 C 
HETATM    2  O           1     -22.466 -10.616  -2.498  0.00  0.00    -0.271 OA
HETATM    3  C           1     -21.366  -8.605  -4.217  0.00  0.00     0.188 C 
HETATM    4  C           1     -21.672  -6.327  -3.475  0.00  0.00     0.022 C 
HETATM    5  C           1     -22.155  -9.559  -2.002  0.00  0.00     0.251 C 
HETATM    6  N           1     -21.625  -8.566  -2.781  0.00  0.00    -0.336 N 
HETATM    7  C           1     -21.195  -7.237  -2.356  0.00  0.00     0.127 C 
ENDROOT
BRANCH   5   8
HETATM    8  C           1     -22.351  -9.334  -0.522  0.00  0.00     0.278 C 
BRANCH   8   9
HETATM    9  N           1     -23.523 -10.139  -0.046  0.00  0.00    -0.066 N 
HETATM   10  H           1     -24.410  -9.660  -0.324  0.00  0.00     0.275 HD
HETATM   11  H           1     -23.491 -11.090  -0.477  0.00  0.00     0.275 HD
HETATM   12  H           1     -23.486 -10.226   0.995  0.00  0.00     0.275 HD
ENDBRANCH   8   9
BRANCH   8  13
HETATM   13  C           1     -21.098  -9.769   0.228  0.00  0.00     0.017 C 
HETATM   14  C           1     -21.258 -11.213   0.685  0.00  0.00     0.012 C 
HETATM   15  C           1     -20.895  -8.872   1.441  0.00  0.00     0.012 C 
ENDBRANCH   8  13
ENDBRANCH   5   8
BRANCH   3  16
HETATM   16  C           1     -19.902  -8.844  -4.493  0.00  0.00     0.196 C 
HETATM   17  O           1     -19.213  -9.504  -3.684  0.00  0.00    -0.646 OA
HETATM   18  O           1     -19.377  -8.384  -5.530  0.00  0.00    -0.646 OA
ENDBRANCH   3  16
TORSDOF 4
ENDMDL
