MODEL 1
REMARK VINA RESULT:      -6.9      0.000      0.000
REMARK  9 active torsions:
REMARK  status: ('A' for Active; 'I' for Inactive)
REMARK       I    between atoms: N_2  and  C_3 
REMARK    1  A    between atoms: C_3  and  C_4 
REMARK    2  A    between atoms: C_4  and  C_5 
REMARK    3  A    between atoms: C_5  and  C_6 
REMARK    4  A    between atoms: C_5  and  N_20 
REMARK       I    between atoms: C_6  and  N_7 
REMARK    5  A    between atoms: N_7  and  C_11 
REMARK    6  A    between atoms: C_10  and  C_11 
REMARK    7  A    between atoms: C_11  and  C_12 
REMARK    8  A    between atoms: C_12  and  C_13 
REMARK    9  A    between atoms: C_13  and  C_15 
REMARK       I    between atoms: N_14  and  C_15 
ROOT
HETATM    1  C           1     -21.681  -4.592  -7.722  0.00  0.00     0.249 C 
HETATM    2  N           1     -22.191  -4.861  -8.964  0.00  0.00    -0.345 N 
HETATM    3  O           1     -21.674  -3.457  -7.307  0.00  0.00    -0.271 OA
HETATM    4  H           1     -22.197  -5.811  -9.313  0.00  0.00     0.163 HD
ENDROOT
BRANCH   1   5
HETATM    5  C           1     -21.129  -5.711  -6.874  0.00  0.00     0.283 C 
BRANCH   5   6
HETATM    6  C           1     -20.866  -5.197  -5.464  0.00  0.00     0.145 C 
BRANCH   6   7
HETATM    7  C           1     -21.114  -6.304  -4.470  0.00  0.00     0.217 C 
HETATM    8  O           1     -20.518  -7.350  -4.569  0.00  0.00    -0.274 OA
HETATM    9  N           1     -22.016  -6.123  -3.455  0.00  0.00    -0.370 N 
HETATM   10  H           1     -22.183  -6.865  -2.788  0.00  0.00     0.159 HD
HETATM   11  H           1     -22.516  -5.247  -3.373  0.00  0.00     0.159 HD
ENDBRANCH   6   7
ENDBRANCH   5   6
BRANCH   5  12
HETATM   12  N           1     -19.846  -6.204  -7.473  0.00  0.00    -0.066 N 
HETATM   13  H           1     -19.776  -5.882  -8.465  0.00  0.00     0.275 HD
HETATM   14  H           1     -19.039  -5.827  -6.928  0.00  0.00     0.275 HD
HETATM   15  H           1     -19.827  -7.249  -7.446  0.00  0.00     0.275 HD
ENDBRANCH   5  12
ENDBRANCH   1   5
BRANCH   2  16
HETATM   16  C           1     -22.722  -3.787  -9.780  0.00  0.00     0.186 C 
BRANCH  16  17
HETATM   17  C           1     -24.230  -3.835  -9.753  0.00  0.00     0.196 C 
HETATM   18  O           1     -24.824  -4.918  -9.951  0.00  0.00    -0.646 OA
HETATM   19  O           1     -24.886  -2.794  -9.532  0.00  0.00    -0.646 OA
ENDBRANCH  16  17
BRANCH  16  20
HETATM   20  C           1     -22.234  -3.947 -11.213  0.00  0.00     0.045 C 
BRANCH  20  21
HETATM   21  C           1     -22.420  -2.635 -11.964  0.00  0.00     0.105 C 
BRANCH  21  22
HETATM   22  C           1     -23.218  -2.883 -13.220  0.00  0.00     0.215 C 
HETATM   23  N           1     -22.576  -3.028 -14.420  0.00  0.00    -0.370 N 
HETATM   24  H           1     -21.567  -2.969 -14.465  0.00  0.00     0.159 HD
HETATM   25  H           1     -23.111  -3.195 -15.264  0.00  0.00     0.159 HD
HETATM   26  O           1     -24.423  -2.954 -13.167  0.00  0.00    -0.274 OA
ENDBRANCH  21  22
ENDBRANCH  20  21
ENDBRANCH  16  20
ENDBRANCH   2  16
TORSDOF 9
ENDMDL
MODEL 2
REMARK VINA RESULT:      -6.4      9.105     12.399
REMARK  9 active torsions:
REMARK  status: ('A' for Active; 'I' for Inactive)
REMARK       I    between atoms: N_2  and  C_3 
REMARK    1  A    between atoms: C_3  and  C_4 
REMARK    2  A    between atoms: C_4  and  C_5 
REMARK    3  A    between atoms: C_5  and  C_6 
REMARK    4  A    between atoms: C_5  and  N_20 
REMARK       I    between atoms: C_6  and  N_7 
REMARK    5  A    between atoms: N_7  and  C_11 
REMARK    6  A    between atoms: C_10  and  C_11 
REMARK    7  A    between atoms: C_11  and  C_12 
REMARK    8  A    between atoms: C_12  and  C_13 
REMARK    9  A    between atoms: C_13  and  C_15 
REMARK       I    between atoms: N_14  and  C_15 
ROOT
HETATM    1  C           1     -28.757  -6.301 -18.721  0.00  0.00     0.249 C 
HETATM    2  N           1     -27.775  -7.198 -19.044  0.00  0.00    -0.345 N 
HETATM    3  O           1     -28.645  -5.142 -19.046  0.00  0.00    -0.271 OA
HETATM    4  H           1     -27.868  -8.169 -18.772  0.00  0.00     0.163 HD
ENDROOT
BRANCH   1   5
HETATM    5  C           1     -29.978  -6.758 -17.962  0.00  0.00     0.283 C 
BRANCH   5   6
HETATM    6  C           1     -30.184  -5.865 -16.746  0.00  0.00     0.145 C 
BRANCH   6   7
HETATM    7  C           1     -31.441  -5.051 -16.925  0.00  0.00     0.217 C 
HETATM    8  O           1     -31.369  -3.854 -17.078  0.00  0.00    -0.274 OA
HETATM    9  N           1     -32.664  -5.666 -16.914  0.00  0.00    -0.370 N 
HETATM   10  H           1     -33.507  -5.120 -17.034  0.00  0.00     0.159 HD
HETATM   11  H           1     -32.724  -6.668 -16.784  0.00  0.00     0.159 HD
ENDBRANCH   6   7
ENDBRANCH   5   6
BRANCH   5  12
HETATM   12  N           1     -29.784  -8.176 -17.513  0.00  0.00    -0.066 N 
HETATM   13  H           1     -28.809  -8.482 -17.735  0.00  0.00     0.275 HD
HETATM   14  H           1     -29.943  -8.240 -16.483  0.00  0.00     0.275 HD
HETATM   15  H           1     -30.463  -8.796 -18.010  0.00  0.00     0.275 HD
ENDBRANCH   5  12
ENDBRANCH   1   5
BRANCH   2  16
HETATM   16  C           1     -26.602  -6.760 -19.774  0.00  0.00     0.186 C 
BRANCH  16  17
HETATM   17  C           1     -26.322  -7.724 -20.900  0.00  0.00     0.196 C 
HETATM   18  O           1     -27.246  -8.427 -21.364  0.00  0.00    -0.646 OA
HETATM   19  O           1     -25.168  -7.820 -21.371  0.00  0.00    -0.646 OA
ENDBRANCH  16  17
BRANCH  16  20
HETATM   20  C           1     -25.405  -6.716 -18.833  0.00  0.00     0.045 C 
BRANCH  20  21
HETATM   21  C           1     -25.872  -6.341 -17.433  0.00  0.00     0.105 C 
BRANCH  21  22
HETATM   22  C           1     -25.147  -7.189 -16.416  0.00  0.00     0.215 C 
HETATM   23  N           1     -24.027  -7.887 -16.782  0.00  0.00    -0.370 N 
HETATM   24  H           1     -23.686  -7.834 -17.733  0.00  0.00     0.159 HD
HETATM   25  H           1     -23.540  -8.456 -16.101  0.00  0.00     0.159 HD
HETATM   26  O           1     -25.554  -7.252 -15.281  0.00  0.00    -0.274 OA
ENDBRANCH  21  22
ENDBRANCH  20  21
ENDBRANCH  16  20
ENDBRANCH   2  16
TORSDOF 9
ENDMDL
MODEL 3
REMARK VINA RESULT:      -6.2      8.961     12.163
REMARK  9 active torsions:
REMARK  status: ('A' for Active; 'I' for Inactive)
REMARK       I    between atoms: N_2  and  C_3 
REMARK    1  A    between atoms: C_3  and  C_4 
REMARK    2  A    between atoms: C_4  and  C_5 
REMARK    3  A    between atoms: C_5  and  C_6 
REMARK    4  A    between atoms: C_5  and  N_20 
REMARK       I    between atoms: C_6  and  N_7 
REMARK    5  A    between atoms: N_7  and  C_11 
REMARK    6  A    between atoms: C_10  and  C_11 
REMARK    7  A    between atoms: C_11  and  C_12 
REMARK    8  A    between atoms: C_12  and  C_13 
REMARK    9  A    between atoms: C_13  and  C_15 
REMARK       I    between atoms: N_14  and  C_15 
ROOT
HETATM    1  C           1     -26.415  -6.487 -19.252  0.00  0.00     0.249 C 
HETATM    2  N           1     -25.854  -6.772 -18.036  0.00  0.00    -0.345 N 
HETATM    3  O           1     -27.463  -5.889 -19.307  0.00  0.00    -0.271 OA
HETATM    4  H           1     -24.976  -7.274 -17.988  0.00  0.00     0.163 HD
ENDROOT
BRANCH   1   5
HETATM    5  C           1     -25.723  -6.918 -20.521  0.00  0.00     0.283 C 
BRANCH   5   6
HETATM    6  C           1     -24.428  -7.641 -20.173  0.00  0.00     0.145 C 
BRANCH   6   7
HETATM    7  C           1     -23.864  -8.290 -21.413  0.00  0.00     0.217 C 
HETATM    8  O           1     -24.406  -8.126 -22.481  0.00  0.00    -0.274 OA
HETATM    9  N           1     -22.739  -9.065 -21.329  0.00  0.00    -0.370 N 
HETATM   10  H           1     -22.360  -9.500 -22.160  0.00  0.00     0.159 HD
HETATM   11  H           1     -22.286  -9.203 -20.434  0.00  0.00     0.159 HD
ENDBRANCH   6   7
ENDBRANCH   5   6
BRANCH   5  12
HETATM   12  N           1     -25.412  -5.710 -21.355  0.00  0.00    -0.066 N 
HETATM   13  H           1     -24.404  -5.456 -21.240  0.00  0.00     0.275 HD
HETATM   14  H           1     -25.605  -5.921 -22.360  0.00  0.00     0.275 HD
HETATM   15  H           1     -26.009  -4.910 -21.045  0.00  0.00     0.275 HD
ENDBRANCH   5  12
ENDBRANCH   1   5
BRANCH   2  16
HETATM   16  C           1     -26.518  -6.358 -16.815  0.00  0.00     0.186 C 
BRANCH  16  17
HETATM   17  C           1     -25.524  -6.355 -15.680  0.00  0.00     0.196 C 
HETATM   18  O           1     -24.944  -5.295 -15.359  0.00  0.00    -0.646 OA
HETATM   19  O           1     -25.280  -7.412 -15.059  0.00  0.00    -0.646 OA
ENDBRANCH  16  17
BRANCH  16  20
HETATM   20  C           1     -27.650  -7.325 -16.498  0.00  0.00     0.045 C 
BRANCH  20  21
HETATM   21  C           1     -28.964  -6.560 -16.413  0.00  0.00     0.105 C 
BRANCH  21  22
HETATM   22  C           1     -29.969  -7.181 -17.352  0.00  0.00     0.215 C 
HETATM   23  N           1     -29.566  -8.121 -18.261  0.00  0.00    -0.370 N 
HETATM   24  H           1     -28.594  -8.400 -18.304  0.00  0.00     0.159 HD
HETATM   25  H           1     -30.240  -8.538 -18.892  0.00  0.00     0.159 HD
HETATM   26  O           1     -31.130  -6.848 -17.301  0.00  0.00    -0.274 OA
ENDBRANCH  21  22
ENDBRANCH  20  21
ENDBRANCH  16  20
ENDBRANCH   2  16
TORSDOF 9
ENDMDL
MODEL 4
REMARK VINA RESULT:      -6.2      1.653      7.072
REMARK  9 active torsions:
REMARK  status: ('A' for Active; 'I' for Inactive)
REMARK       I    between atoms: N_2  and  C_3 
REMARK    1  A    between atoms: C_3  and  C_4 
REMARK    2  A    between atoms: C_4  and  C_5 
REMARK    3  A    between atoms: C_5  and  C_6 
REMARK    4  A    between atoms: C_5  and  N_20 
REMARK       I    between atoms: C_6  and  N_7 
REMARK    5  A    between atoms: N_7  and  C_11 
REMARK    6  A    between atoms: C_10  and  C_11 
REMARK    7  A    between atoms: C_11  and  C_12 
REMARK    8  A    between atoms: C_12  and  C_13 
REMARK    9  A    between atoms: C_13  and  C_15 
REMARK       I    between atoms: N_14  and  C_15 
ROOT
HETATM    1  C           1     -22.594  -3.957 -10.860  0.00  0.00     0.249 C 
HETATM    2  N           1     -21.955  -3.629  -9.694  0.00  0.00    -0.345 N 
HETATM    3  O           1     -23.174  -5.013 -10.954  0.00  0.00    -0.271 OA
HETATM    4  H           1     -21.469  -2.744  -9.615  0.00  0.00     0.163 HD
ENDROOT
BRANCH   1   5
HETATM    5  C           1     -22.575  -2.999 -12.026  0.00  0.00     0.283 C 
BRANCH   5   6
HETATM    6  C           1     -23.988  -2.836 -12.572  0.00  0.00     0.145 C 
BRANCH   6   7
HETATM    7  C           1     -23.924  -2.366 -14.004  0.00  0.00     0.217 C 
HETATM    8  O           1     -23.763  -3.166 -14.896  0.00  0.00    -0.274 OA
HETATM    9  N           1     -24.048  -1.034 -14.294  0.00  0.00    -0.370 N 
HETATM   10  H           1     -24.005  -0.719 -15.254  0.00  0.00     0.159 HD
HETATM   11  H           1     -24.182  -0.364 -13.547  0.00  0.00     0.159 HD
ENDBRANCH   6   7
ENDBRANCH   5   6
BRANCH   5  12
HETATM   12  N           1     -21.683  -3.542 -13.103  0.00  0.00    -0.066 N 
HETATM   13  H           1     -20.882  -4.053 -12.668  0.00  0.00     0.275 HD
HETATM   14  H           1     -22.227  -4.197 -13.708  0.00  0.00     0.275 HD
HETATM   15  H           1     -21.318  -2.753 -13.683  0.00  0.00     0.275 HD
ENDBRANCH   5  12
ENDBRANCH   1   5
BRANCH   2  16
HETATM   16  C           1     -21.973  -4.548  -8.573  0.00  0.00     0.186 C 
BRANCH  16  17
HETATM   17  C           1     -23.233  -4.335  -7.770  0.00  0.00     0.196 C 
HETATM   18  O           1     -24.231  -3.802  -8.302  0.00  0.00    -0.646 OA
HETATM   19  O           1     -23.279  -4.692  -6.573  0.00  0.00    -0.646 OA
ENDBRANCH  16  17
BRANCH  16  20
HETATM   20  C           1     -20.758  -4.297  -7.691  0.00  0.00     0.045 C 
BRANCH  20  21
HETATM   21  C           1     -19.928  -5.570  -7.594  0.00  0.00     0.105 C 
BRANCH  21  22
HETATM   22  C           1     -20.179  -6.235  -6.263  0.00  0.00     0.215 C 
HETATM   23  N           1     -20.684  -5.508  -5.220  0.00  0.00    -0.370 N 
HETATM   24  H           1     -20.890  -4.524  -5.341  0.00  0.00     0.159 HD
HETATM   25  H           1     -20.853  -5.953  -4.326  0.00  0.00     0.159 HD
HETATM   26  O           1     -19.933  -7.409  -6.118  0.00  0.00    -0.274 OA
ENDBRANCH  21  22
ENDBRANCH  20  21
ENDBRANCH  16  20
ENDBRANCH   2  16
TORSDOF 9
ENDMDL
MODEL 5
REMARK VINA RESULT:      -5.9     17.430     19.998
REMARK  9 active torsions:
REMARK  status: ('A' for Active; 'I' for Inactive)
REMARK       I    between atoms: N_2  and  C_3 
REMARK    1  A    between atoms: C_3  and  C_4 
REMARK    2  A    between atoms: C_4  and  C_5 
REMARK    3  A    between atoms: C_5  and  C_6 
REMARK    4  A    between atoms: C_5  and  N_20 
REMARK       I    between atoms: C_6  and  N_7 
REMARK    5  A    between atoms: N_7  and  C_11 
REMARK    6  A    between atoms: C_10  and  C_11 
REMARK    7  A    between atoms: C_11  and  C_12 
REMARK    8  A    between atoms: C_12  and  C_13 
REMARK    9  A    between atoms: C_13  and  C_15 
REMARK       I    between atoms: N_14  and  C_15 
ROOT
HETATM    1  C           1     -12.008   7.534 -21.554  0.00  0.00     0.249 C 
HETATM    2  N           1     -12.700   6.887 -20.566  0.00  0.00    -0.345 N 
HETATM    3  O           1     -11.521   6.903 -22.462  0.00  0.00    -0.271 OA
HETATM    4  H           1     -13.109   7.414 -19.805  0.00  0.00     0.163 HD
ENDROOT
BRANCH   1   5
HETATM    5  C           1     -11.854   9.034 -21.508  0.00  0.00     0.283 C 
BRANCH   5   6
HETATM    6  C           1     -11.719   9.487 -20.060  0.00  0.00     0.145 C 
BRANCH   6   7
HETATM    7  C           1     -10.356   9.106 -19.537  0.00  0.00     0.217 C 
HETATM    8  O           1     -10.224   8.767 -18.385  0.00  0.00    -0.274 OA
HETATM    9  N           1      -9.268   9.146 -20.367  0.00  0.00    -0.370 N 
HETATM   10  H           1      -8.354   8.891 -20.017  0.00  0.00     0.159 HD
HETATM   11  H           1      -9.379   9.431 -21.332  0.00  0.00     0.159 HD
ENDBRANCH   6   7
ENDBRANCH   5   6
BRANCH   5  12
HETATM   12  N           1     -13.061   9.678 -22.123  0.00  0.00    -0.066 N 
HETATM   13  H           1     -13.913   9.120 -21.887  0.00  0.00     0.275 HD
HETATM   14  H           1     -13.166  10.648 -21.749  0.00  0.00     0.275 HD
HETATM   15  H           1     -12.946   9.715 -23.161  0.00  0.00     0.275 HD
ENDBRANCH   5  12
ENDBRANCH   1   5
BRANCH   2  16
HETATM   16  C           1     -12.850   5.445 -20.610  0.00  0.00     0.186 C 
BRANCH  16  17
HETATM   17  C           1     -14.302   5.085 -20.410  0.00  0.00     0.196 C 
HETATM   18  O           1     -14.675   4.572 -19.332  0.00  0.00    -0.646 OA
HETATM   19  O           1     -15.131   5.300 -21.319  0.00  0.00    -0.646 OA
ENDBRANCH  16  17
BRANCH  16  20
HETATM   20  C           1     -12.013   4.814 -19.506  0.00  0.00     0.045 C 
BRANCH  20  21
HETATM   21  C           1     -10.626   4.487 -20.043  0.00  0.00     0.105 C 
BRANCH  21  22
HETATM   22  C           1      -9.624   5.466 -19.481  0.00  0.00     0.215 C 
HETATM   23  N           1      -9.532   5.649 -18.128  0.00  0.00    -0.370 N 
HETATM   24  H           1     -10.136   5.128 -17.504  0.00  0.00     0.159 HD
HETATM   25  H           1      -8.861   6.306 -17.750  0.00  0.00     0.159 HD
HETATM   26  O           1      -8.904   6.088 -20.225  0.00  0.00    -0.274 OA
ENDBRANCH  21  22
ENDBRANCH  20  21
ENDBRANCH  16  20
ENDBRANCH   2  16
TORSDOF 9
ENDMDL
MODEL 6
REMARK VINA RESULT:      -5.8      1.828      7.449
REMARK  9 active torsions:
REMARK  status: ('A' for Active; 'I' for Inactive)
REMARK       I    between atoms: N_2  and  C_3 
REMARK    1  A    between atoms: C_3  and  C_4 
REMARK    2  A    between atoms: C_4  and  C_5 
REMARK    3  A    between atoms: C_5  and  C_6 
REMARK    4  A    between atoms: C_5  and  N_20 
REMARK       I    between atoms: C_6  and  N_7 
REMARK    5  A    between atoms: N_7  and  C_11 
REMARK    6  A    between atoms: C_10  and  C_11 
REMARK    7  A    between atoms: C_11  and  C_12 
REMARK    8  A    between atoms: C_12  and  C_13 
REMARK    9  A    between atoms: C_13  and  C_15 
REMARK       I    between atoms: N_14  and  C_15 
ROOT
HETATM    1  C           1     -22.318  -4.254  -7.909  0.00  0.00     0.249 C 
HETATM    2  N           1     -22.197  -5.437  -7.232  0.00  0.00    -0.345 N 
HETATM    3  O           1     -21.782  -3.258  -7.484  0.00  0.00    -0.271 OA
HETATM    4  H           1     -22.646  -6.273  -7.588  0.00  0.00     0.163 HD
ENDROOT
BRANCH   1   5
HETATM    5  C           1     -23.118  -4.194  -9.187  0.00  0.00     0.283 C 
BRANCH   5   6
HETATM    6  C           1     -22.283  -3.536 -10.279  0.00  0.00     0.145 C 
BRANCH   6   7
HETATM    7  C           1     -22.643  -4.132 -11.617  0.00  0.00     0.217 C 
HETATM    8  O           1     -23.558  -4.917 -11.702  0.00  0.00    -0.274 OA
HETATM    9  N           1     -21.934  -3.784 -12.735  0.00  0.00    -0.370 N 
HETATM   10  H           1     -22.176  -4.183 -13.633  0.00  0.00     0.159 HD
HETATM   11  H           1     -21.168  -3.127 -12.663  0.00  0.00     0.159 HD
ENDBRANCH   6   7
ENDBRANCH   5   6
BRANCH   5  12
HETATM   12  N           1     -24.363  -3.389  -8.959  0.00  0.00    -0.066 N 
HETATM   13  H           1     -24.686  -3.518  -7.973  0.00  0.00     0.275 HD
HETATM   14  H           1     -24.161  -2.379  -9.129  0.00  0.00     0.275 HD
HETATM   15  H           1     -25.111  -3.711  -9.614  0.00  0.00     0.275 HD
ENDBRANCH   5  12
ENDBRANCH   1   5
BRANCH   2  16
HETATM   16  C           1     -21.428  -5.497  -6.005  0.00  0.00     0.186 C 
BRANCH  16  17
HETATM   17  C           1     -20.010  -5.903  -6.320  0.00  0.00     0.196 C 
HETATM   18  O           1     -19.706  -7.114  -6.381  0.00  0.00    -0.646 OA
HETATM   19  O           1     -19.139  -5.030  -6.523  0.00  0.00    -0.646 OA
ENDBRANCH  16  17
BRANCH  16  20
HETATM   20  C           1     -22.052  -6.517  -5.062  0.00  0.00     0.045 C 
BRANCH  20  21
HETATM   21  C           1     -21.589  -6.244  -3.638  0.00  0.00     0.105 C 
BRANCH  21  22
HETATM   22  C           1     -21.012  -7.507  -3.045  0.00  0.00     0.215 C 
HETATM   23  N           1     -20.710  -8.567  -3.857  0.00  0.00    -0.370 N 
HETATM   24  H           1     -20.872  -8.504  -4.854  0.00  0.00     0.159 HD
HETATM   25  H           1     -20.323  -9.414  -3.460  0.00  0.00     0.159 HD
HETATM   26  O           1     -20.818  -7.582  -1.855  0.00  0.00    -0.274 OA
ENDBRANCH  21  22
ENDBRANCH  20  21
ENDBRANCH  16  20
ENDBRANCH   2  16
TORSDOF 9
ENDMDL
MODEL 7
REMARK VINA RESULT:      -5.8      2.118      7.257
REMARK  9 active torsions:
REMARK  status: ('A' for Active; 'I' for Inactive)
REMARK       I    between atoms: N_2  and  C_3 
REMARK    1  A    between atoms: C_3  and  C_4 
REMARK    2  A    between atoms: C_4  and  C_5 
REMARK    3  A    between atoms: C_5  and  C_6 
REMARK    4  A    between atoms: C_5  and  N_20 
REMARK       I    between atoms: C_6  and  N_7 
REMARK    5  A    between atoms: N_7  and  C_11 
REMARK    6  A    between atoms: C_10  and  C_11 
REMARK    7  A    between atoms: C_11  and  C_12 
REMARK    8  A    between atoms: C_12  and  C_13 
REMARK    9  A    between atoms: C_13  and  C_15 
REMARK       I    between atoms: N_14  and  C_15 
ROOT
HETATM    1  C           1     -22.176  -3.504 -11.109  0.00  0.00     0.249 C 
HETATM    2  N           1     -22.407  -4.209  -9.958  0.00  0.00    -0.345 N 
HETATM    3  O           1     -21.419  -2.562 -11.097  0.00  0.00    -0.271 OA
HETATM    4  H           1     -23.041  -4.998  -9.966  0.00  0.00     0.163 HD
ENDROOT
BRANCH   1   5
HETATM    5  C           1     -22.865  -3.904 -12.390  0.00  0.00     0.283 C 
BRANCH   5   6
HETATM    6  C           1     -23.807  -2.790 -12.829  0.00  0.00     0.145 C 
BRANCH   6   7
HETATM    7  C           1     -23.445  -2.345 -14.224  0.00  0.00     0.217 C 
HETATM    8  O           1     -24.051  -1.438 -14.745  0.00  0.00    -0.274 OA
HETATM    9  N           1     -22.432  -2.968 -14.901  0.00  0.00    -0.370 N 
HETATM   10  H           1     -22.189  -2.670 -15.837  0.00  0.00     0.159 HD
HETATM   11  H           1     -21.925  -3.728 -14.465  0.00  0.00     0.159 HD
ENDBRANCH   6   7
ENDBRANCH   5   6
BRANCH   5  12
HETATM   12  N           1     -23.651  -5.161 -12.162  0.00  0.00    -0.066 N 
HETATM   13  H           1     -23.644  -5.741 -13.032  0.00  0.00     0.275 HD
HETATM   14  H           1     -23.221  -5.704 -11.379  0.00  0.00     0.275 HD
HETATM   15  H           1     -24.636  -4.916 -11.916  0.00  0.00     0.275 HD
ENDBRANCH   5  12
ENDBRANCH   1   5
BRANCH   2  16
HETATM   16  C           1     -21.745  -3.826  -8.726  0.00  0.00     0.186 C 
BRANCH  16  17
HETATM   17  C           1     -20.333  -4.358  -8.729  0.00  0.00     0.196 C 
HETATM   18  O           1     -19.384  -3.613  -8.399  0.00  0.00    -0.646 OA
HETATM   19  O           1     -20.111  -5.543  -9.059  0.00  0.00    -0.646 OA
ENDBRANCH  16  17
BRANCH  16  20
HETATM   20  C           1     -22.504  -4.404  -7.540  0.00  0.00     0.045 C 
BRANCH  20  21
HETATM   21  C           1     -21.562  -4.543  -6.352  0.00  0.00     0.105 C 
BRANCH  21  22
HETATM   22  C           1     -21.690  -5.930  -5.768  0.00  0.00     0.215 C 
HETATM   23  N           1     -21.048  -6.983  -6.363  0.00  0.00    -0.370 N 
HETATM   24  H           1     -20.490  -6.832  -7.193  0.00  0.00     0.159 HD
HETATM   25  H           1     -21.134  -7.913  -5.972  0.00  0.00     0.159 HD
HETATM   26  O           1     -22.357  -6.109  -4.777  0.00  0.00    -0.274 OA
ENDBRANCH  21  22
ENDBRANCH  20  21
ENDBRANCH  16  20
ENDBRANCH   2  16
TORSDOF 9
ENDMDL
MODEL 8
REMARK VINA RESULT:      -5.7      2.429      7.908
REMARK  9 active torsions:
REMARK  status: ('A' for Active; 'I' for Inactive)
REMARK       I    between atoms: N_2  and  C_3 
REMARK    1  A    between atoms: C_3  and  C_4 
REMARK    2  A    between atoms: C_4  and  C_5 
REMARK    3  A    between atoms: C_5  and  C_6 
REMARK    4  A    between atoms: C_5  and  N_20 
REMARK       I    between atoms: C_6  and  N_7 
REMARK    5  A    between atoms: N_7  and  C_11 
REMARK    6  A    between atoms: C_10  and  C_11 
REMARK    7  A    between atoms: C_11  and  C_12 
REMARK    8  A    between atoms: C_12  and  C_13 
REMARK    9  A    between atoms: C_13  and  C_15 
REMARK       I    between atoms: N_14  and  C_15 
ROOT
HETATM    1  C           1     -21.109  -5.262  -6.956  0.00  0.00     0.249 C 
HETATM    2  N           1     -21.145  -6.568  -6.547  0.00  0.00    -0.345 N 
HETATM    3  O           1     -20.640  -4.416  -6.233  0.00  0.00    -0.271 OA
HETATM    4  H           1     -21.538  -7.278  -7.152  0.00  0.00     0.163 HD
ENDROOT
BRANCH   1   5
HETATM    5  C           1     -21.654  -4.881  -8.311  0.00  0.00     0.283 C 
BRANCH   5   6
HETATM    6  C           1     -20.507  -4.462  -9.220  0.00  0.00     0.145 C 
BRANCH   6   7
HETATM    7  C           1     -21.036  -4.187 -10.606  0.00  0.00     0.217 C 
HETATM    8  O           1     -22.115  -4.619 -10.937  0.00  0.00    -0.274 OA
HETATM    9  N           1     -20.294  -3.449 -11.489  0.00  0.00    -0.370 N 
HETATM   10  H           1     -20.648  -3.265 -12.418  0.00  0.00     0.159 HD
HETATM   11  H           1     -19.390  -3.088 -11.211  0.00  0.00     0.159 HD
ENDBRANCH   6   7
ENDBRANCH   5   6
BRANCH   5  12
HETATM   12  N           1     -22.614  -3.738  -8.159  0.00  0.00    -0.066 N 
HETATM   13  H           1     -22.400  -3.217  -7.277  0.00  0.00     0.275 HD
HETATM   14  H           1     -22.519  -3.093  -8.975  0.00  0.00     0.275 HD
HETATM   15  H           1     -23.591  -4.106  -8.116  0.00  0.00     0.275 HD
ENDBRANCH   5  12
ENDBRANCH   1   5
BRANCH   2  16
HETATM   16  C           1     -20.621  -6.936  -5.246  0.00  0.00     0.186 C 
BRANCH  16  17
HETATM   17  C           1     -19.926  -8.271  -5.344  0.00  0.00     0.196 C 
HETATM   18  O           1     -20.319  -9.233  -4.648  0.00  0.00    -0.646 OA
HETATM   19  O           1     -18.958  -8.418  -6.122  0.00  0.00    -0.646 OA
ENDBRANCH  16  17
BRANCH  16  20
HETATM   20  C           1     -21.765  -7.030  -4.245  0.00  0.00     0.045 C 
BRANCH  20  21
HETATM   21  C           1     -21.441  -6.182  -3.022  0.00  0.00     0.105 C 
BRANCH  21  22
HETATM   22  C           1     -21.456  -7.052  -1.788  0.00  0.00     0.215 C 
HETATM   23  N           1     -22.473  -6.934  -0.880  0.00  0.00    -0.370 N 
HETATM   24  H           1     -23.215  -6.263  -1.036  0.00  0.00     0.159 HD
HETATM   25  H           1     -22.483  -7.517  -0.053  0.00  0.00     0.159 HD
HETATM   26  O           1     -20.570  -7.853  -1.603  0.00  0.00    -0.274 OA
ENDBRANCH  21  22
ENDBRANCH  20  21
ENDBRANCH  16  20
ENDBRANCH   2  16
TORSDOF 9
ENDMDL
MODEL 9
REMARK VINA RESULT:      -5.6      2.359      3.413
REMARK  9 active torsions:
REMARK  status: ('A' for Active; 'I' for Inactive)
REMARK       I    between atoms: N_2  and  C_3 
REMARK    1  A    between atoms: C_3  and  C_4 
REMARK    2  A    between atoms: C_4  and  C_5 
REMARK    3  A    between atoms: C_5  and  C_6 
REMARK    4  A    between atoms: C_5  and  N_20 
REMARK       I    between atoms: C_6  and  N_7 
REMARK    5  A    between atoms: N_7  and  C_11 
REMARK    6  A    between atoms: C_10  and  C_11 
REMARK    7  A    between atoms: C_11  and  C_12 
REMARK    8  A    between atoms: C_12  and  C_13 
REMARK    9  A    between atoms: C_13  and  C_15 
REMARK       I    between atoms: N_14  and  C_15 
ROOT
HETATM    1  C           1     -21.075  -6.141  -6.325  0.00  0.00     0.249 C 
HETATM    2  N           1     -21.270  -4.947  -6.966  0.00  0.00    -0.345 N 
HETATM    3  O           1     -21.130  -7.175  -6.947  0.00  0.00    -0.271 OA
HETATM    4  H           1     -21.224  -4.080  -6.445  0.00  0.00     0.163 HD
ENDROOT
BRANCH   1   5
HETATM    5  C           1     -20.789  -6.165  -4.844  0.00  0.00     0.283 C 
BRANCH   5   6
HETATM    6  C           1     -22.037  -6.611  -4.093  0.00  0.00     0.145 C 
BRANCH   6   7
HETATM    7  C           1     -21.762  -6.608  -2.610  0.00  0.00     0.217 C 
HETATM    8  O           1     -22.165  -5.700  -1.922  0.00  0.00    -0.274 OA
HETATM    9  N           1     -21.054  -7.633  -2.043  0.00  0.00    -0.370 N 
HETATM   10  H           1     -20.869  -7.632  -1.048  0.00  0.00     0.159 HD
HETATM   11  H           1     -20.716  -8.393  -2.619  0.00  0.00     0.159 HD
ENDBRANCH   6   7
ENDBRANCH   5   6
BRANCH   5  12
HETATM   12  N           1     -20.398  -4.790  -4.390  0.00  0.00    -0.066 N 
HETATM   13  H           1     -21.183  -4.124  -4.574  0.00  0.00     0.275 HD
HETATM   14  H           1     -20.190  -4.807  -3.366  0.00  0.00     0.275 HD
HETATM   15  H           1     -19.549  -4.478  -4.913  0.00  0.00     0.275 HD
ENDBRANCH   5  12
ENDBRANCH   1   5
BRANCH   2  16
HETATM   16  C           1     -21.544  -4.923  -8.389  0.00  0.00     0.186 C 
BRANCH  16  17
HETATM   17  C           1     -20.340  -4.385  -9.123  0.00  0.00     0.196 C 
HETATM   18  O           1     -19.478  -3.723  -8.506  0.00  0.00    -0.646 OA
HETATM   19  O           1     -20.204  -4.601 -10.346  0.00  0.00    -0.646 OA
ENDBRANCH  16  17
BRANCH  16  20
HETATM   20  C           1     -22.747  -4.029  -8.660  0.00  0.00     0.045 C 
BRANCH  20  21
HETATM   21  C           1     -23.568  -4.614  -9.801  0.00  0.00     0.105 C 
BRANCH  21  22
HETATM   22  C           1     -24.558  -3.584 -10.289  0.00  0.00     0.215 C 
HETATM   23  N           1     -25.786  -3.481  -9.695  0.00  0.00    -0.370 N 
HETATM   24  H           1     -26.031  -4.096  -8.929  0.00  0.00     0.159 HD
HETATM   25  H           1     -26.451  -2.790 -10.022  0.00  0.00     0.159 HD
HETATM   26  O           1     -24.265  -2.851 -11.204  0.00  0.00    -0.274 OA
ENDBRANCH  21  22
ENDBRANCH  20  21
ENDBRANCH  16  20
ENDBRANCH   2  16
TORSDOF 9
ENDMDL
