MODEL 1
REMARK VINA RESULT:      -6.5      0.000      0.000
REMARK  7 active torsions:
REMARK  status: ('A' for Active; 'I' for Inactive)
REMARK    1  A    between atoms: N_1  and  C_12 
REMARK    2  A    between atoms: C_6  and  C_8 
REMARK    3  A    between atoms: C_8  and  C_11 
REMARK    4  A    between atoms: C_8  and  N_20 
REMARK    5  A    between atoms: C_9  and  C_11 
REMARK    6  A    between atoms: C_12  and  C_13 
REMARK    7  A    between atoms: C_12  and  C_14 
REMARK       I    between atoms: C_13  and  N_20 
ROOT
HETATM    1  C           1     -34.464  -2.357 -12.051  0.00  0.00     0.249 C 
HETATM    2  H           1     -35.650  -1.953 -13.699  0.00  0.00     0.163 HD
HETATM    3  O           1     -33.937  -1.886 -11.071  0.00  0.00    -0.271 OA
HETATM    4  N           1     -35.207  -1.558 -12.879  0.00  0.00    -0.344 N 
ENDROOT
BRANCH   1   5
HETATM    5  C           1     -34.306  -3.825 -12.362  0.00  0.00     0.278 C 
BRANCH   5   6
HETATM    6  N           1     -33.832  -3.987 -13.775  0.00  0.00    -0.066 N 
HETATM    7  H           1     -34.642  -4.236 -14.388  0.00  0.00     0.275 HD
HETATM    8  H           1     -33.408  -3.090 -14.106  0.00  0.00     0.275 HD
HETATM    9  H           1     -33.117  -4.748 -13.818  0.00  0.00     0.275 HD
ENDBRANCH   5   6
BRANCH   5  10
HETATM   10  C           1     -33.286  -4.439 -11.411  0.00  0.00     0.017 C 
HETATM   11  C           1     -33.833  -5.745 -10.853  0.00  0.00     0.012 C 
HETATM   12  C           1     -31.991  -4.711 -12.164  0.00  0.00     0.012 C 
ENDBRANCH   5  10
ENDBRANCH   1   5
BRANCH   4  13
HETATM   13  C           1     -35.359  -0.147 -12.580  0.00  0.00     0.195 C 
BRANCH  13  14
HETATM   14  C           1     -36.547   0.048 -11.671  0.00  0.00     0.197 C 
HETATM   15  O           1     -37.670  -0.385 -12.006  0.00  0.00    -0.646 OA
HETATM   16  O           1     -36.408   0.644 -10.580  0.00  0.00    -0.646 OA
ENDBRANCH  13  14
BRANCH  13  17
HETATM   17  C           1     -35.579   0.623 -13.876  0.00  0.00     0.149 C 
BRANCH  17  18
HETATM   18  C           1     -35.804  -0.349 -15.008  0.00  0.00     0.175 C 
HETATM   19  O           1     -36.957  -0.765 -15.255  0.00  0.00    -0.648 OA
HETATM   20  O           1     -34.838  -0.739 -15.697  0.00  0.00    -0.648 OA
ENDBRANCH  17  18
ENDBRANCH  13  17
ENDBRANCH   4  13
TORSDOF 7
ENDMDL
MODEL 2
REMARK VINA RESULT:      -5.8     11.459     13.865
REMARK  7 active torsions:
REMARK  status: ('A' for Active; 'I' for Inactive)
REMARK    1  A    between atoms: N_1  and  C_12 
REMARK    2  A    between atoms: C_6  and  C_8 
REMARK    3  A    between atoms: C_8  and  C_11 
REMARK    4  A    between atoms: C_8  and  N_20 
REMARK    5  A    between atoms: C_9  and  C_11 
REMARK    6  A    between atoms: C_12  and  C_13 
REMARK    7  A    between atoms: C_12  and  C_14 
REMARK       I    between atoms: C_13  and  N_20 
ROOT
HETATM    1  C           1     -21.579  -4.679  -8.443  0.00  0.00     0.249 C 
HETATM    2  H           1     -22.994  -3.345  -9.155  0.00  0.00     0.163 HD
HETATM    3  O           1     -20.727  -5.477  -8.753  0.00  0.00    -0.271 OA
HETATM    4  N           1     -22.280  -4.014  -9.414  0.00  0.00    -0.344 N 
ENDROOT
BRANCH   1   5
HETATM    5  C           1     -21.872  -4.414  -6.987  0.00  0.00     0.278 C 
BRANCH   5   6
HETATM    6  N           1     -23.349  -4.515  -6.748  0.00  0.00    -0.066 N 
HETATM    7  H           1     -23.862  -4.246  -7.619  0.00  0.00     0.275 HD
HETATM    8  H           1     -23.594  -5.498  -6.491  0.00  0.00     0.275 HD
HETATM    9  H           1     -23.622  -3.872  -5.971  0.00  0.00     0.275 HD
ENDBRANCH   5   6
BRANCH   5  10
HETATM   10  C           1     -21.148  -5.442  -6.127  0.00  0.00     0.017 C 
HETATM   11  C           1     -20.146  -4.735  -5.225  0.00  0.00     0.012 C 
HETATM   12  C           1     -22.160  -6.191  -5.273  0.00  0.00     0.012 C 
ENDBRANCH   5  10
ENDBRANCH   1   5
BRANCH   4  13
HETATM   13  C           1     -21.999  -4.269 -10.814  0.00  0.00     0.195 C 
BRANCH  13  14
HETATM   14  C           1     -21.419  -3.027 -11.444  0.00  0.00     0.197 C 
HETATM   15  O           1     -20.228  -2.714 -11.229  0.00  0.00    -0.646 OA
HETATM   16  O           1     -22.130  -2.310 -12.182  0.00  0.00    -0.646 OA
ENDBRANCH  13  14
BRANCH  13  17
HETATM   17  C           1     -23.290  -4.646 -11.529  0.00  0.00     0.149 C 
BRANCH  17  18
HETATM   18  C           1     -24.471  -4.225 -10.689  0.00  0.00     0.175 C 
HETATM   19  O           1     -25.036  -3.132 -10.908  0.00  0.00    -0.648 OA
HETATM   20  O           1     -24.884  -4.970  -9.774  0.00  0.00    -0.648 OA
ENDBRANCH  17  18
ENDBRANCH  13  17
ENDBRANCH   4  13
TORSDOF 7
ENDMDL
MODEL 3
REMARK VINA RESULT:      -5.8      1.719      2.178
REMARK  7 active torsions:
REMARK  status: ('A' for Active; 'I' for Inactive)
REMARK    1  A    between atoms: N_1  and  C_12 
REMARK    2  A    between atoms: C_6  and  C_8 
REMARK    3  A    between atoms: C_8  and  C_11 
REMARK    4  A    between atoms: C_8  and  N_20 
REMARK    5  A    between atoms: C_9  and  C_11 
REMARK    6  A    between atoms: C_12  and  C_13 
REMARK    7  A    between atoms: C_12  and  C_14 
REMARK       I    between atoms: C_13  and  N_20 
ROOT
HETATM    1  C           1     -34.881  -2.915 -12.984  0.00  0.00     0.249 C 
HETATM    2  H           1     -35.945  -1.604 -11.786  0.00  0.00     0.163 HD
HETATM    3  O           1     -34.373  -3.075 -14.069  0.00  0.00    -0.271 OA
HETATM    4  N           1     -35.521  -1.738 -12.695  0.00  0.00    -0.344 N 
ENDROOT
BRANCH   1   5
HETATM    5  C           1     -34.809  -4.009 -11.948  0.00  0.00     0.278 C 
BRANCH   5   6
HETATM    6  N           1     -34.812  -5.344 -12.632  0.00  0.00    -0.066 N 
HETATM    7  H           1     -35.782  -5.735 -12.628  0.00  0.00     0.275 HD
HETATM    8  H           1     -34.487  -5.230 -13.619  0.00  0.00     0.275 HD
HETATM    9  H           1     -34.172  -5.997 -12.126  0.00  0.00     0.275 HD
ENDBRANCH   5   6
BRANCH   5  10
HETATM   10  C           1     -33.529  -3.858 -11.137  0.00  0.00     0.017 C 
HETATM   11  C           1     -32.346  -4.351 -11.957  0.00  0.00     0.012 C 
HETATM   12  C           1     -33.324  -2.391 -10.783  0.00  0.00     0.012 C 
ENDBRANCH   5  10
ENDBRANCH   1   5
BRANCH   4  13
HETATM   13  C           1     -35.589  -0.687 -13.691  0.00  0.00     0.195 C 
BRANCH  13  14
HETATM   14  C           1     -35.046   0.594 -13.108  0.00  0.00     0.197 C 
HETATM   15  O           1     -35.166   0.825 -11.885  0.00  0.00    -0.646 OA
HETATM   16  O           1     -34.474   1.425 -13.847  0.00  0.00    -0.646 OA
ENDBRANCH  13  14
BRANCH  13  17
HETATM   17  C           1     -37.040  -0.479 -14.109  0.00  0.00     0.149 C 
BRANCH  17  18
HETATM   18  C           1     -37.102  -0.212 -15.593  0.00  0.00     0.175 C 
HETATM   19  O           1     -37.043   0.961 -16.020  0.00  0.00    -0.648 OA
HETATM   20  O           1     -37.213  -1.164 -16.395  0.00  0.00    -0.648 OA
ENDBRANCH  17  18
ENDBRANCH  13  17
ENDBRANCH   4  13
TORSDOF 7
ENDMDL
MODEL 4
REMARK VINA RESULT:      -5.8     11.824     14.090
REMARK  7 active torsions:
REMARK  status: ('A' for Active; 'I' for Inactive)
REMARK    1  A    between atoms: N_1  and  C_12 
REMARK    2  A    between atoms: C_6  and  C_8 
REMARK    3  A    between atoms: C_8  and  C_11 
REMARK    4  A    between atoms: C_8  and  N_20 
REMARK    5  A    between atoms: C_9  and  C_11 
REMARK    6  A    between atoms: C_12  and  C_13 
REMARK    7  A    between atoms: C_12  and  C_14 
REMARK       I    between atoms: C_13  and  N_20 
ROOT
HETATM    1  C           1     -21.901  -4.620  -8.085  0.00  0.00     0.249 C 
HETATM    2  H           1     -22.449  -5.795  -9.700  0.00  0.00     0.163 HD
HETATM    3  O           1     -21.848  -3.493  -7.654  0.00  0.00    -0.271 OA
HETATM    4  N           1     -22.403  -4.851  -9.339  0.00  0.00    -0.344 N 
ENDROOT
BRANCH   1   5
HETATM    5  C           1     -21.416  -5.775  -7.243  0.00  0.00     0.278 C 
BRANCH   5   6
HETATM    6  N           1     -19.969  -6.037  -7.543  0.00  0.00    -0.066 N 
HETATM    7  H           1     -19.860  -6.265  -8.557  0.00  0.00     0.275 HD
HETATM    8  H           1     -19.407  -5.185  -7.315  0.00  0.00     0.275 HD
HETATM    9  H           1     -19.635  -6.841  -6.967  0.00  0.00     0.275 HD
ENDBRANCH   5   6
BRANCH   5  10
HETATM   10  C           1     -21.574  -5.430  -5.769  0.00  0.00     0.017 C 
HETATM   11  C           1     -22.066  -6.655  -5.010  0.00  0.00     0.012 C 
HETATM   12  C           1     -20.231  -4.990  -5.204  0.00  0.00     0.012 C 
ENDBRANCH   5  10
ENDBRANCH   1   5
BRANCH   4  13
HETATM   13  C           1     -22.870  -3.741 -10.148  0.00  0.00     0.195 C 
BRANCH  13  14
HETATM   14  C           1     -24.355  -3.874 -10.374  0.00  0.00     0.197 C 
HETATM   15  O           1     -25.006  -4.746  -9.759  0.00  0.00    -0.646 OA
HETATM   16  O           1     -24.936  -3.112 -11.178  0.00  0.00    -0.646 OA
ENDBRANCH  13  14
BRANCH  13  17
HETATM   17  C           1     -22.148  -3.754 -11.489  0.00  0.00     0.149 C 
BRANCH  17  18
HETATM   18  C           1     -20.666  -3.572 -11.265  0.00  0.00     0.175 C 
HETATM   19  O           1     -20.174  -2.423 -11.248  0.00  0.00    -0.648 OA
HETATM   20  O           1     -19.933  -4.569 -11.097  0.00  0.00    -0.648 OA
ENDBRANCH  17  18
ENDBRANCH  13  17
ENDBRANCH   4  13
TORSDOF 7
ENDMDL
MODEL 5
REMARK VINA RESULT:      -5.3     16.230     18.469
REMARK  7 active torsions:
REMARK  status: ('A' for Active; 'I' for Inactive)
REMARK    1  A    between atoms: N_1  and  C_12 
REMARK    2  A    between atoms: C_6  and  C_8 
REMARK    3  A    between atoms: C_8  and  C_11 
REMARK    4  A    between atoms: C_8  and  N_20 
REMARK    5  A    between atoms: C_9  and  C_11 
REMARK    6  A    between atoms: C_12  and  C_13 
REMARK    7  A    between atoms: C_12  and  C_14 
REMARK       I    between atoms: C_13  and  N_20 
ROOT
HETATM    1  C           1     -21.320  -8.491  -2.209  0.00  0.00     0.249 C 
HETATM    2  H           1     -20.472  -6.912  -3.247  0.00  0.00     0.163 HD
HETATM    3  O           1     -21.700  -9.635  -2.285  0.00  0.00    -0.271 OA
HETATM    4  N           1     -20.791  -7.870  -3.310  0.00  0.00    -0.344 N 
ENDROOT
BRANCH   1   5
HETATM    5  C           1     -21.427  -7.745  -0.902  0.00  0.00     0.278 C 
BRANCH   5   6
HETATM    6  N           1     -22.333  -6.562  -1.075  0.00  0.00    -0.066 N 
HETATM    7  H           1     -21.762  -5.719  -1.314  0.00  0.00     0.275 HD
HETATM    8  H           1     -23.011  -6.754  -1.847  0.00  0.00     0.275 HD
HETATM    9  H           1     -22.854  -6.390  -0.186  0.00  0.00     0.275 HD
ENDBRANCH   5   6
BRANCH   5  10
HETATM   10  C           1     -21.997  -8.670   0.165  0.00  0.00     0.017 C 
HETATM   11  C           1     -21.056  -8.707   1.361  0.00  0.00     0.012 C 
HETATM   12  C           1     -23.359  -8.153   0.608  0.00  0.00     0.012 C 
ENDBRANCH   5  10
ENDBRANCH   1   5
BRANCH   4  13
HETATM   13  C           1     -20.689  -8.588  -4.567  0.00  0.00     0.195 C 
BRANCH  13  14
HETATM   14  C           1     -19.237  -8.864  -4.871  0.00  0.00     0.197 C 
HETATM   15  O           1     -18.445  -9.137  -3.943  0.00  0.00    -0.646 OA
HETATM   16  O           1     -18.826  -8.820  -6.051  0.00  0.00    -0.646 OA
ENDBRANCH  13  14
BRANCH  13  17
HETATM   17  C           1     -21.289  -7.742  -5.683  0.00  0.00     0.149 C 
BRANCH  17  18
HETATM   18  C           1     -21.663  -6.384  -5.139  0.00  0.00     0.175 C 
HETATM   19  O           1     -20.804  -5.478  -5.073  0.00  0.00    -0.648 OA
HETATM   20  O           1     -22.832  -6.166  -4.753  0.00  0.00    -0.648 OA
ENDBRANCH  17  18
ENDBRANCH  13  17
ENDBRANCH   4  13
TORSDOF 7
ENDMDL
MODEL 6
REMARK VINA RESULT:      -5.1      1.957      3.559
REMARK  7 active torsions:
REMARK  status: ('A' for Active; 'I' for Inactive)
REMARK    1  A    between atoms: N_1  and  C_12 
REMARK    2  A    between atoms: C_6  and  C_8 
REMARK    3  A    between atoms: C_8  and  C_11 
REMARK    4  A    between atoms: C_8  and  N_20 
REMARK    5  A    between atoms: C_9  and  C_11 
REMARK    6  A    between atoms: C_12  and  C_13 
REMARK    7  A    between atoms: C_12  and  C_14 
REMARK       I    between atoms: C_13  and  N_20 
ROOT
HETATM    1  C           1     -35.325  -2.938 -10.893  0.00  0.00     0.249 C 
HETATM    2  H           1     -34.412  -1.165 -11.451  0.00  0.00     0.163 HD
HETATM    3  O           1     -36.382  -3.479 -10.669  0.00  0.00    -0.271 OA
HETATM    4  N           1     -35.297  -1.619 -11.263  0.00  0.00    -0.344 N 
ENDROOT
BRANCH   1   5
HETATM    5  C           1     -34.037  -3.713 -10.765  0.00  0.00     0.278 C 
BRANCH   5   6
HETATM    6  N           1     -34.348  -5.151 -10.472  0.00  0.00    -0.066 N 
HETATM    7  H           1     -35.303  -5.381 -10.831  0.00  0.00     0.275 HD
HETATM    8  H           1     -33.643  -5.763 -10.943  0.00  0.00     0.275 HD
HETATM    9  H           1     -34.316  -5.311  -9.440  0.00  0.00     0.275 HD
ENDBRANCH   5   6
BRANCH   5  10
HETATM   10  C           1     -33.256  -3.619 -12.069  0.00  0.00     0.017 C 
HETATM   11  C           1     -32.099  -4.607 -12.042  0.00  0.00     0.012 C 
HETATM   12  C           1     -34.177  -3.948 -13.237  0.00  0.00     0.012 C 
ENDBRANCH   5  10
ENDBRANCH   1   5
BRANCH   4  13
HETATM   13  C           1     -36.535  -0.874 -11.385  0.00  0.00     0.195 C 
BRANCH  13  14
HETATM   14  C           1     -36.860  -0.676 -12.845  0.00  0.00     0.197 C 
HETATM   15  O           1     -37.994  -0.274 -13.184  0.00  0.00    -0.646 OA
HETATM   16  O           1     -35.995  -0.914 -13.716  0.00  0.00    -0.646 OA
ENDBRANCH  13  14
BRANCH  13  17
HETATM   17  C           1     -36.377   0.483 -10.710  0.00  0.00     0.149 C 
BRANCH  17  18
HETATM   18  C           1     -37.369   0.601  -9.579  0.00  0.00     0.175 C 
HETATM   19  O           1     -37.485  -0.327  -8.750  0.00  0.00    -0.648 OA
HETATM   20  O           1     -38.075   1.627  -9.471  0.00  0.00    -0.648 OA
ENDBRANCH  17  18
ENDBRANCH  13  17
ENDBRANCH   4  13
TORSDOF 7
ENDMDL
MODEL 7
REMARK VINA RESULT:      -5.0     14.649     17.138
REMARK  7 active torsions:
REMARK  status: ('A' for Active; 'I' for Inactive)
REMARK    1  A    between atoms: N_1  and  C_12 
REMARK    2  A    between atoms: C_6  and  C_8 
REMARK    3  A    between atoms: C_8  and  C_11 
REMARK    4  A    between atoms: C_8  and  N_20 
REMARK    5  A    between atoms: C_9  and  C_11 
REMARK    6  A    between atoms: C_12  and  C_13 
REMARK    7  A    between atoms: C_12  and  C_14 
REMARK       I    between atoms: C_13  and  N_20 
ROOT
HETATM    1  C           1     -21.691  -5.729  -5.505  0.00  0.00     0.249 C 
HETATM    2  H           1     -19.904  -6.357  -4.668  0.00  0.00     0.163 HD
HETATM    3  O           1     -22.889  -5.880  -5.510  0.00  0.00    -0.271 OA
HETATM    4  N           1     -20.908  -6.484  -4.672  0.00  0.00    -0.344 N 
ENDROOT
BRANCH   1   5
HETATM    5  C           1     -21.055  -4.708  -6.417  0.00  0.00     0.278 C 
BRANCH   5   6
HETATM    6  N           1     -19.566  -4.744  -6.244  0.00  0.00    -0.066 N 
HETATM    7  H           1     -19.235  -5.735  -6.280  0.00  0.00     0.275 HD
HETATM    8  H           1     -19.113  -4.197  -7.011  0.00  0.00     0.275 HD
HETATM    9  H           1     -19.313  -4.325  -5.320  0.00  0.00     0.275 HD
ENDBRANCH   5   6
BRANCH   5  10
HETATM   10  C           1     -21.406  -5.031  -7.864  0.00  0.00     0.017 C 
HETATM   11  C           1     -22.430  -4.027  -8.374  0.00  0.00     0.012 C 
HETATM   12  C           1     -20.148  -4.953  -8.719  0.00  0.00     0.012 C 
ENDBRANCH   5  10
ENDBRANCH   1   5
BRANCH   4  13
HETATM   13  C           1     -21.519  -7.465  -3.796  0.00  0.00     0.195 C 
BRANCH  13  14
HETATM   14  C           1     -21.606  -6.905  -2.398  0.00  0.00     0.197 C 
HETATM   15  O           1     -20.956  -7.434  -1.471  0.00  0.00    -0.646 OA
HETATM   16  O           1     -22.330  -5.912  -2.166  0.00  0.00    -0.646 OA
ENDBRANCH  13  14
BRANCH  13  17
HETATM   17  C           1     -20.672  -8.731  -3.785  0.00  0.00     0.149 C 
BRANCH  17  18
HETATM   18  C           1     -20.237  -9.058  -5.193  0.00  0.00     0.175 C 
HETATM   19  O           1     -19.059  -8.842  -5.550  0.00  0.00    -0.648 OA
HETATM   20  O           1     -21.056  -9.544  -6.002  0.00  0.00    -0.648 OA
ENDBRANCH  17  18
ENDBRANCH  13  17
ENDBRANCH   4  13
TORSDOF 7
ENDMDL
MODEL 8
REMARK VINA RESULT:      -4.9     15.461     17.411
REMARK  7 active torsions:
REMARK  status: ('A' for Active; 'I' for Inactive)
REMARK    1  A    between atoms: N_1  and  C_12 
REMARK    2  A    between atoms: C_6  and  C_8 
REMARK    3  A    between atoms: C_8  and  C_11 
REMARK    4  A    between atoms: C_8  and  N_20 
REMARK    5  A    between atoms: C_9  and  C_11 
REMARK    6  A    between atoms: C_12  and  C_13 
REMARK    7  A    between atoms: C_12  and  C_14 
REMARK       I    between atoms: C_13  and  N_20 
ROOT
HETATM    1  C           1     -20.998  -5.588  -6.328  0.00  0.00     0.249 C 
HETATM    2  H           1     -21.051  -7.560  -6.957  0.00  0.00     0.163 HD
HETATM    3  O           1     -20.759  -4.850  -5.402  0.00  0.00    -0.271 OA
HETATM    4  N           1     -20.852  -6.942  -6.181  0.00  0.00    -0.344 N 
ENDROOT
BRANCH   1   5
HETATM    5  C           1     -21.457  -5.018  -7.648  0.00  0.00     0.278 C 
BRANCH   5   6
HETATM    6  N           1     -21.990  -3.633  -7.435  0.00  0.00    -0.066 N 
HETATM    7  H           1     -21.963  -3.402  -6.415  0.00  0.00     0.275 HD
HETATM    8  H           1     -21.402  -2.948  -7.962  0.00  0.00     0.275 HD
HETATM    9  H           1     -22.977  -3.583  -7.776  0.00  0.00     0.275 HD
ENDBRANCH   5   6
BRANCH   5  10
HETATM   10  C           1     -20.281  -4.966  -8.615  0.00  0.00     0.017 C 
HETATM   11  C           1     -20.733  -4.352  -9.932  0.00  0.00     0.012 C 
HETATM   12  C           1     -19.169  -4.116  -8.015  0.00  0.00     0.012 C 
ENDBRANCH   5  10
ENDBRANCH   1   5
BRANCH   4  13
HETATM   13  C           1     -20.411  -7.489  -4.912  0.00  0.00     0.195 C 
BRANCH  13  14
HETATM   14  C           1     -19.595  -8.734  -5.158  0.00  0.00     0.197 C 
HETATM   15  O           1     -19.734  -9.730  -4.416  0.00  0.00    -0.646 OA
HETATM   16  O           1     -18.779  -8.769  -6.104  0.00  0.00    -0.646 OA
ENDBRANCH  13  14
BRANCH  13  17
HETATM   17  C           1     -21.626  -7.837  -4.061  0.00  0.00     0.149 C 
BRANCH  17  18
HETATM   18  C           1     -21.582  -7.049  -2.775  0.00  0.00     0.175 C 
HETATM   19  O           1     -20.819  -7.403  -1.850  0.00  0.00    -0.648 OA
HETATM   20  O           1     -22.308  -6.042  -2.635  0.00  0.00    -0.648 OA
ENDBRANCH  17  18
ENDBRANCH  13  17
ENDBRANCH   4  13
TORSDOF 7
ENDMDL
MODEL 9
REMARK VINA RESULT:      -4.9     16.658     18.635
REMARK  7 active torsions:
REMARK  status: ('A' for Active; 'I' for Inactive)
REMARK    1  A    between atoms: N_1  and  C_12 
REMARK    2  A    between atoms: C_6  and  C_8 
REMARK    3  A    between atoms: C_8  and  C_11 
REMARK    4  A    between atoms: C_8  and  N_20 
REMARK    5  A    between atoms: C_9  and  C_11 
REMARK    6  A    between atoms: C_12  and  C_13 
REMARK    7  A    between atoms: C_12  and  C_14 
REMARK       I    between atoms: C_13  and  N_20 
ROOT
HETATM    1  C           1     -21.103  -8.956  -1.539  0.00  0.00     0.249 C 
HETATM    2  H           1     -22.219  -9.336  -3.242  0.00  0.00     0.163 HD
HETATM    3  O           1     -20.266  -8.240  -1.044  0.00  0.00    -0.271 OA
HETATM    4  N           1     -21.517  -8.737  -2.827  0.00  0.00    -0.344 N 
ENDROOT
BRANCH   1   5
HETATM    5  C           1     -21.696 -10.091  -0.740  0.00  0.00     0.278 C 
BRANCH   5   6
HETATM    6  N           1     -21.009 -10.174   0.591  0.00  0.00    -0.066 N 
HETATM    7  H           1     -20.340  -9.376   0.689  0.00  0.00     0.275 HD
HETATM    8  H           1     -21.722 -10.125   1.354  0.00  0.00     0.275 HD
HETATM    9  H           1     -20.486 -11.076   0.658  0.00  0.00     0.275 HD
ENDBRANCH   5   6
BRANCH   5  10
HETATM   10  C           1     -23.183  -9.842  -0.529  0.00  0.00     0.017 C 
HETATM   11  C           1     -23.839 -11.106   0.007  0.00  0.00     0.012 C 
HETATM   12  C           1     -23.371  -8.709   0.472  0.00  0.00     0.012 C 
ENDBRANCH   5  10
ENDBRANCH   1   5
BRANCH   4  13
HETATM   13  C           1     -20.947  -7.647  -3.595  0.00  0.00     0.195 C 
BRANCH  13  14
HETATM   14  C           1     -21.941  -6.515  -3.672  0.00  0.00     0.197 C 
HETATM   15  O           1     -22.360  -6.124  -4.783  0.00  0.00    -0.646 OA
HETATM   16  O           1     -22.346  -5.966  -2.624  0.00  0.00    -0.646 OA
ENDBRANCH  13  14
BRANCH  13  17
HETATM   17  C           1     -20.623  -8.135  -5.002  0.00  0.00     0.149 C 
BRANCH  17  18
HETATM   18  C           1     -19.288  -8.839  -4.994  0.00  0.00     0.175 C 
HETATM   19  O           1     -18.656  -8.969  -3.923  0.00  0.00    -0.648 OA
HETATM   20  O           1     -18.814  -9.292  -6.058  0.00  0.00    -0.648 OA
ENDBRANCH  17  18
ENDBRANCH  13  17
ENDBRANCH   4  13
TORSDOF 7
ENDMDL
