MODEL 1
REMARK VINA RESULT:      -6.7      0.000      0.000
REMARK  9 active torsions:
REMARK  status: ('A' for Active; 'I' for Inactive)
REMARK    1  A    between atoms: C_2  and  C_21 
REMARK    2  A    between atoms: C_2  and  C_3 
REMARK    3  A    between atoms: C_2  and  N_8 
REMARK    4  A    between atoms: C_4  and  C_19 
REMARK    5  A    between atoms: P_5  and  O_6 
REMARK    6  A    between atoms: P_5  and  O_10 
REMARK    7  A    between atoms: O_6  and  C_23 
REMARK    8  A    between atoms: N_13  and  C_19 
REMARK       I    between atoms: N_13  and  C_21 
REMARK    9  A    between atoms: C_19  and  C_23 
ROOT
HETATM    1  O           1     -28.433  -5.265 -19.087  0.00  0.00    -0.271 OA
HETATM    2  N           1     -27.524  -7.301 -19.207  0.00  0.00    -0.343 N 
HETATM    3  H           1     -27.630  -8.297 -19.063  0.00  0.00     0.163 HD
HETATM    4  C           1     -28.559  -6.454 -18.915  0.00  0.00     0.249 C 
ENDROOT
BRANCH   2   5
HETATM    5  C           1     -26.277  -6.771 -19.725  0.00  0.00     0.210 C 
BRANCH   5   6
HETATM    6  C           1     -25.787  -7.649 -20.850  0.00  0.00     0.198 C 
HETATM    7  O           1     -26.544  -8.513 -21.343  0.00  0.00    -0.646 OA
HETATM    8  O           1     -24.625  -7.512 -21.289  0.00  0.00    -0.646 OA
ENDBRANCH   5   6
BRANCH   5   9
HETATM    9  C           1     -25.238  -6.743 -18.612  0.00  0.00     0.217 C 
BRANCH   9  10
HETATM   10  O           1     -25.779  -6.113 -17.482  0.00  0.00    -0.287 OA
BRANCH  10  11
HETATM   11  P           1     -25.363  -6.741 -16.054  0.00  0.00     0.406 P 
HETATM   12  O           1     -26.528  -7.433 -15.461  0.00  0.00    -0.624 OA
HETATM   13  O           1     -24.919  -5.658 -15.149  0.00  0.00    -0.624 OA
BRANCH  11  14
HETATM   14  O           1     -24.159  -7.797 -16.263  0.00  0.00    -0.300 OA
HETATM   15  H           1     -23.371  -7.297 -16.129  0.00  0.00     0.223 HD
ENDBRANCH  11  14
ENDBRANCH  10  11
ENDBRANCH   9  10
ENDBRANCH   5   9
ENDBRANCH   2   5
BRANCH   4  16
HETATM   16  C           1     -29.856  -7.006 -18.376  0.00  0.00     0.278 C 
BRANCH  16  17
HETATM   17  C           1     -30.468  -6.006 -17.404  0.00  0.00     0.017 C 
HETATM   18  C           1     -31.953  -6.299 -17.240  0.00  0.00     0.012 C 
HETATM   19  C           1     -29.775  -6.123 -16.053  0.00  0.00     0.012 C 
ENDBRANCH  16  17
BRANCH  16  20
HETATM   20  N           1     -29.592  -8.298 -17.662  0.00  0.00    -0.066 N 
HETATM   21  H           1     -28.569  -8.389 -17.472  0.00  0.00     0.275 HD
HETATM   22  H           1     -30.116  -8.309 -16.758  0.00  0.00     0.275 HD
HETATM   23  H           1     -29.908  -9.096 -18.259  0.00  0.00     0.275 HD
ENDBRANCH  16  20
ENDBRANCH   4  16
TORSDOF 9
ENDMDL
MODEL 2
REMARK VINA RESULT:      -6.2      7.296      9.609
REMARK  9 active torsions:
REMARK  status: ('A' for Active; 'I' for Inactive)
REMARK    1  A    between atoms: C_2  and  C_21 
REMARK    2  A    between atoms: C_2  and  C_3 
REMARK    3  A    between atoms: C_2  and  N_8 
REMARK    4  A    between atoms: C_4  and  C_19 
REMARK    5  A    between atoms: P_5  and  O_6 
REMARK    6  A    between atoms: P_5  and  O_10 
REMARK    7  A    between atoms: O_6  and  C_23 
REMARK    8  A    between atoms: N_13  and  C_19 
REMARK       I    between atoms: N_13  and  C_21 
REMARK    9  A    between atoms: C_19  and  C_23 
ROOT
HETATM    1  O           1     -35.207  -5.460 -14.140  0.00  0.00    -0.271 OA
HETATM    2  N           1     -33.646  -3.953 -14.668  0.00  0.00    -0.343 N 
HETATM    3  H           1     -32.919  -3.324 -14.352  0.00  0.00     0.163 HD
HETATM    4  C           1     -34.339  -4.709 -13.762  0.00  0.00     0.249 C 
ENDROOT
BRANCH   2   5
HETATM    5  C           1     -33.952  -4.055 -16.083  0.00  0.00     0.210 C 
BRANCH   5   6
HETATM    6  C           1     -32.667  -4.115 -16.871  0.00  0.00     0.198 C 
HETATM    7  O           1     -31.931  -5.123 -16.792  0.00  0.00    -0.646 OA
HETATM    8  O           1     -32.338  -3.157 -17.604  0.00  0.00    -0.646 OA
ENDBRANCH   5   6
BRANCH   5   9
HETATM    9  C           1     -34.758  -2.838 -16.516  0.00  0.00     0.217 C 
BRANCH   9  10
HETATM   10  O           1     -35.122  -2.092 -15.386  0.00  0.00    -0.287 OA
BRANCH  10  11
HETATM   11  P           1     -35.841  -0.675 -15.675  0.00  0.00     0.406 P 
HETATM   12  O           1     -34.887   0.425 -15.413  0.00  0.00    -0.624 OA
HETATM   13  O           1     -37.018  -0.528 -14.789  0.00  0.00    -0.624 OA
BRANCH  11  14
HETATM   14  O           1     -36.317  -0.619 -17.217  0.00  0.00    -0.300 OA
HETATM   15  H           1     -35.693  -0.057 -17.644  0.00  0.00     0.223 HD
ENDBRANCH  11  14
ENDBRANCH  10  11
ENDBRANCH   9  10
ENDBRANCH   5   9
ENDBRANCH   2   5
BRANCH   4  16
HETATM   16  C           1     -34.021  -4.603 -12.291  0.00  0.00     0.278 C 
BRANCH  16  17
HETATM   17  C           1     -34.463  -3.240 -11.773  0.00  0.00     0.017 C 
HETATM   18  C           1     -35.664  -3.411 -10.853  0.00  0.00     0.012 C 
HETATM   19  C           1     -33.320  -2.596 -11.001  0.00  0.00     0.012 C 
ENDBRANCH  16  17
BRANCH  16  20
HETATM   20  N           1     -32.544  -4.759 -12.086  0.00  0.00    -0.066 N 
HETATM   21  H           1     -32.358  -5.060 -11.103  0.00  0.00     0.275 HD
HETATM   22  H           1     -32.176  -5.481 -12.746  0.00  0.00     0.275 HD
HETATM   23  H           1     -32.069  -3.846 -12.266  0.00  0.00     0.275 HD
ENDBRANCH  16  20
ENDBRANCH   4  16
TORSDOF 9
ENDMDL
MODEL 3
REMARK VINA RESULT:      -6.1      2.554      5.723
REMARK  9 active torsions:
REMARK  status: ('A' for Active; 'I' for Inactive)
REMARK    1  A    between atoms: C_2  and  C_21 
REMARK    2  A    between atoms: C_2  and  C_3 
REMARK    3  A    between atoms: C_2  and  N_8 
REMARK    4  A    between atoms: C_4  and  C_19 
REMARK    5  A    between atoms: P_5  and  O_6 
REMARK    6  A    between atoms: P_5  and  O_10 
REMARK    7  A    between atoms: O_6  and  C_23 
REMARK    8  A    between atoms: N_13  and  C_19 
REMARK       I    between atoms: N_13  and  C_21 
REMARK    9  A    between atoms: C_19  and  C_23 
ROOT
HETATM    1  O           1     -24.055  -6.285 -19.122  0.00  0.00    -0.271 OA
HETATM    2  N           1     -26.129  -7.064 -18.841  0.00  0.00    -0.343 N 
HETATM    3  H           1     -26.831  -7.747 -19.097  0.00  0.00     0.163 HD
HETATM    4  C           1     -24.893  -7.101 -19.427  0.00  0.00     0.249 C 
ENDROOT
BRANCH   2   5
HETATM    5  C           1     -26.433  -6.047 -17.852  0.00  0.00     0.210 C 
BRANCH   5   6
HETATM    6  C           1     -25.941  -6.499 -16.499  0.00  0.00     0.198 C 
HETATM    7  O           1     -26.483  -7.470 -15.929  0.00  0.00    -0.646 OA
HETATM    8  O           1     -24.990  -5.902 -15.949  0.00  0.00    -0.646 OA
ENDBRANCH   5   6
BRANCH   5   9
HETATM    9  C           1     -27.939  -5.828 -17.798  0.00  0.00     0.217 C 
BRANCH   9  10
HETATM   10  O           1     -28.572  -6.698 -18.698  0.00  0.00    -0.287 OA
BRANCH  10  11
HETATM   11  P           1     -29.767  -7.598 -18.090  0.00  0.00     0.406 P 
HETATM   12  O           1     -30.290  -8.498 -19.141  0.00  0.00    -0.624 OA
HETATM   13  O           1     -30.854  -6.717 -17.610  0.00  0.00    -0.624 OA
BRANCH  11  14
HETATM   14  O           1     -29.203  -8.479 -16.859  0.00  0.00    -0.300 OA
HETATM   15  H           1     -29.730  -9.261 -16.858  0.00  0.00     0.223 HD
ENDBRANCH  11  14
ENDBRANCH  10  11
ENDBRANCH   9  10
ENDBRANCH   5   9
ENDBRANCH   2   5
BRANCH   4  16
HETATM   16  C           1     -24.577  -8.158 -20.456  0.00  0.00     0.278 C 
BRANCH  16  17
HETATM   17  C           1     -23.416  -7.691 -21.325  0.00  0.00     0.017 C 
HETATM   18  C           1     -22.261  -8.675 -21.202  0.00  0.00     0.012 C 
HETATM   19  C           1     -23.868  -7.618 -22.777  0.00  0.00     0.012 C 
ENDBRANCH  16  17
BRANCH  16  20
HETATM   20  N           1     -25.782  -8.393 -21.318  0.00  0.00    -0.066 N 
HETATM   21  H           1     -25.604  -9.202 -21.955  0.00  0.00     0.275 HD
HETATM   22  H           1     -26.607  -8.604 -20.712  0.00  0.00     0.275 HD
HETATM   23  H           1     -25.976  -7.538 -21.886  0.00  0.00     0.275 HD
ENDBRANCH  16  20
ENDBRANCH   4  16
TORSDOF 9
ENDMDL
MODEL 4
REMARK VINA RESULT:      -5.9      2.976      5.640
REMARK  9 active torsions:
REMARK  status: ('A' for Active; 'I' for Inactive)
REMARK    1  A    between atoms: C_2  and  C_21 
REMARK    2  A    between atoms: C_2  and  C_3 
REMARK    3  A    between atoms: C_2  and  N_8 
REMARK    4  A    between atoms: C_4  and  C_19 
REMARK    5  A    between atoms: P_5  and  O_6 
REMARK    6  A    between atoms: P_5  and  O_10 
REMARK    7  A    between atoms: O_6  and  C_23 
REMARK    8  A    between atoms: N_13  and  C_19 
REMARK       I    between atoms: N_13  and  C_21 
REMARK    9  A    between atoms: C_19  and  C_23 
ROOT
HETATM    1  O           1     -26.237  -5.989 -17.002  0.00  0.00    -0.271 OA
HETATM    2  N           1     -27.517  -6.739 -18.671  0.00  0.00    -0.343 N 
HETATM    3  H           1     -27.572  -7.084 -19.621  0.00  0.00     0.163 HD
HETATM    4  C           1     -26.303  -6.401 -18.136  0.00  0.00     0.249 C 
ENDROOT
BRANCH   2   5
HETATM    5  C           1     -28.723  -6.606 -17.876  0.00  0.00     0.210 C 
BRANCH   5   6
HETATM    6  C           1     -29.471  -7.916 -17.874  0.00  0.00     0.198 C 
HETATM    7  O           1     -29.598  -8.561 -16.811  0.00  0.00    -0.646 OA
HETATM    8  O           1     -29.962  -8.357 -18.935  0.00  0.00    -0.646 OA
ENDBRANCH   5   6
BRANCH   5   9
HETATM    9  C           1     -29.605  -5.517 -18.473  0.00  0.00     0.217 C 
BRANCH   9  10
HETATM   10  O           1     -30.929  -5.706 -18.052  0.00  0.00    -0.287 OA
BRANCH  10  11
HETATM   11  P           1     -31.471  -4.672 -16.935  0.00  0.00     0.406 P 
HETATM   12  O           1     -31.332  -3.287 -17.436  0.00  0.00    -0.624 OA
HETATM   13  O           1     -30.681  -4.829 -15.694  0.00  0.00    -0.624 OA
BRANCH  11  14
HETATM   14  O           1     -33.026  -4.981 -16.628  0.00  0.00    -0.300 OA
HETATM   15  H           1     -33.062  -5.908 -16.461  0.00  0.00     0.223 HD
ENDBRANCH  11  14
ENDBRANCH  10  11
ENDBRANCH   9  10
ENDBRANCH   5   9
ENDBRANCH   2   5
BRANCH   4  16
HETATM   16  C           1     -25.049  -6.539 -18.964  0.00  0.00     0.278 C 
BRANCH  16  17
HETATM   17  C           1     -25.405  -7.090 -20.338  0.00  0.00     0.017 C 
HETATM   18  C           1     -25.468  -5.949 -21.343  0.00  0.00     0.012 C 
HETATM   19  C           1     -24.344  -8.092 -20.773  0.00  0.00     0.012 C 
ENDBRANCH  16  17
BRANCH  16  20
HETATM   20  N           1     -24.100  -7.479 -18.280  0.00  0.00    -0.066 N 
HETATM   21  H           1     -24.550  -8.416 -18.178  0.00  0.00     0.275 HD
HETATM   22  H           1     -23.231  -7.571 -18.852  0.00  0.00     0.275 HD
HETATM   23  H           1     -23.859  -7.103 -17.335  0.00  0.00     0.275 HD
ENDBRANCH  16  20
ENDBRANCH   4  16
TORSDOF 9
ENDMDL
MODEL 5
REMARK VINA RESULT:      -5.8     12.117     14.016
REMARK  9 active torsions:
REMARK  status: ('A' for Active; 'I' for Inactive)
REMARK    1  A    between atoms: C_2  and  C_21 
REMARK    2  A    between atoms: C_2  and  C_3 
REMARK    3  A    between atoms: C_2  and  N_8 
REMARK    4  A    between atoms: C_4  and  C_19 
REMARK    5  A    between atoms: P_5  and  O_6 
REMARK    6  A    between atoms: P_5  and  O_10 
REMARK    7  A    between atoms: O_6  and  C_23 
REMARK    8  A    between atoms: N_13  and  C_19 
REMARK       I    between atoms: N_13  and  C_21 
REMARK    9  A    between atoms: C_19  and  C_23 
ROOT
HETATM    1  O           1     -20.739  -8.013  -5.925  0.00  0.00    -0.271 OA
HETATM    2  N           1     -21.677  -6.006  -5.643  0.00  0.00    -0.343 N 
HETATM    3  H           1     -22.227  -5.391  -5.057  0.00  0.00     0.163 HD
HETATM    4  C           1     -21.395  -7.279  -5.225  0.00  0.00     0.249 C 
ENDROOT
BRANCH   2   5
HETATM    5  C           1     -21.186  -5.539  -6.926  0.00  0.00     0.210 C 
BRANCH   5   6
HETATM    6  C           1     -19.903  -4.772  -6.723  0.00  0.00     0.198 C 
HETATM    7  O           1     -19.556  -4.427  -5.572  0.00  0.00    -0.646 OA
HETATM    8  O           1     -19.187  -4.481  -7.705  0.00  0.00    -0.646 OA
ENDBRANCH   5   6
BRANCH   5   9
HETATM    9  C           1     -22.227  -4.629  -7.565  0.00  0.00     0.217 C 
BRANCH   9  10
HETATM   10  O           1     -22.093  -4.674  -8.960  0.00  0.00    -0.287 OA
BRANCH  10  11
HETATM   11  P           1     -23.360  -4.142  -9.810  0.00  0.00     0.406 P 
HETATM   12  O           1     -24.016  -5.284 -10.484  0.00  0.00    -0.624 OA
HETATM   13  O           1     -22.900  -3.169 -10.825  0.00  0.00    -0.624 OA
BRANCH  11  14
HETATM   14  O           1     -24.413  -3.429  -8.814  0.00  0.00    -0.300 OA
HETATM   15  H           1     -23.902  -3.171  -8.065  0.00  0.00     0.223 HD
ENDBRANCH  11  14
ENDBRANCH  10  11
ENDBRANCH   9  10
ENDBRANCH   5   9
ENDBRANCH   2   5
BRANCH   4  16
HETATM   16  C           1     -21.906  -7.765  -3.891  0.00  0.00     0.278 C 
BRANCH  16  17
HETATM   17  C           1     -21.193  -7.019  -2.771  0.00  0.00     0.017 C 
HETATM   18  C           1     -22.214  -6.268  -1.928  0.00  0.00     0.012 C 
HETATM   19  C           1     -20.445  -8.016  -1.895  0.00  0.00     0.012 C 
ENDBRANCH  16  17
BRANCH  16  20
HETATM   20  N           1     -21.641  -9.236  -3.760  0.00  0.00    -0.066 N 
HETATM   21  H           1     -20.613  -9.411  -3.817  0.00  0.00     0.275 HD
HETATM   22  H           1     -22.000  -9.572  -2.838  0.00  0.00     0.275 HD
HETATM   23  H           1     -22.126  -9.747  -4.531  0.00  0.00     0.275 HD
ENDBRANCH  16  20
ENDBRANCH   4  16
TORSDOF 9
ENDMDL
MODEL 6
REMARK VINA RESULT:      -5.7     14.704     16.487
REMARK  9 active torsions:
REMARK  status: ('A' for Active; 'I' for Inactive)
REMARK    1  A    between atoms: C_2  and  C_21 
REMARK    2  A    between atoms: C_2  and  C_3 
REMARK    3  A    between atoms: C_2  and  N_8 
REMARK    4  A    between atoms: C_4  and  C_19 
REMARK    5  A    between atoms: P_5  and  O_6 
REMARK    6  A    between atoms: P_5  and  O_10 
REMARK    7  A    between atoms: O_6  and  C_23 
REMARK    8  A    between atoms: N_13  and  C_19 
REMARK       I    between atoms: N_13  and  C_21 
REMARK    9  A    between atoms: C_19  and  C_23 
ROOT
HETATM    1  O           1     -21.715  -9.710  -2.193  0.00  0.00    -0.271 OA
HETATM    2  N           1     -20.725  -8.008  -3.247  0.00  0.00    -0.343 N 
HETATM    3  H           1     -20.373  -7.060  -3.203  0.00  0.00     0.163 HD
HETATM    4  C           1     -21.294  -8.578  -2.140  0.00  0.00     0.249 C 
ENDROOT
BRANCH   2   5
HETATM    5  C           1     -20.625  -8.762  -4.482  0.00  0.00     0.210 C 
BRANCH   5   6
HETATM    6  C           1     -19.172  -8.930  -4.852  0.00  0.00     0.198 C 
HETATM    7  O           1     -18.329  -9.195  -3.968  0.00  0.00    -0.646 OA
HETATM    8  O           1     -18.812  -8.805  -6.042  0.00  0.00    -0.646 OA
ENDBRANCH   5   6
BRANCH   5   9
HETATM    9  C           1     -21.350  -8.014  -5.592  0.00  0.00     0.217 C 
BRANCH   9  10
HETATM   10  O           1     -21.489  -6.665  -5.234  0.00  0.00    -0.287 OA
BRANCH  10  11
HETATM   11  P           1     -20.895  -5.590  -6.282  0.00  0.00     0.406 P 
HETATM   12  O           1     -20.143  -4.548  -5.547  0.00  0.00    -0.624 OA
HETATM   13  O           1     -22.007  -4.961  -7.029  0.00  0.00    -0.624 OA
BRANCH  11  14
HETATM   14  O           1     -19.906  -6.338  -7.316  0.00  0.00    -0.300 OA
HETATM   15  H           1     -19.278  -5.683  -7.571  0.00  0.00     0.223 HD
ENDBRANCH  11  14
ENDBRANCH  10  11
ENDBRANCH   9  10
ENDBRANCH   5   9
ENDBRANCH   2   5
BRANCH   4  16
HETATM   16  C           1     -21.397  -7.793  -0.856  0.00  0.00     0.278 C 
BRANCH  16  17
HETATM   17  C           1     -21.963  -8.686   0.241  0.00  0.00     0.017 C 
HETATM   18  C           1     -21.024  -8.677   1.439  0.00  0.00     0.012 C 
HETATM   19  C           1     -23.330  -8.165   0.663  0.00  0.00     0.012 C 
ENDBRANCH  16  17
BRANCH  16  20
HETATM   20  N           1     -22.306  -6.617  -1.060  0.00  0.00    -0.066 N 
HETATM   21  H           1     -22.983  -6.557  -0.267  0.00  0.00     0.275 HD
HETATM   22  H           1     -21.738  -5.742  -1.099  0.00  0.00     0.275 HD
HETATM   23  H           1     -22.830  -6.735  -1.957  0.00  0.00     0.275 HD
ENDBRANCH  16  20
ENDBRANCH   4  16
TORSDOF 9
ENDMDL
MODEL 7
REMARK VINA RESULT:      -5.6      5.027      7.165
REMARK  9 active torsions:
REMARK  status: ('A' for Active; 'I' for Inactive)
REMARK    1  A    between atoms: C_2  and  C_21 
REMARK    2  A    between atoms: C_2  and  C_3 
REMARK    3  A    between atoms: C_2  and  N_8 
REMARK    4  A    between atoms: C_4  and  C_19 
REMARK    5  A    between atoms: P_5  and  O_6 
REMARK    6  A    between atoms: P_5  and  O_10 
REMARK    7  A    between atoms: O_6  and  C_23 
REMARK    8  A    between atoms: N_13  and  C_19 
REMARK       I    between atoms: N_13  and  C_21 
REMARK    9  A    between atoms: C_19  and  C_23 
ROOT
HETATM    1  O           1     -31.594  -7.018 -18.223  0.00  0.00    -0.271 OA
HETATM    2  N           1     -31.448  -5.532 -16.563  0.00  0.00    -0.343 N 
HETATM    3  H           1     -30.927  -5.180 -15.770  0.00  0.00     0.163 HD
HETATM    4  C           1     -30.972  -6.598 -17.276  0.00  0.00     0.249 C 
ENDROOT
BRANCH   2   5
HETATM    5  C           1     -32.698  -4.903 -16.945  0.00  0.00     0.210 C 
BRANCH   5   6
HETATM    6  C           1     -32.436  -3.479 -17.367  0.00  0.00     0.198 C 
HETATM    7  O           1     -33.392  -2.689 -17.526  0.00  0.00    -0.646 OA
HETATM    8  O           1     -31.265  -3.089 -17.558  0.00  0.00    -0.646 OA
ENDBRANCH   5   6
BRANCH   5   9
HETATM    9  C           1     -33.654  -4.915 -15.759  0.00  0.00     0.217 C 
BRANCH   9  10
HETATM   10  O           1     -33.152  -4.086 -14.745  0.00  0.00    -0.287 OA
BRANCH  10  11
HETATM   11  P           1     -33.979  -4.084 -13.358  0.00  0.00     0.406 P 
HETATM   12  O           1     -34.720  -2.810 -13.228  0.00  0.00    -0.624 OA
HETATM   13  O           1     -33.040  -4.226 -12.223  0.00  0.00    -0.624 OA
BRANCH  11  14
HETATM   14  O           1     -35.023  -5.316 -13.354  0.00  0.00    -0.300 OA
HETATM   15  H           1     -35.759  -5.010 -12.850  0.00  0.00     0.223 HD
ENDBRANCH  11  14
ENDBRANCH  10  11
ENDBRANCH   9  10
ENDBRANCH   5   9
ENDBRANCH   2   5
BRANCH   4  16
HETATM   16  C           1     -29.671  -7.252 -16.878  0.00  0.00     0.278 C 
BRANCH  16  17
HETATM   17  C           1     -28.529  -6.259 -17.052  0.00  0.00     0.017 C 
HETATM   18  C           1     -27.376  -6.644 -16.137  0.00  0.00     0.012 C 
HETATM   19  C           1     -28.057  -6.278 -18.500  0.00  0.00     0.012 C 
ENDBRANCH  16  17
BRANCH  16  20
HETATM   20  N           1     -29.427  -8.450 -17.747  0.00  0.00    -0.066 N 
HETATM   21  H           1     -28.606  -8.270 -18.368  0.00  0.00     0.275 HD
HETATM   22  H           1     -29.232  -9.281 -17.146  0.00  0.00     0.275 HD
HETATM   23  H           1     -30.273  -8.633 -18.333  0.00  0.00     0.275 HD
ENDBRANCH  16  20
ENDBRANCH   4  16
TORSDOF 9
ENDMDL
MODEL 8
REMARK VINA RESULT:      -5.4     15.231     17.073
REMARK  9 active torsions:
REMARK  status: ('A' for Active; 'I' for Inactive)
REMARK    1  A    between atoms: C_2  and  C_21 
REMARK    2  A    between atoms: C_2  and  C_3 
REMARK    3  A    between atoms: C_2  and  N_8 
REMARK    4  A    between atoms: C_4  and  C_19 
REMARK    5  A    between atoms: P_5  and  O_6 
REMARK    6  A    between atoms: P_5  and  O_10 
REMARK    7  A    between atoms: O_6  and  C_23 
REMARK    8  A    between atoms: N_13  and  C_19 
REMARK       I    between atoms: N_13  and  C_21 
REMARK    9  A    between atoms: C_19  and  C_23 
ROOT
HETATM    1  O           1     -19.743  -9.107  -1.703  0.00  0.00    -0.271 OA
HETATM    2  N           1     -21.703  -8.647  -2.669  0.00  0.00    -0.343 N 
HETATM    3  H           1     -22.705  -8.790  -2.688  0.00  0.00     0.163 HD
HETATM    4  C           1     -20.939  -9.278  -1.725  0.00  0.00     0.249 C 
ENDROOT
BRANCH   2   5
HETATM    5  C           1     -21.077  -7.772  -3.642  0.00  0.00     0.210 C 
BRANCH   5   6
HETATM    6  C           1     -21.829  -6.464  -3.698  0.00  0.00     0.198 C 
HETATM    7  O           1     -21.935  -5.851  -4.782  0.00  0.00    -0.646 OA
HETATM    8  O           1     -22.345  -5.995  -2.662  0.00  0.00    -0.646 OA
ENDBRANCH   5   6
BRANCH   5   9
HETATM    9  C           1     -21.107  -8.435  -5.013  0.00  0.00     0.217 C 
BRANCH   9  10
HETATM   10  O           1     -19.815  -8.442  -5.558  0.00  0.00    -0.287 OA
BRANCH  10  11
HETATM   11  P           1     -18.913  -9.740  -5.224  0.00  0.00     0.406 P 
HETATM   12  O           1     -18.125 -10.113  -6.419  0.00  0.00    -0.624 OA
HETATM   13  O           1     -19.792 -10.867  -4.841  0.00  0.00    -0.624 OA
BRANCH  11  14
HETATM   14  O           1     -17.912  -9.397  -4.004  0.00  0.00    -0.300 OA
HETATM   15  H           1     -17.973 -10.138  -3.424  0.00  0.00     0.223 HD
ENDBRANCH  11  14
ENDBRANCH  10  11
ENDBRANCH   9  10
ENDBRANCH   5   9
ENDBRANCH   2   5
BRANCH   4  16
HETATM   16  C           1     -21.590 -10.188  -0.713  0.00  0.00     0.278 C 
BRANCH  16  17
HETATM   17  C           1     -23.057  -9.808  -0.556  0.00  0.00     0.017 C 
HETATM   18  C           1     -23.852 -11.023  -0.101  0.00  0.00     0.012 C 
HETATM   19  C           1     -23.185  -8.700   0.481  0.00  0.00     0.012 C 
ENDBRANCH  16  17
BRANCH  16  20
HETATM   20  N           1     -20.894 -10.047   0.608  0.00  0.00    -0.066 N 
HETATM   21  H           1     -21.170 -10.835   1.235  0.00  0.00     0.275 HD
HETATM   22  H           1     -19.860 -10.067   0.460  0.00  0.00     0.275 HD
HETATM   23  H           1     -21.167  -9.139   1.049  0.00  0.00     0.275 HD
ENDBRANCH  16  20
ENDBRANCH   4  16
TORSDOF 9
ENDMDL
MODEL 9
REMARK VINA RESULT:      -5.3     15.075     16.844
REMARK  9 active torsions:
REMARK  status: ('A' for Active; 'I' for Inactive)
REMARK    1  A    between atoms: C_2  and  C_21 
REMARK    2  A    between atoms: C_2  and  C_3 
REMARK    3  A    between atoms: C_2  and  N_8 
REMARK    4  A    between atoms: C_4  and  C_19 
REMARK    5  A    between atoms: P_5  and  O_6 
REMARK    6  A    between atoms: P_5  and  O_10 
REMARK    7  A    between atoms: O_6  and  C_23 
REMARK    8  A    between atoms: N_13  and  C_19 
REMARK       I    between atoms: N_13  and  C_21 
REMARK    9  A    between atoms: C_19  and  C_23 
ROOT
HETATM    1  O           1     -21.921  -9.295  -2.581  0.00  0.00    -0.271 OA
HETATM    2  N           1     -19.983  -8.241  -2.924  0.00  0.00    -0.343 N 
HETATM    3  H           1     -19.309  -7.559  -2.600  0.00  0.00     0.163 HD
HETATM    4  C           1     -21.116  -8.481  -2.194  0.00  0.00     0.249 C 
ENDROOT
BRANCH   2   5
HETATM    5  C           1     -19.747  -8.964  -4.159  0.00  0.00     0.210 C 
BRANCH   5   6
HETATM    6  C           1     -18.384  -9.609  -4.111  0.00  0.00     0.198 C 
HETATM    7  O           1     -17.578  -9.300  -3.207  0.00  0.00    -0.646 OA
HETATM    8  O           1     -18.061 -10.453  -4.975  0.00  0.00    -0.646 OA
ENDBRANCH   5   6
BRANCH   5   9
HETATM    9  C           1     -19.811  -7.996  -5.333  0.00  0.00     0.217 C 
BRANCH   9  10
HETATM   10  O           1     -21.151  -7.726  -5.645  0.00  0.00    -0.287 OA
BRANCH  10  11
HETATM   11  P           1     -21.652  -6.216  -5.365  0.00  0.00     0.406 P 
HETATM   12  O           1     -21.293  -5.357  -6.515  0.00  0.00    -0.624 OA
HETATM   13  O           1     -21.002  -5.699  -4.141  0.00  0.00    -0.624 OA
BRANCH  11  14
HETATM   14  O           1     -23.256  -6.211  -5.170  0.00  0.00    -0.300 OA
HETATM   15  H           1     -23.456  -5.356  -4.828  0.00  0.00     0.223 HD
ENDBRANCH  11  14
ENDBRANCH  10  11
ENDBRANCH   9  10
ENDBRANCH   5   9
ENDBRANCH   2   5
BRANCH   4  16
HETATM   16  C           1     -21.361  -7.728  -0.910  0.00  0.00     0.278 C 
BRANCH  16  17
HETATM   17  C           1     -21.974  -8.668   0.121  0.00  0.00     0.017 C 
HETATM   18  C           1     -21.066  -8.746   1.340  0.00  0.00     0.012 C 
HETATM   19  C           1     -23.340  -8.140   0.537  0.00  0.00     0.012 C 
ENDBRANCH  16  17
BRANCH  16  20
HETATM   20  N           1     -22.302  -6.590  -1.170  0.00  0.00    -0.066 N 
HETATM   21  H           1     -21.756  -5.711  -1.315  0.00  0.00     0.275 HD
HETATM   22  H           1     -22.867  -6.794  -2.025  0.00  0.00     0.275 HD
HETATM   23  H           1     -22.939  -6.472  -0.350  0.00  0.00     0.275 HD
ENDBRANCH  16  20
ENDBRANCH   4  16
TORSDOF 9
ENDMDL
