MODEL 1
REMARK VINA RESULT:      -6.8      0.000      0.000
REMARK  9 active torsions:
REMARK  status: ('A' for Active; 'I' for Inactive)
REMARK    1  A    between atoms: C_2  and  C_5 
REMARK    2  A    between atoms: C_2  and  C_16 
REMARK    3  A    between atoms: C_2  and  N_9 
REMARK    4  A    between atoms: O_4  and  C_14 
REMARK    5  A    between atoms: C_5  and  C_22 
REMARK       I    between atoms: C_7  and  N_9 
REMARK    6  A    between atoms: C_7  and  C_15 
REMARK    7  A    between atoms: C_11  and  C_15 
REMARK    8  A    between atoms: C_11  and  O_12 
REMARK    9  A    between atoms: C_15  and  N_25 
ROOT
HETATM    1  C           1     -21.057  -5.363  -6.980  0.00  0.00     0.189 C 
ENDROOT
BRANCH   1   2
HETATM    2  C           1     -22.059  -4.306  -7.421  0.00  0.00     0.074 C 
BRANCH   2   3
HETATM    3  C           1     -21.988  -4.139  -8.908  0.00  0.00    -0.056 A 
HETATM    4  C           1     -20.796  -4.401  -9.583  0.00  0.00     0.010 A 
HETATM    5  C           1     -20.730  -4.246 -10.967  0.00  0.00     0.037 A 
HETATM    6  C           1     -21.856  -3.829 -11.677  0.00  0.00     0.065 A 
HETATM    7  C           1     -23.047  -3.566 -11.002  0.00  0.00     0.037 A 
HETATM    8  C           1     -23.114  -3.721  -9.617  0.00  0.00     0.010 A 
BRANCH   6   9
HETATM    9  O           1     -21.792  -3.678 -13.023  0.00  0.00    -0.361 OA
HETATM   10  H           1     -22.622  -4.010 -13.402  0.00  0.00     0.217 HD
ENDBRANCH   6   9
ENDBRANCH   2   3
ENDBRANCH   1   2
BRANCH   1  11
HETATM   11  C           1     -19.867  -4.694  -6.340  0.00  0.00     0.197 C 
HETATM   12  O           1     -18.820  -4.516  -6.999  0.00  0.00    -0.646 OA
HETATM   13  O           1     -19.927  -4.316  -5.149  0.00  0.00    -0.646 OA
ENDBRANCH   1  11
BRANCH   1  14
HETATM   14  N           1     -21.684  -6.252  -6.021  0.00  0.00    -0.344 N 
HETATM   15  C           1     -21.035  -7.386  -5.611  0.00  0.00     0.251 C 
HETATM   16  O           1     -19.939  -7.645  -6.049  0.00  0.00    -0.271 OA
HETATM   17  H           1     -22.602  -6.035  -5.656  0.00  0.00     0.163 HD
BRANCH  15  18
HETATM   18  C           1     -21.688  -8.311  -4.614  0.00  0.00     0.302 C 
BRANCH  18  19
HETATM   19  C           1     -21.438  -7.794  -3.204  0.00  0.00     0.153 C 
HETATM   20  C           1     -20.280  -8.562  -2.581  0.00  0.00     0.042 C 
BRANCH  19  21
HETATM   21  O           1     -21.120  -6.430  -3.254  0.00  0.00    -0.393 OA
HETATM   22  H           1     -20.258  -6.363  -3.627  0.00  0.00     0.210 HD
ENDBRANCH  19  21
ENDBRANCH  18  19
BRANCH  18  23
HETATM   23  N           1     -21.105  -9.686  -4.752  0.00  0.00    -0.064 N 
HETATM   24  H           1     -20.341  -9.670  -5.465  0.00  0.00     0.275 HD
HETATM   25  H           1     -20.717  -9.995  -3.832  0.00  0.00     0.275 HD
HETATM   26  H           1     -21.851 -10.352  -5.057  0.00  0.00     0.275 HD
ENDBRANCH  18  23
ENDBRANCH  15  18
ENDBRANCH   1  14
TORSDOF 9
ENDMDL
MODEL 2
REMARK VINA RESULT:      -6.7     13.977     16.262
REMARK  9 active torsions:
REMARK  status: ('A' for Active; 'I' for Inactive)
REMARK    1  A    between atoms: C_2  and  C_5 
REMARK    2  A    between atoms: C_2  and  C_16 
REMARK    3  A    between atoms: C_2  and  N_9 
REMARK    4  A    between atoms: O_4  and  C_14 
REMARK    5  A    between atoms: C_5  and  C_22 
REMARK       I    between atoms: C_7  and  N_9 
REMARK    6  A    between atoms: C_7  and  C_15 
REMARK    7  A    between atoms: C_11  and  C_15 
REMARK    8  A    between atoms: C_11  and  O_12 
REMARK    9  A    between atoms: C_15  and  N_25 
ROOT
HETATM    1  C           1     -36.371  -0.430 -10.509  0.00  0.00     0.189 C 
ENDROOT
BRANCH   1   2
HETATM    2  C           1     -37.568  -0.070 -11.377  0.00  0.00     0.074 C 
BRANCH   2   3
HETATM    3  C           1     -37.142   0.006 -12.811  0.00  0.00    -0.056 A 
HETATM    4  C           1     -35.813   0.284 -13.129  0.00  0.00     0.010 A 
HETATM    5  C           1     -35.417   0.355 -14.464  0.00  0.00     0.037 A 
HETATM    6  C           1     -36.349   0.147 -15.481  0.00  0.00     0.065 A 
HETATM    7  C           1     -37.678  -0.131 -15.162  0.00  0.00     0.037 A 
HETATM    8  C           1     -38.075  -0.202 -13.826  0.00  0.00     0.010 A 
BRANCH   6   9
HETATM    9  O           1     -35.964   0.215 -16.779  0.00  0.00    -0.361 OA
HETATM   10  H           1     -36.691  -0.124 -17.326  0.00  0.00     0.217 HD
ENDBRANCH   6   9
ENDBRANCH   2   3
ENDBRANCH   1   2
BRANCH   1  11
HETATM   11  C           1     -36.691  -0.142  -9.063  0.00  0.00     0.197 C 
HETATM   12  O           1     -35.798   0.282  -8.298  0.00  0.00    -0.646 OA
HETATM   13  O           1     -37.849  -0.326  -8.631  0.00  0.00    -0.646 OA
ENDBRANCH   1  11
BRANCH   1  14
HETATM   14  N           1     -36.068  -1.839 -10.664  0.00  0.00    -0.344 N 
HETATM   15  C           1     -34.767  -2.252 -10.784  0.00  0.00     0.251 C 
HETATM   16  O           1     -33.873  -1.440 -10.760  0.00  0.00    -0.271 OA
HETATM   17  H           1     -36.818  -2.518 -10.685  0.00  0.00     0.163 HD
BRANCH  15  18
HETATM   18  C           1     -34.453  -3.719 -10.945  0.00  0.00     0.302 C 
BRANCH  18  19
HETATM   19  C           1     -33.826  -3.956 -12.312  0.00  0.00     0.153 C 
HETATM   20  C           1     -32.417  -4.503 -12.135  0.00  0.00     0.042 C 
BRANCH  19  21
HETATM   21  O           1     -34.599  -4.881 -13.028  0.00  0.00    -0.393 OA
HETATM   22  H           1     -34.190  -4.986 -13.871  0.00  0.00     0.210 HD
ENDBRANCH  19  21
ENDBRANCH  18  19
BRANCH  18  23
HETATM   23  N           1     -35.719  -4.515 -10.831  0.00  0.00    -0.064 N 
HETATM   24  H           1     -35.488  -5.533 -10.789  0.00  0.00     0.275 HD
HETATM   25  H           1     -36.230  -4.236  -9.963  0.00  0.00     0.275 HD
HETATM   26  H           1     -36.324  -4.330 -11.664  0.00  0.00     0.275 HD
ENDBRANCH  18  23
ENDBRANCH  15  18
ENDBRANCH   1  14
TORSDOF 9
ENDMDL
MODEL 3
REMARK VINA RESULT:      -6.6      1.599      2.122
REMARK  9 active torsions:
REMARK  status: ('A' for Active; 'I' for Inactive)
REMARK    1  A    between atoms: C_2  and  C_5 
REMARK    2  A    between atoms: C_2  and  C_16 
REMARK    3  A    between atoms: C_2  and  N_9 
REMARK    4  A    between atoms: O_4  and  C_14 
REMARK    5  A    between atoms: C_5  and  C_22 
REMARK       I    between atoms: C_7  and  N_9 
REMARK    6  A    between atoms: C_7  and  C_15 
REMARK    7  A    between atoms: C_11  and  C_15 
REMARK    8  A    between atoms: C_11  and  O_12 
REMARK    9  A    between atoms: C_15  and  N_25 
ROOT
HETATM    1  C           1     -21.079  -5.349  -6.555  0.00  0.00     0.189 C 
ENDROOT
BRANCH   1   2
HETATM    2  C           1     -21.592  -4.003  -7.047  0.00  0.00     0.074 C 
BRANCH   2   3
HETATM    3  C           1     -22.114  -4.148  -8.443  0.00  0.00    -0.056 A 
HETATM    4  C           1     -23.478  -4.342  -8.661  0.00  0.00     0.010 A 
HETATM    5  C           1     -23.964  -4.476  -9.961  0.00  0.00     0.037 A 
HETATM    6  C           1     -23.086  -4.417 -11.044  0.00  0.00     0.065 A 
HETATM    7  C           1     -21.723  -4.224 -10.825  0.00  0.00     0.037 A 
HETATM    8  C           1     -21.236  -4.089  -9.525  0.00  0.00     0.010 A 
BRANCH   6   9
HETATM    9  O           1     -23.558  -4.548 -12.308  0.00  0.00    -0.361 OA
HETATM   10  H           1     -23.740  -5.489 -12.465  0.00  0.00     0.217 HD
ENDBRANCH   6   9
ENDBRANCH   2   3
ENDBRANCH   1   2
BRANCH   1  11
HETATM   11  C           1     -19.674  -5.569  -7.060  0.00  0.00     0.197 C 
HETATM   12  O           1     -19.299  -6.716  -7.386  0.00  0.00    -0.646 OA
HETATM   13  O           1     -18.885  -4.603  -7.154  0.00  0.00    -0.646 OA
ENDBRANCH   1  11
BRANCH   1  14
HETATM   14  N           1     -21.077  -5.365  -5.105  0.00  0.00    -0.344 N 
HETATM   15  C           1     -21.348  -6.526  -4.432  0.00  0.00     0.251 C 
HETATM   16  O           1     -21.589  -7.538  -5.047  0.00  0.00    -0.271 OA
HETATM   17  H           1     -20.876  -4.517  -4.591  0.00  0.00     0.163 HD
BRANCH  15  18
HETATM   18  C           1     -21.346  -6.541  -2.922  0.00  0.00     0.302 C 
BRANCH  18  19
HETATM   19  C           1     -21.388  -7.981  -2.429  0.00  0.00     0.153 C 
HETATM   20  C           1     -19.973  -8.456  -2.133  0.00  0.00     0.042 C 
BRANCH  19  21
HETATM   21  O           1     -22.160  -8.054  -1.261  0.00  0.00    -0.393 OA
HETATM   22  H           1     -21.905  -8.844  -0.814  0.00  0.00     0.210 HD
ENDBRANCH  19  21
ENDBRANCH  18  19
BRANCH  18  23
HETATM   23  N           1     -22.550  -5.804  -2.415  0.00  0.00    -0.064 N 
HETATM   24  H           1     -22.547  -5.809  -1.370  0.00  0.00     0.275 HD
HETATM   25  H           1     -22.527  -4.818  -2.761  0.00  0.00     0.275 HD
HETATM   26  H           1     -23.418  -6.273  -2.763  0.00  0.00     0.275 HD
ENDBRANCH  18  23
ENDBRANCH  15  18
ENDBRANCH   1  14
TORSDOF 9
ENDMDL
MODEL 4
REMARK VINA RESULT:      -6.5      2.302      7.312
REMARK  9 active torsions:
REMARK  status: ('A' for Active; 'I' for Inactive)
REMARK    1  A    between atoms: C_2  and  C_5 
REMARK    2  A    between atoms: C_2  and  C_16 
REMARK    3  A    between atoms: C_2  and  N_9 
REMARK    4  A    between atoms: O_4  and  C_14 
REMARK    5  A    between atoms: C_5  and  C_22 
REMARK       I    between atoms: C_7  and  N_9 
REMARK    6  A    between atoms: C_7  and  C_15 
REMARK    7  A    between atoms: C_11  and  C_15 
REMARK    8  A    between atoms: C_11  and  O_12 
REMARK    9  A    between atoms: C_15  and  N_25 
ROOT
HETATM    1  C           1     -20.108  -7.498  -4.945  0.00  0.00     0.189 C 
ENDROOT
BRANCH   1   2
HETATM    2  C           1     -21.439  -8.150  -4.597  0.00  0.00     0.074 C 
BRANCH   2   3
HETATM    3  C           1     -21.682  -8.037  -3.124  0.00  0.00    -0.056 A 
HETATM    4  C           1     -21.942  -6.791  -2.554  0.00  0.00     0.010 A 
HETATM    5  C           1     -22.168  -6.686  -1.182  0.00  0.00     0.037 A 
HETATM    6  C           1     -22.134  -7.826  -0.379  0.00  0.00     0.065 A 
HETATM    7  C           1     -21.873  -9.072  -0.950  0.00  0.00     0.037 A 
HETATM    8  C           1     -21.647  -9.178  -2.323  0.00  0.00     0.010 A 
BRANCH   6   9
HETATM    9  O           1     -22.353  -7.725   0.954  0.00  0.00    -0.361 OA
HETATM   10  H           1     -23.113  -8.287   1.177  0.00  0.00     0.217 HD
ENDBRANCH   6   9
ENDBRANCH   2   3
ENDBRANCH   1   2
BRANCH   1  11
HETATM   11  C           1     -19.070  -8.567  -5.182  0.00  0.00     0.197 C 
HETATM   12  O           1     -18.698  -9.298  -4.238  0.00  0.00    -0.646 OA
HETATM   13  O           1     -18.582  -8.722  -6.323  0.00  0.00    -0.646 OA
ENDBRANCH   1  11
BRANCH   1  14
HETATM   14  N           1     -20.260  -6.698  -6.144  0.00  0.00    -0.344 N 
HETATM   15  C           1     -20.350  -5.335  -6.053  0.00  0.00     0.251 C 
HETATM   16  O           1     -20.302  -4.799  -4.971  0.00  0.00    -0.271 OA
HETATM   17  H           1     -20.301  -7.148  -7.050  0.00  0.00     0.163 HD
BRANCH  15  18
HETATM   18  C           1     -20.508  -4.503  -7.302  0.00  0.00     0.302 C 
BRANCH  18  19
HETATM   19  C           1     -21.962  -4.076  -7.446  0.00  0.00     0.153 C 
HETATM   20  C           1     -22.430  -4.344  -8.870  0.00  0.00     0.042 C 
BRANCH  19  21
HETATM   21  O           1     -22.756  -4.804  -6.549  0.00  0.00    -0.393 OA
HETATM   22  H           1     -22.581  -5.716  -6.707  0.00  0.00     0.210 HD
ENDBRANCH  19  21
ENDBRANCH  18  19
BRANCH  18  23
HETATM   23  N           1     -20.106  -5.317  -8.496  0.00  0.00    -0.064 N 
HETATM   24  H           1     -20.936  -5.467  -9.112  0.00  0.00     0.275 HD
HETATM   25  H           1     -19.363  -4.810  -9.029  0.00  0.00     0.275 HD
HETATM   26  H           1     -19.735  -6.242  -8.179  0.00  0.00     0.275 HD
ENDBRANCH  18  23
ENDBRANCH  15  18
ENDBRANCH   1  14
TORSDOF 9
ENDMDL
MODEL 5
REMARK VINA RESULT:      -6.4     13.910     15.426
REMARK  9 active torsions:
REMARK  status: ('A' for Active; 'I' for Inactive)
REMARK    1  A    between atoms: C_2  and  C_5 
REMARK    2  A    between atoms: C_2  and  C_16 
REMARK    3  A    between atoms: C_2  and  N_9 
REMARK    4  A    between atoms: O_4  and  C_14 
REMARK    5  A    between atoms: C_5  and  C_22 
REMARK       I    between atoms: C_7  and  N_9 
REMARK    6  A    between atoms: C_7  and  C_15 
REMARK    7  A    between atoms: C_11  and  C_15 
REMARK    8  A    between atoms: C_11  and  O_12 
REMARK    9  A    between atoms: C_15  and  N_25 
ROOT
HETATM    1  C           1     -35.143  -2.002 -11.558  0.00  0.00     0.189 C 
ENDROOT
BRANCH   1   2
HETATM    2  C           1     -36.389  -1.144 -11.731  0.00  0.00     0.074 C 
BRANCH   2   3
HETATM    3  C           1     -36.271  -0.340 -12.989  0.00  0.00    -0.056 A 
HETATM    4  C           1     -35.112   0.394 -13.241  0.00  0.00     0.010 A 
HETATM    5  C           1     -35.003   1.144 -14.412  0.00  0.00     0.037 A 
HETATM    6  C           1     -36.051   1.159 -15.331  0.00  0.00     0.065 A 
HETATM    7  C           1     -37.210   0.426 -15.078  0.00  0.00     0.037 A 
HETATM    8  C           1     -37.321  -0.324 -13.907  0.00  0.00     0.010 A 
BRANCH   6   9
HETATM    9  O           1     -35.945   1.888 -16.469  0.00  0.00    -0.361 OA
HETATM   10  H           1     -36.684   1.645 -17.051  0.00  0.00     0.217 HD
ENDBRANCH   6   9
ENDBRANCH   2   3
ENDBRANCH   1   2
BRANCH   1  11
HETATM   11  C           1     -34.359  -1.515 -10.365  0.00  0.00     0.197 C 
HETATM   12  O           1     -34.958  -1.080  -9.358  0.00  0.00    -0.646 OA
HETATM   13  O           1     -33.109  -1.547 -10.383  0.00  0.00    -0.646 OA
ENDBRANCH   1  11
BRANCH   1  14
HETATM   14  N           1     -35.532  -3.383 -11.349  0.00  0.00    -0.344 N 
HETATM   15  C           1     -34.738  -4.397 -11.814  0.00  0.00     0.251 C 
HETATM   16  O           1     -33.713  -4.140 -12.399  0.00  0.00    -0.271 OA
HETATM   17  H           1     -36.392  -3.597 -10.859  0.00  0.00     0.163 HD
BRANCH  15  18
HETATM   18  C           1     -35.144  -5.834 -11.595  0.00  0.00     0.302 C 
BRANCH  18  19
HETATM   19  C           1     -34.196  -6.483 -10.596  0.00  0.00     0.153 C 
HETATM   20  C           1     -34.761  -7.829 -10.164  0.00  0.00     0.042 C 
BRANCH  19  21
HETATM   21  O           1     -32.943  -6.672 -11.194  0.00  0.00    -0.393 OA
HETATM   22  H           1     -33.066  -7.284 -11.900  0.00  0.00     0.210 HD
ENDBRANCH  19  21
ENDBRANCH  18  19
BRANCH  18  23
HETATM   23  N           1     -35.079  -6.573 -12.899  0.00  0.00    -0.064 N 
HETATM   24  H           1     -35.829  -7.300 -12.925  0.00  0.00     0.275 HD
HETATM   25  H           1     -35.215  -5.902 -13.688  0.00  0.00     0.275 HD
HETATM   26  H           1     -34.144  -7.034 -12.992  0.00  0.00     0.275 HD
ENDBRANCH  18  23
ENDBRANCH  15  18
ENDBRANCH   1  14
TORSDOF 9
ENDMDL
MODEL 6
REMARK VINA RESULT:      -6.3     10.538     13.794
REMARK  9 active torsions:
REMARK  status: ('A' for Active; 'I' for Inactive)
REMARK    1  A    between atoms: C_2  and  C_5 
REMARK    2  A    between atoms: C_2  and  C_16 
REMARK    3  A    between atoms: C_2  and  N_9 
REMARK    4  A    between atoms: O_4  and  C_14 
REMARK    5  A    between atoms: C_5  and  C_22 
REMARK       I    between atoms: C_7  and  N_9 
REMARK    6  A    between atoms: C_7  and  C_15 
REMARK    7  A    between atoms: C_11  and  C_15 
REMARK    8  A    between atoms: C_11  and  O_12 
REMARK    9  A    between atoms: C_15  and  N_25 
ROOT
HETATM    1  C           1     -26.731  -6.428 -16.794  0.00  0.00     0.189 C 
ENDROOT
BRANCH   1   2
HETATM    2  C           1     -27.764  -7.428 -16.293  0.00  0.00     0.074 C 
BRANCH   2   3
HETATM    3  C           1     -29.139  -6.865 -16.484  0.00  0.00    -0.056 A 
HETATM    4  C           1     -29.545  -5.752 -15.747  0.00  0.00     0.010 A 
HETATM    5  C           1     -30.825  -5.228 -15.926  0.00  0.00     0.037 A 
HETATM    6  C           1     -31.699  -5.816 -16.841  0.00  0.00     0.065 A 
HETATM    7  C           1     -31.292  -6.929 -17.577  0.00  0.00     0.037 A 
HETATM    8  C           1     -30.011  -7.453 -17.399  0.00  0.00     0.010 A 
BRANCH   6   9
HETATM    9  O           1     -32.943  -5.307 -17.014  0.00  0.00    -0.361 OA
HETATM   10  H           1     -33.018  -4.506 -16.470  0.00  0.00     0.217 HD
ENDBRANCH   6   9
ENDBRANCH   2   3
ENDBRANCH   1   2
BRANCH   1  11
HETATM   11  C           1     -25.524  -6.456 -15.890  0.00  0.00     0.197 C 
HETATM   12  O           1     -25.122  -7.541 -15.416  0.00  0.00    -0.646 OA
HETATM   13  O           1     -24.924  -5.394 -15.615  0.00  0.00    -0.646 OA
ENDBRANCH   1  11
BRANCH   1  14
HETATM   14  N           1     -26.333  -6.780 -18.143  0.00  0.00    -0.344 N 
HETATM   15  C           1     -26.968  -6.213 -19.215  0.00  0.00     0.251 C 
HETATM   16  O           1     -27.861  -5.419 -19.037  0.00  0.00    -0.271 OA
HETATM   17  H           1     -25.585  -7.446 -18.291  0.00  0.00     0.163 HD
BRANCH  15  18
HETATM   18  C           1     -26.552  -6.580 -20.619  0.00  0.00     0.302 C 
BRANCH  18  19
HETATM   19  C           1     -26.428  -8.093 -20.732  0.00  0.00     0.153 C 
HETATM   20  C           1     -27.771  -8.683 -21.140  0.00  0.00     0.042 C 
BRANCH  19  21
HETATM   21  O           1     -25.465  -8.413 -21.699  0.00  0.00    -0.393 OA
HETATM   22  H           1     -25.765  -8.050 -22.515  0.00  0.00     0.210 HD
ENDBRANCH  19  21
ENDBRANCH  18  19
BRANCH  18  23
HETATM   23  N           1     -25.229  -5.945 -20.929  0.00  0.00    -0.064 N 
HETATM   24  H           1     -24.716  -5.755 -20.038  0.00  0.00     0.275 HD
HETATM   25  H           1     -24.664  -6.590 -21.526  0.00  0.00     0.275 HD
HETATM   26  H           1     -25.384  -5.046 -21.439  0.00  0.00     0.275 HD
ENDBRANCH  18  23
ENDBRANCH  15  18
ENDBRANCH   1  14
TORSDOF 9
ENDMDL
MODEL 7
REMARK VINA RESULT:      -6.0      5.432      8.813
REMARK  9 active torsions:
REMARK  status: ('A' for Active; 'I' for Inactive)
REMARK    1  A    between atoms: C_2  and  C_5 
REMARK    2  A    between atoms: C_2  and  C_16 
REMARK    3  A    between atoms: C_2  and  N_9 
REMARK    4  A    between atoms: O_4  and  C_14 
REMARK    5  A    between atoms: C_5  and  C_22 
REMARK       I    between atoms: C_7  and  N_9 
REMARK    6  A    between atoms: C_7  and  C_15 
REMARK    7  A    between atoms: C_11  and  C_15 
REMARK    8  A    between atoms: C_11  and  O_12 
REMARK    9  A    between atoms: C_15  and  N_25 
ROOT
HETATM    1  C           1     -21.846  -8.165  -2.021  0.00  0.00     0.189 C 
ENDROOT
BRANCH   1   2
HETATM    2  C           1     -21.419  -8.484  -0.595  0.00  0.00     0.074 C 
BRANCH   2   3
HETATM    3  C           1     -21.961  -9.822  -0.198  0.00  0.00    -0.056 A 
HETATM    4  C           1     -23.312 -10.111  -0.386  0.00  0.00     0.010 A 
HETATM    5  C           1     -23.817 -11.357  -0.017  0.00  0.00     0.037 A 
HETATM    6  C           1     -22.970 -12.315   0.542  0.00  0.00     0.065 A 
HETATM    7  C           1     -21.619 -12.025   0.731  0.00  0.00     0.037 A 
HETATM    8  C           1     -21.114 -10.778   0.361  0.00  0.00     0.010 A 
BRANCH   6   9
HETATM    9  O           1     -23.460 -13.527   0.901  0.00  0.00    -0.361 OA
HETATM   10  H           1     -23.889 -13.432   1.768  0.00  0.00     0.217 HD
ENDBRANCH   6   9
ENDBRANCH   2   3
ENDBRANCH   1   2
BRANCH   1  11
HETATM   11  C           1     -22.002  -6.673  -2.179  0.00  0.00     0.197 C 
HETATM   12  O           1     -21.778  -6.135  -3.285  0.00  0.00    -0.646 OA
HETATM   13  O           1     -22.356  -5.975  -1.204  0.00  0.00    -0.646 OA
ENDBRANCH   1  11
BRANCH   1  14
HETATM   14  N           1     -20.838  -8.645  -2.945  0.00  0.00    -0.344 N 
HETATM   15  C           1     -21.134  -9.659  -3.817  0.00  0.00     0.251 C 
HETATM   16  O           1     -22.236 -10.154  -3.814  0.00  0.00    -0.271 OA
HETATM   17  H           1     -19.914  -8.230  -2.947  0.00  0.00     0.163 HD
BRANCH  15  18
HETATM   18  C           1     -20.084 -10.158  -4.779  0.00  0.00     0.302 C 
BRANCH  18  19
HETATM   19  C           1     -19.068  -9.054  -5.039  0.00  0.00     0.153 C 
HETATM   20  C           1     -17.915  -9.610  -5.863  0.00  0.00     0.042 C 
BRANCH  19  21
HETATM   21  O           1     -19.682  -8.008  -5.743  0.00  0.00    -0.393 OA
HETATM   22  H           1     -20.612  -8.156  -5.696  0.00  0.00     0.210 HD
ENDBRANCH  19  21
ENDBRANCH  18  19
BRANCH  18  23
HETATM   23  N           1     -20.737 -10.550  -6.071  0.00  0.00    -0.064 N 
HETATM   24  H           1     -20.881 -11.585  -6.089  0.00  0.00     0.275 HD
HETATM   25  H           1     -21.661 -10.067  -6.155  0.00  0.00     0.275 HD
HETATM   26  H           1     -20.125 -10.269  -6.871  0.00  0.00     0.275 HD
ENDBRANCH  18  23
ENDBRANCH  15  18
ENDBRANCH   1  14
TORSDOF 9
ENDMDL
MODEL 8
REMARK VINA RESULT:      -6.0      3.983      9.339
REMARK  9 active torsions:
REMARK  status: ('A' for Active; 'I' for Inactive)
REMARK    1  A    between atoms: C_2  and  C_5 
REMARK    2  A    between atoms: C_2  and  C_16 
REMARK    3  A    between atoms: C_2  and  N_9 
REMARK    4  A    between atoms: O_4  and  C_14 
REMARK    5  A    between atoms: C_5  and  C_22 
REMARK       I    between atoms: C_7  and  N_9 
REMARK    6  A    between atoms: C_7  and  C_15 
REMARK    7  A    between atoms: C_11  and  C_15 
REMARK    8  A    between atoms: C_11  and  O_12 
REMARK    9  A    between atoms: C_15  and  N_25 
ROOT
HETATM    1  C           1     -21.907  -8.610  -1.209  0.00  0.00     0.189 C 
ENDROOT
BRANCH   1   2
HETATM    2  C           1     -21.144  -9.423  -0.173  0.00  0.00     0.074 C 
BRANCH   2   3
HETATM    3  C           1     -21.837 -10.732   0.045  0.00  0.00    -0.056 A 
HETATM    4  C           1     -23.082 -10.967  -0.538  0.00  0.00     0.010 A 
HETATM    5  C           1     -23.728 -12.187  -0.335  0.00  0.00     0.037 A 
HETATM    6  C           1     -23.129 -13.172   0.451  0.00  0.00     0.065 A 
HETATM    7  C           1     -21.884 -12.935   1.034  0.00  0.00     0.037 A 
HETATM    8  C           1     -21.238 -11.716   0.831  0.00  0.00     0.010 A 
BRANCH   6   9
HETATM    9  O           1     -23.756 -14.357   0.648  0.00  0.00    -0.361 OA
HETATM   10  H           1     -24.030 -14.400   1.579  0.00  0.00     0.217 HD
ENDBRANCH   6   9
ENDBRANCH   2   3
ENDBRANCH   1   2
BRANCH   1  11
HETATM   11  C           1     -22.609  -7.460  -0.530  0.00  0.00     0.197 C 
HETATM   12  O           1     -23.248  -7.654   0.527  0.00  0.00    -0.646 OA
HETATM   13  O           1     -22.551  -6.313  -1.024  0.00  0.00    -0.646 OA
ENDBRANCH   1  11
BRANCH   1  14
HETATM   14  N           1     -20.980  -8.094  -2.197  0.00  0.00    -0.344 N 
HETATM   15  C           1     -21.167  -8.373  -3.524  0.00  0.00     0.251 C 
HETATM   16  O           1     -22.106  -9.050  -3.872  0.00  0.00    -0.271 OA
HETATM   17  H           1     -20.194  -7.527  -1.905  0.00  0.00     0.163 HD
BRANCH  15  18
HETATM   18  C           1     -20.202  -7.835  -4.552  0.00  0.00     0.302 C 
BRANCH  18  19
HETATM   19  C           1     -20.627  -6.432  -4.962  0.00  0.00     0.153 C 
HETATM   20  C           1     -21.101  -6.449  -6.409  0.00  0.00     0.042 C 
BRANCH  19  21
HETATM   21  O           1     -21.670  -5.997  -4.134  0.00  0.00    -0.393 OA
HETATM   22  H           1     -21.978  -6.752  -3.662  0.00  0.00     0.210 HD
ENDBRANCH  19  21
ENDBRANCH  18  19
BRANCH  18  23
HETATM   23  N           1     -20.206  -8.730  -5.756  0.00  0.00    -0.064 N 
HETATM   24  H           1     -21.154  -9.153  -5.873  0.00  0.00     0.275 HD
HETATM   25  H           1     -19.964  -8.172  -6.606  0.00  0.00     0.275 HD
HETATM   26  H           1     -19.499  -9.490  -5.627  0.00  0.00     0.275 HD
ENDBRANCH  18  23
ENDBRANCH  15  18
ENDBRANCH   1  14
TORSDOF 9
ENDMDL
MODEL 9
REMARK VINA RESULT:      -6.0      2.531      4.235
REMARK  9 active torsions:
REMARK  status: ('A' for Active; 'I' for Inactive)
REMARK    1  A    between atoms: C_2  and  C_5 
REMARK    2  A    between atoms: C_2  and  C_16 
REMARK    3  A    between atoms: C_2  and  N_9 
REMARK    4  A    between atoms: O_4  and  C_14 
REMARK    5  A    between atoms: C_5  and  C_22 
REMARK       I    between atoms: C_7  and  N_9 
REMARK    6  A    between atoms: C_7  and  C_15 
REMARK    7  A    between atoms: C_11  and  C_15 
REMARK    8  A    between atoms: C_11  and  O_12 
REMARK    9  A    between atoms: C_15  and  N_25 
ROOT
HETATM    1  C           1     -21.339  -7.371  -3.847  0.00  0.00     0.189 C 
ENDROOT
BRANCH   1   2
HETATM    2  C           1     -22.345  -6.797  -4.835  0.00  0.00     0.074 C 
BRANCH   2   3
HETATM    3  C           1     -21.629  -5.948  -5.840  0.00  0.00    -0.056 A 
HETATM    4  C           1     -22.334  -5.001  -6.582  0.00  0.00     0.010 A 
HETATM    5  C           1     -21.668  -4.211  -7.518  0.00  0.00     0.037 A 
HETATM    6  C           1     -20.295  -4.367  -7.712  0.00  0.00     0.065 A 
HETATM    7  C           1     -19.590  -5.315  -6.970  0.00  0.00     0.037 A 
HETATM    8  C           1     -20.257  -6.106  -6.034  0.00  0.00     0.010 A 
BRANCH   6   9
HETATM    9  O           1     -19.647  -3.599  -8.622  0.00  0.00    -0.361 OA
HETATM   10  H           1     -19.952  -3.860  -9.507  0.00  0.00     0.217 HD
ENDBRANCH   6   9
ENDBRANCH   2   3
ENDBRANCH   1   2
BRANCH   1  11
HETATM   11  C           1     -21.648  -6.863  -2.461  0.00  0.00     0.197 C 
HETATM   12  O           1     -21.137  -7.417  -1.463  0.00  0.00    -0.646 OA
HETATM   13  O           1     -22.415  -5.887  -2.309  0.00  0.00    -0.646 OA
ENDBRANCH   1  11
BRANCH   1  14
HETATM   14  N           1     -21.423  -8.819  -3.860  0.00  0.00    -0.344 N 
HETATM   15  C           1     -20.306  -9.567  -4.119  0.00  0.00     0.251 C 
HETATM   16  O           1     -19.251  -9.021  -4.339  0.00  0.00    -0.271 OA
HETATM   17  H           1     -22.307  -9.276  -3.677  0.00  0.00     0.163 HD
BRANCH  15  18
HETATM   18  C           1     -20.394 -11.074  -4.132  0.00  0.00     0.302 C 
BRANCH  18  19
HETATM   19  C           1     -20.891 -11.542  -5.493  0.00  0.00     0.153 C 
HETATM   20  C           1     -22.218 -12.269  -5.324  0.00  0.00     0.042 C 
BRANCH  19  21
HETATM   21  O           1     -21.070 -10.434  -6.333  0.00  0.00    -0.393 OA
HETATM   22  H           1     -21.098  -9.672  -5.779  0.00  0.00     0.210 HD
ENDBRANCH  19  21
ENDBRANCH  18  19
BRANCH  18  23
HETATM   23  N           1     -21.349 -11.527  -3.068  0.00  0.00    -0.064 N 
HETATM   24  H           1     -21.890 -12.352  -3.413  0.00  0.00     0.275 HD
HETATM   25  H           1     -20.815 -11.792  -2.210  0.00  0.00     0.275 HD
HETATM   26  H           1     -22.010 -10.749  -2.839  0.00  0.00     0.275 HD
ENDBRANCH  18  23
ENDBRANCH  15  18
ENDBRANCH   1  14
TORSDOF 9
ENDMDL
