MODEL 1
REMARK VINA RESULT:      -6.0      0.000      0.000
REMARK  8 active torsions:
REMARK  status: ('A' for Active; 'I' for Inactive)
REMARK    1  A    between atoms: N_3  and  C_19 
REMARK    2  A    between atoms: C_4  and  C_11 
REMARK    3  A    between atoms: C_4  and  S_17 
REMARK    4  A    between atoms: C_5  and  C_6 
REMARK    5  A    between atoms: C_6  and  C_15 
REMARK    6  A    between atoms: C_6  and  N_18 
REMARK    7  A    between atoms: C_11  and  C_19 
REMARK       I    between atoms: C_14  and  N_18 
REMARK    8  A    between atoms: C_14  and  C_19 
ROOT
HETATM    1  H           1     -22.025  -5.709  -9.270  0.00  0.00     0.163 HD
HETATM    2  O           1     -21.636  -3.304  -7.293  0.00  0.00    -0.271 OA
HETATM    3  C           1     -21.590  -4.444  -7.692  0.00  0.00     0.249 C 
HETATM    4  N           1     -22.064  -4.755  -8.937  0.00  0.00    -0.344 N 
ENDROOT
BRANCH   3   5
HETATM    5  C           1     -21.009  -5.526  -6.814  0.00  0.00     0.275 C 
BRANCH   5   6
HETATM    6  N           1     -19.884  -6.206  -7.537  0.00  0.00    -0.066 N 
HETATM    7  H           1     -19.368  -6.826  -6.873  0.00  0.00     0.275 HD
HETATM    8  H           1     -19.230  -5.487  -7.920  0.00  0.00     0.275 HD
HETATM    9  H           1     -20.270  -6.779  -8.321  0.00  0.00     0.275 HD
ENDBRANCH   5   6
BRANCH   5  10
HETATM   10  C           1     -20.484  -4.909  -5.525  0.00  0.00     0.053 C 
BRANCH  10  11
HETATM   11  C           1     -20.868  -5.791  -4.345  0.00  0.00     0.076 C 
BRANCH  11  12
HETATM   12  S           1     -22.293  -6.821  -4.797  0.00  0.00    -0.173 SA
HETATM   13  C           1     -21.549  -8.408  -4.327  0.00  0.00     0.089 C 
ENDBRANCH  11  12
ENDBRANCH  10  11
ENDBRANCH   5  10
ENDBRANCH   3   5
BRANCH   4  14
HETATM   14  C           1     -22.621  -3.715  -9.780  0.00  0.00     0.189 C 
BRANCH  14  15
HETATM   15  C           1     -24.126  -3.829  -9.790  0.00  0.00     0.197 C 
HETATM   16  O           1     -24.668  -4.916 -10.085  0.00  0.00    -0.646 OA
HETATM   17  O           1     -24.830  -2.837  -9.503  0.00  0.00    -0.646 OA
ENDBRANCH  14  15
BRANCH  14  18
HETATM   18  C           1     -22.091  -3.873 -11.199  0.00  0.00     0.010 C 
HETATM   19  C           1     -22.556  -2.697 -12.048  0.00  0.00     0.012 C 
HETATM   20  C           1     -20.568  -3.908 -11.170  0.00  0.00     0.012 C 
ENDBRANCH  14  18
ENDBRANCH   4  14
TORSDOF 8
ENDMDL
MODEL 2
REMARK VINA RESULT:      -5.6     12.701     14.957
REMARK  8 active torsions:
REMARK  status: ('A' for Active; 'I' for Inactive)
REMARK    1  A    between atoms: N_3  and  C_19 
REMARK    2  A    between atoms: C_4  and  C_11 
REMARK    3  A    between atoms: C_4  and  S_17 
REMARK    4  A    between atoms: C_5  and  C_6 
REMARK    5  A    between atoms: C_6  and  C_15 
REMARK    6  A    between atoms: C_6  and  N_18 
REMARK    7  A    between atoms: C_11  and  C_19 
REMARK       I    between atoms: C_14  and  N_18 
REMARK    8  A    between atoms: C_14  and  C_19 
ROOT
HETATM    1  H           1     -36.149  -2.433 -11.844  0.00  0.00     0.163 HD
HETATM    2  O           1     -34.726  -0.355 -13.713  0.00  0.00    -0.271 OA
HETATM    3  C           1     -35.586  -0.811 -12.998  0.00  0.00     0.249 C 
HETATM    4  N           1     -35.429  -2.052 -12.443  0.00  0.00    -0.344 N 
ENDROOT
BRANCH   3   5
HETATM    5  C           1     -36.835  -0.011 -12.717  0.00  0.00     0.275 C 
BRANCH   5   6
HETATM    6  N           1     -37.837  -0.249 -13.807  0.00  0.00    -0.066 N 
HETATM    7  H           1     -37.571   0.307 -14.651  0.00  0.00     0.275 HD
HETATM    8  H           1     -38.785   0.045 -13.481  0.00  0.00     0.275 HD
HETATM    9  H           1     -37.851  -1.266 -14.051  0.00  0.00     0.275 HD
ENDBRANCH   5   6
BRANCH   5  10
HETATM   10  C           1     -37.426  -0.443 -11.382  0.00  0.00     0.053 C 
BRANCH  10  11
HETATM   11  C           1     -36.962   0.511 -10.288  0.00  0.00     0.076 C 
BRANCH  11  12
HETATM   12  S           1     -37.240  -0.248  -8.664  0.00  0.00    -0.173 SA
HETATM   13  C           1     -36.891   1.240  -7.686  0.00  0.00     0.089 C 
ENDBRANCH  11  12
ENDBRANCH  10  11
ENDBRANCH   5  10
ENDBRANCH   3   5
BRANCH   4  14
HETATM   14  C           1     -34.229  -2.819 -12.713  0.00  0.00     0.189 C 
BRANCH  14  15
HETATM   15  C           1     -34.548  -3.924 -13.689  0.00  0.00     0.197 C 
HETATM   16  O           1     -34.271  -3.787 -14.901  0.00  0.00    -0.646 OA
HETATM   17  O           1     -35.089  -4.977 -13.288  0.00  0.00    -0.646 OA
ENDBRANCH  14  15
BRANCH  14  18
HETATM   18  C           1     -33.710  -3.424 -11.414  0.00  0.00     0.010 C 
HETATM   19  C           1     -32.394  -4.143 -11.680  0.00  0.00     0.012 C 
HETATM   20  C           1     -33.487  -2.317 -10.393  0.00  0.00     0.012 C 
ENDBRANCH  14  18
ENDBRANCH   4  14
TORSDOF 8
ENDMDL
MODEL 3
REMARK VINA RESULT:      -5.0     10.600     12.137
REMARK  8 active torsions:
REMARK  status: ('A' for Active; 'I' for Inactive)
REMARK    1  A    between atoms: N_3  and  C_19 
REMARK    2  A    between atoms: C_4  and  C_11 
REMARK    3  A    between atoms: C_4  and  S_17 
REMARK    4  A    between atoms: C_5  and  C_6 
REMARK    5  A    between atoms: C_6  and  C_15 
REMARK    6  A    between atoms: C_6  and  N_18 
REMARK    7  A    between atoms: C_11  and  C_19 
REMARK       I    between atoms: C_14  and  N_18 
REMARK    8  A    between atoms: C_14  and  C_19 
ROOT
HETATM    1  H           1     -27.410  -7.651 -18.364  0.00  0.00     0.163 HD
HETATM    2  O           1     -26.177  -5.408 -16.549  0.00  0.00    -0.271 OA
HETATM    3  C           1     -26.211  -6.271 -17.394  0.00  0.00     0.249 C 
HETATM    4  N           1     -27.382  -6.928 -17.657  0.00  0.00    -0.344 N 
ENDROOT
BRANCH   3   5
HETATM    5  C           1     -24.960  -6.624 -18.161  0.00  0.00     0.275 C 
BRANCH   5   6
HETATM    6  N           1     -24.262  -7.765 -17.481  0.00  0.00    -0.066 N 
HETATM    7  H           1     -23.448  -8.070 -18.061  0.00  0.00     0.275 HD
HETATM    8  H           1     -24.927  -8.563 -17.367  0.00  0.00     0.275 HD
HETATM    9  H           1     -23.924  -7.456 -16.542  0.00  0.00     0.275 HD
ENDBRANCH   5   6
BRANCH   5  10
HETATM   10  C           1     -25.330  -7.030 -19.581  0.00  0.00     0.053 C 
BRANCH  10  11
HETATM   11  C           1     -24.158  -7.760 -20.224  0.00  0.00     0.076 C 
BRANCH  11  12
HETATM   12  S           1     -24.384  -7.804 -22.024  0.00  0.00    -0.173 SA
HETATM   13  C           1     -22.758  -8.509 -22.412  0.00  0.00     0.089 C 
ENDBRANCH  11  12
ENDBRANCH  10  11
ENDBRANCH   5  10
ENDBRANCH   3   5
BRANCH   4  14
HETATM   14  C           1     -28.584  -6.588 -16.920  0.00  0.00     0.189 C 
BRANCH  14  15
HETATM   15  C           1     -28.366  -6.856 -15.451  0.00  0.00     0.197 C 
HETATM   16  O           1     -27.707  -7.856 -15.089  0.00  0.00    -0.646 OA
HETATM   17  O           1     -28.843  -6.080 -14.596  0.00  0.00    -0.646 OA
ENDBRANCH  14  15
BRANCH  14  18
HETATM   18  C           1     -29.745  -7.436 -17.424  0.00  0.00     0.010 C 
HETATM   19  C           1     -31.035  -6.630 -17.341  0.00  0.00     0.012 C 
HETATM   20  C           1     -29.489  -7.838 -18.871  0.00  0.00     0.012 C 
ENDBRANCH  14  18
ENDBRANCH   4  14
TORSDOF 8
ENDMDL
MODEL 4
REMARK VINA RESULT:      -4.9      3.078      6.717
REMARK  8 active torsions:
REMARK  status: ('A' for Active; 'I' for Inactive)
REMARK    1  A    between atoms: N_3  and  C_19 
REMARK    2  A    between atoms: C_4  and  C_11 
REMARK    3  A    between atoms: C_4  and  S_17 
REMARK    4  A    between atoms: C_5  and  C_6 
REMARK    5  A    between atoms: C_6  and  C_15 
REMARK    6  A    between atoms: C_6  and  N_18 
REMARK    7  A    between atoms: C_11  and  C_19 
REMARK       I    between atoms: C_14  and  N_18 
REMARK    8  A    between atoms: C_14  and  C_19 
ROOT
HETATM    1  H           1     -19.833  -6.779  -4.760  0.00  0.00     0.163 HD
HETATM    2  O           1     -22.724  -5.835  -5.531  0.00  0.00    -0.271 OA
HETATM    3  C           1     -21.518  -5.891  -5.570  0.00  0.00     0.249 C 
HETATM    4  N           1     -20.843  -6.733  -4.728  0.00  0.00    -0.344 N 
ENDROOT
BRANCH   3   5
HETATM    5  C           1     -20.754  -5.030  -6.547  0.00  0.00     0.275 C 
BRANCH   5   6
HETATM    6  N           1     -19.988  -5.907  -7.492  0.00  0.00    -0.066 N 
HETATM    7  H           1     -19.806  -5.387  -8.380  0.00  0.00     0.275 HD
HETATM    8  H           1     -20.545  -6.767  -7.700  0.00  0.00     0.275 HD
HETATM    9  H           1     -19.078  -6.179  -7.055  0.00  0.00     0.275 HD
ENDBRANCH   5   6
BRANCH   5  10
HETATM   10  C           1     -21.731  -4.167  -7.335  0.00  0.00     0.053 C 
BRANCH  10  11
HETATM   11  C           1     -21.370  -4.213  -8.814  0.00  0.00     0.076 C 
BRANCH  11  12
HETATM   12  S           1     -22.863  -4.540  -9.792  0.00  0.00    -0.173 SA
HETATM   13  C           1     -22.091  -4.312 -11.418  0.00  0.00     0.089 C 
ENDBRANCH  11  12
ENDBRANCH  10  11
ENDBRANCH   5  10
ENDBRANCH   3   5
BRANCH   4  14
HETATM   14  C           1     -21.577  -7.559  -3.789  0.00  0.00     0.189 C 
BRANCH  14  15
HETATM   15  C           1     -21.584  -6.896  -2.434  0.00  0.00     0.197 C 
HETATM   16  O           1     -20.856  -7.336  -1.518  0.00  0.00    -0.646 OA
HETATM   17  O           1     -22.317  -5.905  -2.227  0.00  0.00    -0.646 OA
ENDBRANCH  14  15
BRANCH  14  18
HETATM   18  C           1     -20.907  -8.924  -3.683  0.00  0.00     0.010 C 
HETATM   19  C           1     -21.923 -10.013  -3.999  0.00  0.00     0.012 C 
HETATM   20  C           1     -19.754  -9.001  -4.675  0.00  0.00     0.012 C 
ENDBRANCH  14  18
ENDBRANCH   4  14
TORSDOF 8
ENDMDL
MODEL 5
REMARK VINA RESULT:      -4.9      3.210      6.780
REMARK  8 active torsions:
REMARK  status: ('A' for Active; 'I' for Inactive)
REMARK    1  A    between atoms: N_3  and  C_19 
REMARK    2  A    between atoms: C_4  and  C_11 
REMARK    3  A    between atoms: C_4  and  S_17 
REMARK    4  A    between atoms: C_5  and  C_6 
REMARK    5  A    between atoms: C_6  and  C_15 
REMARK    6  A    between atoms: C_6  and  N_18 
REMARK    7  A    between atoms: C_11  and  C_19 
REMARK       I    between atoms: C_14  and  N_18 
REMARK    8  A    between atoms: C_14  and  C_19 
ROOT
HETATM    1  H           1     -22.443  -6.780  -5.742  0.00  0.00     0.163 HD
HETATM    2  O           1     -19.891  -4.984  -6.062  0.00  0.00    -0.271 OA
HETATM    3  C           1     -21.028  -5.354  -6.236  0.00  0.00     0.249 C 
HETATM    4  N           1     -21.491  -6.471  -5.595  0.00  0.00    -0.344 N 
ENDROOT
BRANCH   3   5
HETATM    5  C           1     -21.938  -4.583  -7.161  0.00  0.00     0.275 C 
BRANCH   5   6
HETATM    6  N           1     -21.619  -3.120  -7.071  0.00  0.00    -0.066 N 
HETATM    7  H           1     -21.869  -2.654  -7.972  0.00  0.00     0.275 HD
HETATM    8  H           1     -20.598  -2.996  -6.886  0.00  0.00     0.275 HD
HETATM    9  H           1     -22.168  -2.691  -6.292  0.00  0.00     0.275 HD
ENDBRANCH   5   6
BRANCH   5  10
HETATM   10  C           1     -21.730  -5.060  -8.592  0.00  0.00     0.053 C 
BRANCH  10  11
HETATM   11  C           1     -22.415  -4.097  -9.553  0.00  0.00     0.076 C 
BRANCH  11  12
HETATM   12  S           1     -21.406  -3.914 -11.050  0.00  0.00    -0.173 SA
HETATM   13  C           1     -22.539  -2.793 -11.919  0.00  0.00     0.089 C 
ENDBRANCH  11  12
ENDBRANCH  10  11
ENDBRANCH   5  10
ENDBRANCH   3   5
BRANCH   4  14
HETATM   14  C           1     -20.617  -7.211  -4.706  0.00  0.00     0.189 C 
BRANCH  14  15
HETATM   15  C           1     -20.200  -8.500  -5.370  0.00  0.00     0.197 C 
HETATM   16  O           1     -21.061  -9.355  -5.671  0.00  0.00    -0.646 OA
HETATM   17  O           1     -18.994  -8.714  -5.619  0.00  0.00    -0.646 OA
ENDBRANCH  14  15
BRANCH  14  18
HETATM   18  C           1     -21.356  -7.522  -3.411  0.00  0.00     0.010 C 
HETATM   19  C           1     -20.414  -8.235  -2.449  0.00  0.00     0.012 C 
HETATM   20  C           1     -21.841  -6.224  -2.779  0.00  0.00     0.012 C 
ENDBRANCH  14  18
ENDBRANCH   4  14
TORSDOF 8
ENDMDL
MODEL 6
REMARK VINA RESULT:      -4.8      5.014      8.509
REMARK  8 active torsions:
REMARK  status: ('A' for Active; 'I' for Inactive)
REMARK    1  A    between atoms: N_3  and  C_19 
REMARK    2  A    between atoms: C_4  and  C_11 
REMARK    3  A    between atoms: C_4  and  S_17 
REMARK    4  A    between atoms: C_5  and  C_6 
REMARK    5  A    between atoms: C_6  and  C_15 
REMARK    6  A    between atoms: C_6  and  N_18 
REMARK    7  A    between atoms: C_11  and  C_19 
REMARK       I    between atoms: C_14  and  N_18 
REMARK    8  A    between atoms: C_14  and  C_19 
ROOT
HETATM    1  H           1     -22.489  -8.325  -3.039  0.00  0.00     0.163 HD
HETATM    2  O           1     -19.430  -8.979  -2.794  0.00  0.00    -0.271 OA
HETATM    3  C           1     -20.454  -8.587  -3.303  0.00  0.00     0.249 C 
HETATM    4  N           1     -21.633  -8.653  -2.612  0.00  0.00    -0.344 N 
ENDROOT
BRANCH   3   5
HETATM    5  C           1     -20.430  -8.024  -4.704  0.00  0.00     0.275 C 
BRANCH   5   6
HETATM    6  N           1     -20.782  -9.105  -5.683  0.00  0.00    -0.066 N 
HETATM    7  H           1     -19.918  -9.630  -5.945  0.00  0.00     0.275 HD
HETATM    8  H           1     -21.203  -8.677  -6.538  0.00  0.00     0.275 HD
HETATM    9  H           1     -21.469  -9.760  -5.246  0.00  0.00     0.275 HD
ENDBRANCH   5   6
BRANCH   5  10
HETATM   10  C           1     -21.442  -6.891  -4.814  0.00  0.00     0.053 C 
BRANCH  10  11
HETATM   11  C           1     -20.754  -5.647  -5.359  0.00  0.00     0.076 C 
BRANCH  11  12
HETATM   12  S           1     -20.857  -5.642  -7.171  0.00  0.00    -0.173 SA
HETATM   13  C           1     -22.249  -4.483  -7.288  0.00  0.00     0.089 C 
ENDBRANCH  11  12
ENDBRANCH  10  11
ENDBRANCH   5  10
ENDBRANCH   3   5
BRANCH   4  14
HETATM   14  C           1     -21.654  -9.194  -1.267  0.00  0.00     0.189 C 
BRANCH  14  15
HETATM   15  C           1     -22.363 -10.526  -1.272  0.00  0.00     0.197 C 
HETATM   16  O           1     -23.556 -10.601  -0.906  0.00  0.00    -0.646 OA
HETATM   17  O           1     -21.758 -11.555  -1.643  0.00  0.00    -0.646 OA
ENDBRANCH  14  15
BRANCH  14  18
HETATM   18  C           1     -22.391  -8.231  -0.344  0.00  0.00     0.010 C 
HETATM   19  C           1     -21.713  -8.217   1.020  0.00  0.00     0.012 C 
HETATM   20  C           1     -22.356  -6.830  -0.943  0.00  0.00     0.012 C 
ENDBRANCH  14  18
ENDBRANCH   4  14
TORSDOF 8
ENDMDL
MODEL 7
REMARK VINA RESULT:      -4.8     12.713     15.155
REMARK  8 active torsions:
REMARK  status: ('A' for Active; 'I' for Inactive)
REMARK    1  A    between atoms: N_3  and  C_19 
REMARK    2  A    between atoms: C_4  and  C_11 
REMARK    3  A    between atoms: C_4  and  S_17 
REMARK    4  A    between atoms: C_5  and  C_6 
REMARK    5  A    between atoms: C_6  and  C_15 
REMARK    6  A    between atoms: C_6  and  N_18 
REMARK    7  A    between atoms: C_11  and  C_19 
REMARK       I    between atoms: C_14  and  N_18 
REMARK    8  A    between atoms: C_14  and  C_19 
ROOT
HETATM    1  H           1     -35.739  -2.942 -10.866  0.00  0.00     0.163 HD
HETATM    2  O           1     -34.695  -1.925 -13.644  0.00  0.00    -0.271 OA
HETATM    3  C           1     -35.317  -1.909 -12.608  0.00  0.00     0.249 C 
HETATM    4  N           1     -35.218  -2.956 -11.733  0.00  0.00    -0.344 N 
ENDROOT
BRANCH   3   5
HETATM    5  C           1     -36.204  -0.732 -12.281  0.00  0.00     0.275 C 
BRANCH   5   6
HETATM    6  N           1     -35.520   0.145 -11.276  0.00  0.00    -0.066 N 
HETATM    7  H           1     -34.727  -0.378 -10.841  0.00  0.00     0.275 HD
HETATM    8  H           1     -36.201   0.424 -10.534  0.00  0.00     0.275 HD
HETATM    9  H           1     -35.154   1.001 -11.752  0.00  0.00     0.275 HD
ENDBRANCH   5   6
BRANCH   5  10
HETATM   10  C           1     -36.479   0.066 -13.548  0.00  0.00     0.053 C 
BRANCH  10  11
HETATM   11  C           1     -37.936  -0.110 -13.954  0.00  0.00     0.076 C 
BRANCH  11  12
HETATM   12  S           1     -38.075  -0.042 -15.762  0.00  0.00    -0.173 SA
HETATM   13  C           1     -36.405  -0.660 -16.113  0.00  0.00     0.089 C 
ENDBRANCH  11  12
ENDBRANCH  10  11
ENDBRANCH   5  10
ENDBRANCH   3   5
BRANCH   4  14
HETATM   14  C           1     -34.365  -4.085 -12.048  0.00  0.00     0.189 C 
BRANCH  14  15
HETATM   15  C           1     -35.078  -5.367 -11.695  0.00  0.00     0.197 C 
HETATM   16  O           1     -35.308  -5.646 -10.498  0.00  0.00    -0.646 OA
HETATM   17  O           1     -35.440  -6.150 -12.600  0.00  0.00    -0.646 OA
ENDBRANCH  14  15
BRANCH  14  18
HETATM   18  C           1     -33.074  -3.985 -11.245  0.00  0.00     0.010 C 
HETATM   19  C           1     -31.901  -4.414 -12.117  0.00  0.00     0.012 C 
HETATM   20  C           1     -32.870  -2.546 -10.790  0.00  0.00     0.012 C 
ENDBRANCH  14  18
ENDBRANCH   4  14
TORSDOF 8
ENDMDL
MODEL 8
REMARK VINA RESULT:      -4.7      5.355      9.227
REMARK  8 active torsions:
REMARK  status: ('A' for Active; 'I' for Inactive)
REMARK    1  A    between atoms: N_3  and  C_19 
REMARK    2  A    between atoms: C_4  and  C_11 
REMARK    3  A    between atoms: C_4  and  S_17 
REMARK    4  A    between atoms: C_5  and  C_6 
REMARK    5  A    between atoms: C_6  and  C_15 
REMARK    6  A    between atoms: C_6  and  N_18 
REMARK    7  A    between atoms: C_11  and  C_19 
REMARK       I    between atoms: C_14  and  N_18 
REMARK    8  A    between atoms: C_14  and  C_19 
ROOT
HETATM    1  H           1     -21.125  -9.853  -2.307  0.00  0.00     0.163 HD
HETATM    2  O           1     -22.208  -7.009  -1.547  0.00  0.00    -0.271 OA
HETATM    3  C           1     -21.632  -7.851  -2.195  0.00  0.00     0.249 C 
HETATM    4  N           1     -21.608  -9.149  -1.764  0.00  0.00    -0.344 N 
ENDROOT
BRANCH   3   5
HETATM    5  C           1     -20.939  -7.468  -3.480  0.00  0.00     0.275 C 
BRANCH   5   6
HETATM    6  N           1     -21.409  -8.365  -4.587  0.00  0.00    -0.066 N 
HETATM    7  H           1     -22.333  -8.780  -4.330  0.00  0.00     0.275 HD
HETATM    8  H           1     -20.713  -9.130  -4.737  0.00  0.00     0.275 HD
HETATM    9  H           1     -21.510  -7.809  -5.466  0.00  0.00     0.275 HD
ENDBRANCH   5   6
BRANCH   5  10
HETATM   10  C           1     -21.267  -6.022  -3.825  0.00  0.00     0.053 C 
BRANCH  10  11
HETATM   11  C           1     -21.458  -5.889  -5.330  0.00  0.00     0.076 C 
BRANCH  11  12
HETATM   12  S           1     -20.184  -4.787  -6.007  0.00  0.00    -0.173 SA
HETATM   13  C           1     -21.281  -3.886  -7.138  0.00  0.00     0.089 C 
ENDBRANCH  11  12
ENDBRANCH  10  11
ENDBRANCH   5  10
ENDBRANCH   3   5
BRANCH   4  14
HETATM   14  C           1     -22.274  -9.516  -0.530  0.00  0.00     0.189 C 
BRANCH  14  15
HETATM   15  C           1     -21.274  -9.518   0.599  0.00  0.00     0.197 C 
HETATM   16  O           1     -21.148  -8.508   1.326  0.00  0.00    -0.646 OA
HETATM   17  O           1     -20.571 -10.530   0.810  0.00  0.00    -0.646 OA
ENDBRANCH  14  15
BRANCH  14  18
HETATM   18  C           1     -22.881 -10.906  -0.674  0.00  0.00     0.010 C 
HETATM   19  C           1     -24.202 -10.963   0.083  0.00  0.00     0.012 C 
HETATM   20  C           1     -23.127 -11.201  -2.148  0.00  0.00     0.012 C 
ENDBRANCH  14  18
ENDBRANCH   4  14
TORSDOF 8
ENDMDL
MODEL 9
REMARK VINA RESULT:      -4.7      2.108      2.796
REMARK  8 active torsions:
REMARK  status: ('A' for Active; 'I' for Inactive)
REMARK    1  A    between atoms: N_3  and  C_19 
REMARK    2  A    between atoms: C_4  and  C_11 
REMARK    3  A    between atoms: C_4  and  S_17 
REMARK    4  A    between atoms: C_5  and  C_6 
REMARK    5  A    between atoms: C_6  and  C_15 
REMARK    6  A    between atoms: C_6  and  N_18 
REMARK    7  A    between atoms: C_11  and  C_19 
REMARK       I    between atoms: C_14  and  N_18 
REMARK    8  A    between atoms: C_14  and  C_19 
ROOT
HETATM    1  H           1     -23.054  -3.307  -9.085  0.00  0.00     0.163 HD
HETATM    2  O           1     -20.983  -5.607  -8.568  0.00  0.00    -0.271 OA
HETATM    3  C           1     -21.772  -4.730  -8.303  0.00  0.00     0.249 C 
HETATM    4  N           1     -22.394  -4.041  -9.308  0.00  0.00    -0.344 N 
ENDROOT
BRANCH   3   5
HETATM    5  C           1     -22.071  -4.397  -6.861  0.00  0.00     0.275 C 
BRANCH   5   6
HETATM    6  N           1     -23.530  -4.612  -6.591  0.00  0.00    -0.066 N 
HETATM    7  H           1     -23.807  -4.082  -5.734  0.00  0.00     0.275 HD
HETATM    8  H           1     -23.712  -5.631  -6.444  0.00  0.00     0.275 HD
HETATM    9  H           1     -24.089  -4.273  -7.406  0.00  0.00     0.275 HD
ENDBRANCH   5   6
BRANCH   5  10
HETATM   10  C           1     -21.248  -5.296  -5.950  0.00  0.00     0.053 C 
BRANCH  10  11
HETATM   11  C           1     -22.172  -6.261  -5.218  0.00  0.00     0.076 C 
BRANCH  11  12
HETATM   12  S           1     -21.582  -6.495  -3.518  0.00  0.00    -0.173 SA
HETATM   13  C           1     -21.372  -8.294  -3.625  0.00  0.00     0.089 C 
ENDBRANCH  11  12
ENDBRANCH  10  11
ENDBRANCH   5  10
ENDBRANCH   3   5
BRANCH   4  14
HETATM   14  C           1     -22.107  -4.362 -10.692  0.00  0.00     0.189 C 
BRANCH  14  15
HETATM   15  C           1     -20.842  -3.659 -11.119  0.00  0.00     0.197 C 
HETATM   16  O           1     -20.857  -2.431 -11.355  0.00  0.00    -0.646 OA
HETATM   17  O           1     -19.777  -4.304 -11.237  0.00  0.00    -0.646 OA
ENDBRANCH  14  15
BRANCH  14  18
HETATM   18  C           1     -23.264  -3.902 -11.571  0.00  0.00     0.010 C 
HETATM   19  C           1     -23.785  -5.082 -12.381  0.00  0.00     0.012 C 
HETATM   20  C           1     -24.381  -3.357 -10.692  0.00  0.00     0.012 C 
ENDBRANCH  14  18
ENDBRANCH   4  14
TORSDOF 8
ENDMDL
