MODEL 1
REMARK VINA RESULT:      -7.3      0.000      0.000
REMARK  9 active torsions:
REMARK  status: ('A' for Active; 'I' for Inactive)
REMARK    1  A    between atoms: N_1  and  C_17 
REMARK    2  A    between atoms: O_4  and  C_12 
REMARK    3  A    between atoms: C_8  and  C_13 
REMARK    4  A    between atoms: C_13  and  C_17 
REMARK    5  A    between atoms: N_15  and  C_21 
REMARK       I    between atoms: N_15  and  C_16 
REMARK    6  A    between atoms: C_16  and  C_17 
REMARK    7  A    between atoms: C_20  and  C_26 
REMARK    8  A    between atoms: C_20  and  C_21 
REMARK    9  A    between atoms: C_21  and  C_22 
ROOT
HETATM    1  O           1     -20.498  -7.574  -6.033  0.00  0.00    -0.271 OA
HETATM    2  H           1     -22.310  -5.146  -5.220  0.00  0.00     0.163 HD
HETATM    3  N           1     -21.644  -5.675  -5.767  0.00  0.00    -0.344 N 
HETATM    4  C           1     -21.292  -6.941  -5.380  0.00  0.00     0.249 C 
ENDROOT
BRANCH   3   5
HETATM    5  C           1     -21.062  -5.096  -6.962  0.00  0.00     0.189 C 
BRANCH   5   6
HETATM    6  C           1     -21.903  -3.908  -7.411  0.00  0.00     0.074 C 
BRANCH   6   7
HETATM    7  C           1     -22.363  -4.124  -8.819  0.00  0.00    -0.056 A 
HETATM    8  C           1     -23.725  -4.233  -9.098  0.00  0.00     0.010 A 
HETATM    9  C           1     -24.155  -4.433 -10.410  0.00  0.00     0.037 A 
HETATM   10  C           1     -23.221  -4.525 -11.443  0.00  0.00     0.065 A 
HETATM   11  C           1     -21.859  -4.416 -11.164  0.00  0.00     0.037 A 
HETATM   12  C           1     -21.429  -4.215  -9.851  0.00  0.00     0.010 A 
BRANCH  10  13
HETATM   13  O           1     -23.637  -4.720 -12.718  0.00  0.00    -0.361 OA
HETATM   14  H           1     -24.602  -4.606 -12.739  0.00  0.00     0.217 HD
ENDBRANCH  10  13
ENDBRANCH   6   7
ENDBRANCH   5   6
BRANCH   5  15
HETATM   15  C           1     -19.657  -4.634  -6.664  0.00  0.00     0.197 C 
HETATM   16  O           1     -18.826  -4.522  -7.592  0.00  0.00    -0.646 OA
HETATM   17  O           1     -19.323  -4.364  -5.490  0.00  0.00    -0.646 OA
ENDBRANCH   5  15
ENDBRANCH   3   5
BRANCH   4  18
HETATM   18  C           1     -21.898  -7.544  -4.136  0.00  0.00     0.278 C 
BRANCH  18  19
HETATM   19  N           1     -21.715  -9.032  -4.163  0.00  0.00    -0.066 N 
HETATM   20  H           1     -20.696  -9.258  -4.226  0.00  0.00     0.275 HD
HETATM   21  H           1     -22.110  -9.447  -3.289  0.00  0.00     0.275 HD
HETATM   22  H           1     -22.211  -9.430  -4.993  0.00  0.00     0.275 HD
ENDBRANCH  18  19
BRANCH  18  23
HETATM   23  C           1     -21.208  -6.971  -2.905  0.00  0.00     0.021 C 
HETATM   24  C           1     -22.228  -6.233  -2.048  0.00  0.00     0.012 C 
BRANCH  23  25
HETATM   25  C           1     -20.592  -8.105  -2.096  0.00  0.00     0.002 C 
HETATM   26  C           1     -21.168  -8.094  -0.686  0.00  0.00     0.005 C 
ENDBRANCH  23  25
ENDBRANCH  18  23
ENDBRANCH   4  18
TORSDOF 9
ENDMDL
MODEL 2
REMARK VINA RESULT:      -7.1     13.699     17.065
REMARK  9 active torsions:
REMARK  status: ('A' for Active; 'I' for Inactive)
REMARK    1  A    between atoms: N_1  and  C_17 
REMARK    2  A    between atoms: O_4  and  C_12 
REMARK    3  A    between atoms: C_8  and  C_13 
REMARK    4  A    between atoms: C_13  and  C_17 
REMARK    5  A    between atoms: N_15  and  C_21 
REMARK       I    between atoms: N_15  and  C_16 
REMARK    6  A    between atoms: C_16  and  C_17 
REMARK    7  A    between atoms: C_20  and  C_26 
REMARK    8  A    between atoms: C_20  and  C_21 
REMARK    9  A    between atoms: C_21  and  C_22 
ROOT
HETATM    1  O           1     -37.331  -1.039 -12.889  0.00  0.00    -0.271 OA
HETATM    2  H           1     -35.278   1.048 -11.761  0.00  0.00     0.163 HD
HETATM    3  N           1     -35.957   0.298 -11.743  0.00  0.00    -0.344 N 
HETATM    4  C           1     -36.520  -0.144 -12.910  0.00  0.00     0.249 C 
ENDROOT
BRANCH   3   5
HETATM    5  C           1     -36.334  -0.309 -10.481  0.00  0.00     0.189 C 
BRANCH   5   6
HETATM    6  C           1     -35.090  -0.851  -9.788  0.00  0.00     0.074 C 
BRANCH   6   7
HETATM    7  C           1     -34.722  -2.173 -10.386  0.00  0.00    -0.056 A 
HETATM    8  C           1     -33.405  -2.419 -10.774  0.00  0.00     0.010 A 
HETATM    9  C           1     -33.060  -3.651 -11.330  0.00  0.00     0.037 A 
HETATM   10  C           1     -34.033  -4.637 -11.497  0.00  0.00     0.065 A 
HETATM   11  C           1     -35.350  -4.392 -11.108  0.00  0.00     0.037 A 
HETATM   12  C           1     -35.694  -3.159 -10.552  0.00  0.00     0.010 A 
BRANCH  10  13
HETATM   13  O           1     -33.699  -5.834 -12.037  0.00  0.00    -0.361 OA
HETATM   14  H           1     -33.285  -5.669 -12.901  0.00  0.00     0.217 HD
ENDBRANCH  10  13
ENDBRANCH   6   7
ENDBRANCH   5   6
BRANCH   5  15
HETATM   15  C           1     -36.991   0.725  -9.602  0.00  0.00     0.197 C 
HETATM   16  O           1     -38.075   1.243  -9.949  0.00  0.00    -0.646 OA
HETATM   17  O           1     -36.453   1.065  -8.526  0.00  0.00    -0.646 OA
ENDBRANCH   5  15
ENDBRANCH   3   5
BRANCH   4  18
HETATM   18  C           1     -36.127   0.488 -14.223  0.00  0.00     0.278 C 
BRANCH  18  19
HETATM   19  N           1     -34.632   0.535 -14.328  0.00  0.00    -0.066 N 
HETATM   20  H           1     -34.316  -0.092 -15.102  0.00  0.00     0.275 HD
HETATM   21  H           1     -34.328   1.515 -14.527  0.00  0.00     0.275 HD
HETATM   22  H           1     -34.209   0.215 -13.427  0.00  0.00     0.275 HD
ENDBRANCH  18  19
BRANCH  18  23
HETATM   23  C           1     -36.690  -0.337 -15.373  0.00  0.00     0.021 C 
HETATM   24  C           1     -37.979   0.301 -15.875  0.00  0.00     0.012 C 
BRANCH  23  25
HETATM   25  C           1     -35.674  -0.384 -16.507  0.00  0.00     0.002 C 
HETATM   26  C           1     -35.360  -1.835 -16.848  0.00  0.00     0.005 C 
ENDBRANCH  23  25
ENDBRANCH  18  23
ENDBRANCH   4  18
TORSDOF 9
ENDMDL
MODEL 3
REMARK VINA RESULT:      -6.8      2.475      7.417
REMARK  9 active torsions:
REMARK  status: ('A' for Active; 'I' for Inactive)
REMARK    1  A    between atoms: N_1  and  C_17 
REMARK    2  A    between atoms: O_4  and  C_12 
REMARK    3  A    between atoms: C_8  and  C_13 
REMARK    4  A    between atoms: C_13  and  C_17 
REMARK    5  A    between atoms: N_15  and  C_21 
REMARK       I    between atoms: N_15  and  C_16 
REMARK    6  A    between atoms: C_16  and  C_17 
REMARK    7  A    between atoms: C_20  and  C_26 
REMARK    8  A    between atoms: C_20  and  C_21 
REMARK    9  A    between atoms: C_21  and  C_22 
ROOT
HETATM    1  O           1     -20.282  -4.801  -4.824  0.00  0.00    -0.271 OA
HETATM    2  H           1     -20.239  -7.057  -7.004  0.00  0.00     0.163 HD
HETATM    3  N           1     -20.219  -6.648  -6.079  0.00  0.00    -0.344 N 
HETATM    4  C           1     -20.306  -5.290  -5.929  0.00  0.00     0.249 C 
ENDROOT
BRANCH   3   5
HETATM    5  C           1     -20.097  -7.500  -4.911  0.00  0.00     0.189 C 
BRANCH   5   6
HETATM    6  C           1     -21.451  -8.119  -4.592  0.00  0.00     0.074 C 
BRANCH   6   7
HETATM    7  C           1     -21.710  -8.024  -3.121  0.00  0.00    -0.056 A 
HETATM    8  C           1     -21.986  -6.786  -2.541  0.00  0.00     0.010 A 
HETATM    9  C           1     -22.228  -6.696  -1.170  0.00  0.00     0.037 A 
HETATM   10  C           1     -22.193  -7.845  -0.379  0.00  0.00     0.065 A 
HETATM   11  C           1     -21.917  -9.083  -0.959  0.00  0.00     0.037 A 
HETATM   12  C           1     -21.676  -9.172  -2.331  0.00  0.00     0.010 A 
BRANCH  10  13
HETATM   13  O           1     -22.428  -7.759   0.953  0.00  0.00    -0.361 OA
HETATM   14  H           1     -21.611  -7.455   1.382  0.00  0.00     0.217 HD
ENDBRANCH  10  13
ENDBRANCH   6   7
ENDBRANCH   5   6
BRANCH   5  15
HETATM   15  C           1     -19.096  -8.594  -5.189  0.00  0.00     0.197 C 
HETATM   16  O           1     -18.585  -8.699  -6.325  0.00  0.00    -0.646 OA
HETATM   17  O           1     -18.776  -9.394  -4.284  0.00  0.00    -0.646 OA
ENDBRANCH   5  15
ENDBRANCH   3   5
BRANCH   4  18
HETATM   18  C           1     -20.433  -4.404  -7.144  0.00  0.00     0.278 C 
BRANCH  18  19
HETATM   19  N           1     -19.132  -4.391  -7.890  0.00  0.00    -0.066 N 
HETATM   20  H           1     -19.303  -4.628  -8.894  0.00  0.00     0.275 HD
HETATM   21  H           1     -18.703  -3.441  -7.826  0.00  0.00     0.275 HD
HETATM   22  H           1     -18.483  -5.096  -7.472  0.00  0.00     0.275 HD
ENDBRANCH  18  19
BRANCH  18  23
HETATM   23  C           1     -21.533  -4.939  -8.051  0.00  0.00     0.021 C 
HETATM   24  C           1     -22.883  -4.422  -7.573  0.00  0.00     0.012 C 
BRANCH  23  25
HETATM   25  C           1     -21.286  -4.467  -9.478  0.00  0.00     0.002 C 
HETATM   26  C           1     -22.508  -3.709  -9.982  0.00  0.00     0.005 C 
ENDBRANCH  23  25
ENDBRANCH  18  23
ENDBRANCH   4  18
TORSDOF 9
ENDMDL
MODEL 4
REMARK VINA RESULT:      -6.5     10.835     14.050
REMARK  9 active torsions:
REMARK  status: ('A' for Active; 'I' for Inactive)
REMARK    1  A    between atoms: N_1  and  C_17 
REMARK    2  A    between atoms: O_4  and  C_12 
REMARK    3  A    between atoms: C_8  and  C_13 
REMARK    4  A    between atoms: C_13  and  C_17 
REMARK    5  A    between atoms: N_15  and  C_21 
REMARK       I    between atoms: N_15  and  C_16 
REMARK    6  A    between atoms: C_16  and  C_17 
REMARK    7  A    between atoms: C_20  and  C_26 
REMARK    8  A    between atoms: C_20  and  C_21 
REMARK    9  A    between atoms: C_21  and  C_22 
ROOT
HETATM    1  O           1     -27.892  -5.317 -18.904  0.00  0.00    -0.271 OA
HETATM    2  H           1     -25.543  -7.302 -18.283  0.00  0.00     0.163 HD
HETATM    3  N           1     -26.308  -6.668 -18.094  0.00  0.00    -0.344 N 
HETATM    4  C           1     -26.978  -6.074 -19.130  0.00  0.00     0.249 C 
ENDROOT
BRANCH   3   5
HETATM    5  C           1     -26.697  -6.388 -16.725  0.00  0.00     0.189 C 
BRANCH   5   6
HETATM    6  C           1     -27.724  -7.417 -16.269  0.00  0.00     0.074 C 
BRANCH   6   7
HETATM    7  C           1     -29.103  -6.869 -16.471  0.00  0.00    -0.056 A 
HETATM    8  C           1     -29.965  -7.474 -17.386  0.00  0.00     0.010 A 
HETATM    9  C           1     -31.250  -6.966 -17.575  0.00  0.00     0.037 A 
HETATM   10  C           1     -31.673  -5.852 -16.848  0.00  0.00     0.065 A 
HETATM   11  C           1     -30.811  -5.248 -15.933  0.00  0.00     0.037 A 
HETATM   12  C           1     -29.525  -5.757 -15.744  0.00  0.00     0.010 A 
BRANCH  10  13
HETATM   13  O           1     -32.921  -5.357 -17.031  0.00  0.00    -0.361 OA
HETATM   14  H           1     -32.838  -4.436 -17.329  0.00  0.00     0.217 HD
ENDBRANCH  10  13
ENDBRANCH   6   7
ENDBRANCH   5   6
BRANCH   5  15
HETATM   15  C           1     -25.483  -6.459 -15.833  0.00  0.00     0.197 C 
HETATM   16  O           1     -25.011  -7.569 -15.507  0.00  0.00    -0.646 OA
HETATM   17  O           1     -24.947  -5.407 -15.420  0.00  0.00    -0.646 OA
ENDBRANCH   5  15
ENDBRANCH   3   5
BRANCH   4  18
HETATM   18  C           1     -26.574  -6.365 -20.554  0.00  0.00     0.278 C 
BRANCH  18  19
HETATM   19  N           1     -25.434  -5.472 -20.942  0.00  0.00    -0.066 N 
HETATM   20  H           1     -24.528  -5.957 -20.749  0.00  0.00     0.275 HD
HETATM   21  H           1     -25.498  -5.248 -21.961  0.00  0.00     0.275 HD
HETATM   22  H           1     -25.480  -4.587 -20.387  0.00  0.00     0.275 HD
ENDBRANCH  18  19
BRANCH  18  23
HETATM   23  C           1     -26.140  -7.821 -20.672  0.00  0.00     0.021 C 
HETATM   24  C           1     -27.304  -8.659 -21.184  0.00  0.00     0.012 C 
BRANCH  23  25
HETATM   25  C           1     -24.974  -7.924 -21.648  0.00  0.00     0.002 C 
HETATM   26  C           1     -23.701  -8.263 -20.884  0.00  0.00     0.005 C 
ENDBRANCH  23  25
ENDBRANCH  18  23
ENDBRANCH   4  18
TORSDOF 9
ENDMDL
MODEL 5
REMARK VINA RESULT:      -6.4      5.817      8.671
REMARK  9 active torsions:
REMARK  status: ('A' for Active; 'I' for Inactive)
REMARK    1  A    between atoms: N_1  and  C_17 
REMARK    2  A    between atoms: O_4  and  C_12 
REMARK    3  A    between atoms: C_8  and  C_13 
REMARK    4  A    between atoms: C_13  and  C_17 
REMARK    5  A    between atoms: N_15  and  C_21 
REMARK       I    between atoms: N_15  and  C_16 
REMARK    6  A    between atoms: C_16  and  C_17 
REMARK    7  A    between atoms: C_20  and  C_26 
REMARK    8  A    between atoms: C_20  and  C_21 
REMARK    9  A    between atoms: C_21  and  C_22 
ROOT
HETATM    1  O           1     -21.830  -9.917  -3.812  0.00  0.00    -0.271 OA
HETATM    2  H           1     -19.805  -8.085  -2.268  0.00  0.00     0.163 HD
HETATM    3  N           1     -20.698  -8.480  -2.529  0.00  0.00    -0.344 N 
HETATM    4  C           1     -20.764  -9.444  -3.499  0.00  0.00     0.249 C 
ENDROOT
BRANCH   3   5
HETATM    5  C           1     -21.911  -8.028  -1.875  0.00  0.00     0.189 C 
BRANCH   5   6
HETATM    6  C           1     -21.801  -8.274  -0.376  0.00  0.00     0.074 C 
BRANCH   6   7
HETATM    7  C           1     -22.165  -9.694  -0.075  0.00  0.00    -0.056 A 
HETATM    8  C           1     -21.204 -10.565   0.439  0.00  0.00     0.010 A 
HETATM    9  C           1     -21.542 -11.889   0.721  0.00  0.00     0.037 A 
HETATM   10  C           1     -22.842 -12.341   0.489  0.00  0.00     0.065 A 
HETATM   11  C           1     -23.803 -11.470  -0.023  0.00  0.00     0.037 A 
HETATM   12  C           1     -23.464 -10.145  -0.305  0.00  0.00     0.010 A 
BRANCH  10  13
HETATM   13  O           1     -23.171 -13.627   0.763  0.00  0.00    -0.361 OA
HETATM   14  H           1     -24.083 -13.774   0.462  0.00  0.00     0.217 HD
ENDBRANCH  10  13
ENDBRANCH   6   7
ENDBRANCH   5   6
BRANCH   5  15
HETATM   15  C           1     -22.101  -6.553  -2.132  0.00  0.00     0.197 C 
HETATM   16  O           1     -22.304  -5.774  -1.176  0.00  0.00    -0.646 OA
HETATM   17  O           1     -22.054  -6.111  -3.300  0.00  0.00    -0.646 OA
ENDBRANCH   5  15
ENDBRANCH   3   5
BRANCH   4  18
HETATM   18  C           1     -19.501  -9.915  -4.180  0.00  0.00     0.278 C 
BRANCH  18  19
HETATM   19  N           1     -19.188  -9.009  -5.333  0.00  0.00    -0.066 N 
HETATM   20  H           1     -19.792  -8.158  -5.283  0.00  0.00     0.275 HD
HETATM   21  H           1     -18.183  -8.725  -5.289  0.00  0.00     0.275 HD
HETATM   22  H           1     -19.369  -9.513  -6.231  0.00  0.00     0.275 HD
ENDBRANCH  18  19
BRANCH  18  23
HETATM   23  C           1     -18.347  -9.888  -3.186  0.00  0.00     0.021 C 
HETATM   24  C           1     -18.362 -11.164  -2.355  0.00  0.00     0.012 C 
BRANCH  23  25
HETATM   25  C           1     -17.029  -9.792  -3.943  0.00  0.00     0.002 C 
HETATM   26  C           1     -15.899  -9.510  -2.962  0.00  0.00     0.005 C 
ENDBRANCH  23  25
ENDBRANCH  18  23
ENDBRANCH   4  18
TORSDOF 9
ENDMDL
MODEL 6
REMARK VINA RESULT:      -6.3      3.265      4.964
REMARK  9 active torsions:
REMARK  status: ('A' for Active; 'I' for Inactive)
REMARK    1  A    between atoms: N_1  and  C_17 
REMARK    2  A    between atoms: O_4  and  C_12 
REMARK    3  A    between atoms: C_8  and  C_13 
REMARK    4  A    between atoms: C_13  and  C_17 
REMARK    5  A    between atoms: N_15  and  C_21 
REMARK       I    between atoms: N_15  and  C_16 
REMARK    6  A    between atoms: C_16  and  C_17 
REMARK    7  A    between atoms: C_20  and  C_26 
REMARK    8  A    between atoms: C_20  and  C_21 
REMARK    9  A    between atoms: C_21  and  C_22 
ROOT
HETATM    1  O           1     -22.620 -10.539  -3.609  0.00  0.00    -0.271 OA
HETATM    2  H           1     -19.679  -9.794  -2.810  0.00  0.00     0.163 HD
HETATM    3  N           1     -20.487  -9.907  -3.409  0.00  0.00    -0.344 N 
HETATM    4  C           1     -21.655 -10.404  -2.896  0.00  0.00     0.249 C 
ENDROOT
BRANCH   3   5
HETATM    5  C           1     -20.409  -9.542  -4.810  0.00  0.00     0.189 C 
BRANCH   5   6
HETATM    6  C           1     -19.556  -8.289  -4.961  0.00  0.00     0.074 C 
BRANCH   6   7
HETATM    7  C           1     -20.385  -7.188  -5.544  0.00  0.00    -0.056 A 
HETATM    8  C           1     -21.701  -7.006  -5.119  0.00  0.00     0.010 A 
HETATM    9  C           1     -22.474  -5.979  -5.662  0.00  0.00     0.037 A 
HETATM   10  C           1     -21.930  -5.134  -6.629  0.00  0.00     0.065 A 
HETATM   11  C           1     -20.614  -5.315  -7.054  0.00  0.00     0.037 A 
HETATM   12  C           1     -19.841  -6.343  -6.511  0.00  0.00     0.010 A 
BRANCH  10  13
HETATM   13  O           1     -22.680  -4.137  -7.157  0.00  0.00    -0.361 OA
HETATM   14  H           1     -22.779  -3.446  -6.481  0.00  0.00     0.217 HD
ENDBRANCH  10  13
ENDBRANCH   6   7
ENDBRANCH   5   6
BRANCH   5  15
HETATM   15  C           1     -19.786 -10.673  -5.590  0.00  0.00     0.197 C 
HETATM   16  O           1     -20.388 -11.164  -6.570  0.00  0.00    -0.646 OA
HETATM   17  O           1     -18.666 -11.120  -5.258  0.00  0.00    -0.646 OA
ENDBRANCH   5  15
ENDBRANCH   3   5
BRANCH   4  18
HETATM   18  C           1     -21.736 -10.784  -1.437  0.00  0.00     0.278 C 
BRANCH  18  19
HETATM   19  N           1     -20.440 -10.448  -0.761  0.00  0.00    -0.066 N 
HETATM   20  H           1     -19.687 -11.079  -1.117  0.00  0.00     0.275 HD
HETATM   21  H           1     -20.188  -9.455  -0.965  0.00  0.00     0.275 HD
HETATM   22  H           1     -20.542 -10.577   0.272  0.00  0.00     0.275 HD
ENDBRANCH  18  19
BRANCH  18  23
HETATM   23  C           1     -22.869 -10.012  -0.773  0.00  0.00     0.021 C 
HETATM   24  C           1     -23.897 -10.992  -0.223  0.00  0.00     0.012 C 
BRANCH  23  25
HETATM   25  C           1     -22.309  -9.172   0.368  0.00  0.00     0.002 C 
HETATM   26  C           1     -23.184  -7.942   0.571  0.00  0.00     0.005 C 
ENDBRANCH  23  25
ENDBRANCH  18  23
ENDBRANCH   4  18
TORSDOF 9
ENDMDL
MODEL 7
REMARK VINA RESULT:      -6.2      1.958      2.513
REMARK  9 active torsions:
REMARK  status: ('A' for Active; 'I' for Inactive)
REMARK    1  A    between atoms: N_1  and  C_17 
REMARK    2  A    between atoms: O_4  and  C_12 
REMARK    3  A    between atoms: C_8  and  C_13 
REMARK    4  A    between atoms: C_13  and  C_17 
REMARK    5  A    between atoms: N_15  and  C_21 
REMARK       I    between atoms: N_15  and  C_16 
REMARK    6  A    between atoms: C_16  and  C_17 
REMARK    7  A    between atoms: C_20  and  C_26 
REMARK    8  A    between atoms: C_20  and  C_21 
REMARK    9  A    between atoms: C_21  and  C_22 
ROOT
HETATM    1  O           1     -19.496  -8.347  -5.738  0.00  0.00    -0.271 OA
HETATM    2  H           1     -22.523  -7.674  -5.260  0.00  0.00     0.163 HD
HETATM    3  N           1     -21.557  -7.514  -5.512  0.00  0.00    -0.344 N 
HETATM    4  C           1     -20.651  -8.537  -5.437  0.00  0.00     0.249 C 
ENDROOT
BRANCH   3   5
HETATM    5  C           1     -21.130  -6.200  -5.954  0.00  0.00     0.189 C 
BRANCH   5   6
HETATM    6  C           1     -22.272  -5.521  -6.700  0.00  0.00     0.074 C 
BRANCH   6   7
HETATM    7  C           1     -21.764  -4.970  -7.995  0.00  0.00    -0.056 A 
HETATM    8  C           1     -22.629  -4.283  -8.847  0.00  0.00     0.010 A 
HETATM    9  C           1     -22.156  -3.768 -10.055  0.00  0.00     0.037 A 
HETATM   10  C           1     -20.817  -3.940 -10.409  0.00  0.00     0.065 A 
HETATM   11  C           1     -19.952  -4.625  -9.557  0.00  0.00     0.037 A 
HETATM   12  C           1     -20.425  -5.140  -8.349  0.00  0.00     0.010 A 
BRANCH  10  13
HETATM   13  O           1     -20.357  -3.440 -11.582  0.00  0.00    -0.361 OA
HETATM   14  H           1     -19.414  -3.660 -11.652  0.00  0.00     0.217 HD
ENDBRANCH  10  13
ENDBRANCH   6   7
ENDBRANCH   5   6
BRANCH   5  15
HETATM   15  C           1     -20.745  -5.368  -4.756  0.00  0.00     0.197 C 
HETATM   16  O           1     -21.223  -5.632  -3.632  0.00  0.00    -0.646 OA
HETATM   17  O           1     -19.947  -4.414  -4.887  0.00  0.00    -0.646 OA
ENDBRANCH   5  15
ENDBRANCH   3   5
BRANCH   4  18
HETATM   18  C           1     -21.094  -9.905  -4.977  0.00  0.00     0.278 C 
BRANCH  18  19
HETATM   19  N           1     -19.890 -10.761  -4.722  0.00  0.00    -0.066 N 
HETATM   20  H           1     -19.635 -10.712  -3.709  0.00  0.00     0.275 HD
HETATM   21  H           1     -20.106 -11.751  -4.978  0.00  0.00     0.275 HD
HETATM   22  H           1     -19.089 -10.417  -5.299  0.00  0.00     0.275 HD
ENDBRANCH  18  19
BRANCH  18  23
HETATM   23  C           1     -21.903  -9.772  -3.694  0.00  0.00     0.021 C 
HETATM   24  C           1     -22.729 -11.034  -3.480  0.00  0.00     0.012 C 
BRANCH  23  25
HETATM   25  C           1     -20.957  -9.581  -2.516  0.00  0.00     0.002 C 
HETATM   26  C           1     -21.487  -8.475  -1.612  0.00  0.00     0.005 C 
ENDBRANCH  23  25
ENDBRANCH  18  23
ENDBRANCH   4  18
TORSDOF 9
ENDMDL
MODEL 8
REMARK VINA RESULT:      -6.1      5.148      8.836
REMARK  9 active torsions:
REMARK  status: ('A' for Active; 'I' for Inactive)
REMARK    1  A    between atoms: N_1  and  C_17 
REMARK    2  A    between atoms: O_4  and  C_12 
REMARK    3  A    between atoms: C_8  and  C_13 
REMARK    4  A    between atoms: C_13  and  C_17 
REMARK    5  A    between atoms: N_15  and  C_21 
REMARK       I    between atoms: N_15  and  C_16 
REMARK    6  A    between atoms: C_16  and  C_17 
REMARK    7  A    between atoms: C_20  and  C_26 
REMARK    8  A    between atoms: C_20  and  C_21 
REMARK    9  A    between atoms: C_21  and  C_22 
ROOT
HETATM    1  O           1     -18.377  -9.340  -2.603  0.00  0.00    -0.271 OA
HETATM    2  H           1     -20.835 -11.277  -2.390  0.00  0.00     0.163 HD
HETATM    3  N           1     -19.944 -10.865  -2.147  0.00  0.00    -0.344 N 
HETATM    4  C           1     -19.441  -9.833  -2.893  0.00  0.00     0.249 C 
ENDROOT
BRANCH   3   5
HETATM    5  C           1     -19.200 -11.365  -1.007  0.00  0.00     0.189 C 
BRANCH   5   6
HETATM    6  C           1     -20.164 -11.683   0.128  0.00  0.00     0.074 C 
BRANCH   6   7
HETATM    7  C           1     -21.159 -10.573   0.264  0.00  0.00    -0.056 A 
HETATM    8  C           1     -22.454 -10.734  -0.230  0.00  0.00     0.010 A 
HETATM    9  C           1     -23.382  -9.700  -0.103  0.00  0.00     0.037 A 
HETATM   10  C           1     -23.015  -8.506   0.516  0.00  0.00     0.065 A 
HETATM   11  C           1     -21.721  -8.344   1.010  0.00  0.00     0.037 A 
HETATM   12  C           1     -20.792  -9.379   0.884  0.00  0.00     0.010 A 
BRANCH  10  13
HETATM   13  O           1     -23.917  -7.501   0.639  0.00  0.00    -0.361 OA
HETATM   14  H           1     -24.801  -7.870   0.482  0.00  0.00     0.217 HD
ENDBRANCH  10  13
ENDBRANCH   6   7
ENDBRANCH   5   6
BRANCH   5  15
HETATM   15  C           1     -18.457 -12.617  -1.403  0.00  0.00     0.197 C 
HETATM   16  O           1     -17.227 -12.570  -1.626  0.00  0.00    -0.646 OA
HETATM   17  O           1     -19.070 -13.702  -1.506  0.00  0.00    -0.646 OA
ENDBRANCH   5  15
ENDBRANCH   3   5
BRANCH   4  18
HETATM   18  C           1     -20.216  -9.312  -4.078  0.00  0.00     0.278 C 
BRANCH  18  19
HETATM   19  N           1     -21.483 -10.100  -4.232  0.00  0.00    -0.066 N 
HETATM   20  H           1     -22.226  -9.688  -3.624  0.00  0.00     0.275 HD
HETATM   21  H           1     -21.793 -10.069  -5.229  0.00  0.00     0.275 HD
HETATM   22  H           1     -21.313 -11.092  -3.950  0.00  0.00     0.275 HD
ENDBRANCH  18  19
BRANCH  18  23
HETATM   23  C           1     -20.555  -7.844  -3.859  0.00  0.00     0.021 C 
HETATM   24  C           1     -21.393  -7.336  -5.025  0.00  0.00     0.012 C 
BRANCH  23  25
HETATM   25  C           1     -21.345  -7.694  -2.565  0.00  0.00     0.002 C 
HETATM   26  C           1     -21.891  -6.276  -2.464  0.00  0.00     0.005 C 
ENDBRANCH  23  25
ENDBRANCH  18  23
ENDBRANCH   4  18
TORSDOF 9
ENDMDL
MODEL 9
REMARK VINA RESULT:      -6.0      2.885      6.724
REMARK  9 active torsions:
REMARK  status: ('A' for Active; 'I' for Inactive)
REMARK    1  A    between atoms: N_1  and  C_17 
REMARK    2  A    between atoms: O_4  and  C_12 
REMARK    3  A    between atoms: C_8  and  C_13 
REMARK    4  A    between atoms: C_13  and  C_17 
REMARK    5  A    between atoms: N_15  and  C_21 
REMARK       I    between atoms: N_15  and  C_16 
REMARK    6  A    between atoms: C_16  and  C_17 
REMARK    7  A    between atoms: C_20  and  C_26 
REMARK    8  A    between atoms: C_20  and  C_21 
REMARK    9  A    between atoms: C_21  and  C_22 
ROOT
HETATM    1  O           1     -22.641  -6.695  -5.355  0.00  0.00    -0.271 OA
HETATM    2  H           1     -20.103  -5.848  -3.716  0.00  0.00     0.163 HD
HETATM    3  N           1     -20.934  -6.375  -3.949  0.00  0.00    -0.344 N 
HETATM    4  C           1     -21.648  -6.066  -5.076  0.00  0.00     0.249 C 
ENDROOT
BRANCH   3   5
HETATM    5  C           1     -21.372  -7.459  -3.090  0.00  0.00     0.189 C 
BRANCH   5   6
HETATM    6  C           1     -20.193  -8.377  -2.792  0.00  0.00     0.074 C 
BRANCH   6   7
HETATM    7  C           1     -19.948  -9.271  -3.967  0.00  0.00    -0.056 A 
HETATM    8  C           1     -21.002  -9.999  -4.520  0.00  0.00     0.010 A 
HETATM    9  C           1     -20.775 -10.833  -5.616  0.00  0.00     0.037 A 
HETATM   10  C           1     -19.494 -10.938  -6.158  0.00  0.00     0.065 A 
HETATM   11  C           1     -18.440 -10.209  -5.605  0.00  0.00     0.037 A 
HETATM   12  C           1     -18.668  -9.375  -4.509  0.00  0.00     0.010 A 
BRANCH  10  13
HETATM   13  O           1     -19.272 -11.747  -7.222  0.00  0.00    -0.361 OA
HETATM   14  H           1     -18.344 -11.644  -7.490  0.00  0.00     0.217 HD
ENDBRANCH  10  13
ENDBRANCH   6   7
ENDBRANCH   5   6
BRANCH   5  15
HETATM   15  C           1     -21.907  -6.891  -1.798  0.00  0.00     0.197 C 
HETATM   16  O           1     -21.713  -7.496  -0.722  0.00  0.00    -0.646 OA
HETATM   17  O           1     -22.545  -5.816  -1.805  0.00  0.00    -0.646 OA
ENDBRANCH   5  15
ENDBRANCH   3   5
BRANCH   4  18
HETATM   18  C           1     -21.193  -4.939  -5.970  0.00  0.00     0.278 C 
BRANCH  18  19
HETATM   19  N           1     -19.722  -4.716  -5.785  0.00  0.00    -0.066 N 
HETATM   20  H           1     -19.567  -3.834  -5.247  0.00  0.00     0.275 HD
HETATM   21  H           1     -19.312  -5.521  -5.259  0.00  0.00     0.275 HD
HETATM   22  H           1     -19.260  -4.640  -6.720  0.00  0.00     0.275 HD
ENDBRANCH  18  19
BRANCH  18  23
HETATM   23  C           1     -21.471  -5.299  -7.424  0.00  0.00     0.021 C 
HETATM   24  C           1     -22.486  -4.322  -8.004  0.00  0.00     0.012 C 
BRANCH  23  25
HETATM   25  C           1     -20.177  -5.218  -8.223  0.00  0.00     0.002 C 
HETATM   26  C           1     -20.373  -4.292  -9.417  0.00  0.00     0.005 C 
ENDBRANCH  23  25
ENDBRANCH  18  23
ENDBRANCH   4  18
TORSDOF 9
ENDMDL
