MODEL 1
REMARK VINA RESULT:      -8.0      0.000      0.000
REMARK  9 active torsions:
REMARK  status: ('A' for Active; 'I' for Inactive)
REMARK    1  A    between atoms: N_4  and  C_7 
REMARK    2  A    between atoms: N_6  and  C_13 
REMARK       I    between atoms: N_6  and  C_9 
REMARK    3  A    between atoms: C_7  and  C_9 
REMARK    4  A    between atoms: C_7  and  C_8 
REMARK    5  A    between atoms: C_8  and  C_14 
REMARK    6  A    between atoms: C_11  and  C_13 
REMARK    7  A    between atoms: C_13  and  C_20 
REMARK    8  A    between atoms: C_20  and  C_29 
REMARK    9  A    between atoms: O_23  and  C_26 
ROOT
HETATM    1  N           1     -21.447  -6.350  -6.348  0.00  0.00    -0.344 N 
HETATM    2  C           1     -20.687  -7.413  -5.940  0.00  0.00     0.249 C 
HETATM    3  H           1     -22.398  -6.252  -6.018  0.00  0.00     0.163 HD
HETATM    4  O           1     -19.551  -7.530  -6.332  0.00  0.00    -0.271 OA
ENDROOT
BRANCH   1   5
HETATM    5  C           1     -20.888  -5.363  -7.250  0.00  0.00     0.189 C 
BRANCH   5   6
HETATM    6  C           1     -19.743  -4.651  -6.571  0.00  0.00     0.197 C 
HETATM    7  O           1     -19.841  -4.314  -5.371  0.00  0.00    -0.646 OA
HETATM    8  O           1     -18.697  -4.400  -7.208  0.00  0.00    -0.646 OA
ENDBRANCH   5   6
BRANCH   5   9
HETATM    9  C           1     -21.963  -4.353  -7.627  0.00  0.00     0.074 C 
BRANCH   9  10
HETATM   10  C           1     -21.949  -4.136  -9.107  0.00  0.00    -0.056 A 
HETATM   11  C           1     -20.780  -4.360  -9.834  0.00  0.00     0.010 A 
HETATM   12  C           1     -20.766  -4.157 -11.214  0.00  0.00     0.037 A 
HETATM   13  C           1     -21.923  -3.731 -11.867  0.00  0.00     0.065 A 
HETATM   14  C           1     -23.092  -3.505 -11.140  0.00  0.00     0.037 A 
HETATM   15  C           1     -23.105  -3.708  -9.761  0.00  0.00     0.010 A 
BRANCH  13  16
HETATM   16  O           1     -21.910  -3.533 -13.208  0.00  0.00    -0.361 OA
HETATM   17  H           1     -22.708  -3.943 -13.579  0.00  0.00     0.217 HD
ENDBRANCH  13  16
ENDBRANCH   9  10
ENDBRANCH   5   9
ENDBRANCH   1   5
BRANCH   2  18
HETATM   18  C           1     -21.270  -8.440  -5.000  0.00  0.00     0.280 C 
BRANCH  18  19
HETATM   19  N           1     -21.131  -9.806  -5.603  0.00  0.00    -0.066 N 
HETATM   20  H           1     -20.130  -9.978  -5.850  0.00  0.00     0.275 HD
HETATM   21  H           1     -21.449 -10.524  -4.914  0.00  0.00     0.275 HD
HETATM   22  H           1     -21.718  -9.867  -6.466  0.00  0.00     0.275 HD
ENDBRANCH  18  19
BRANCH  18  23
HETATM   23  C           1     -20.524  -8.394  -3.672  0.00  0.00     0.101 C 
BRANCH  23  24
HETATM   24  C           1     -21.289  -7.551  -2.699  0.00  0.00     0.028 A 
HETATM   25  N           1     -21.794  -8.002  -1.507  0.00  0.00    -0.355 N 
HETATM   26  C           1     -22.384  -6.962  -0.965  0.00  0.00     0.180 A 
ATOM     27  HN          1     -21.726  -8.944  -1.123  1.00  0.00     0.166 HD
HETATM   28  N           1     -22.280  -5.856  -1.761  0.00  0.00    -0.360 N 
HETATM   29  C           1     -21.578  -6.219  -2.877  0.00  0.00     0.114 A 
HETATM   30  H           1     -22.666  -4.903  -1.553  0.00  0.00     0.166 HD
ENDBRANCH  23  24
ENDBRANCH  18  23
ENDBRANCH   2  18
TORSDOF 9
ENDMDL
MODEL 2
REMARK VINA RESULT:      -7.8      3.045      8.059
REMARK  9 active torsions:
REMARK  status: ('A' for Active; 'I' for Inactive)
REMARK    1  A    between atoms: N_4  and  C_7 
REMARK    2  A    between atoms: N_6  and  C_13 
REMARK       I    between atoms: N_6  and  C_9 
REMARK    3  A    between atoms: C_7  and  C_9 
REMARK    4  A    between atoms: C_7  and  C_8 
REMARK    5  A    between atoms: C_8  and  C_14 
REMARK    6  A    between atoms: C_11  and  C_13 
REMARK    7  A    between atoms: C_13  and  C_20 
REMARK    8  A    between atoms: C_20  and  C_29 
REMARK    9  A    between atoms: O_23  and  C_26 
ROOT
HETATM    1  N           1     -21.674  -5.189  -7.864  0.00  0.00    -0.344 N 
HETATM    2  C           1     -22.927  -4.685  -8.086  0.00  0.00     0.249 C 
HETATM    3  H           1     -21.070  -5.407  -8.645  0.00  0.00     0.163 HD
HETATM    4  O           1     -23.648  -4.424  -7.153  0.00  0.00    -0.271 OA
ENDROOT
BRANCH   1   5
HETATM    5  C           1     -21.211  -5.410  -6.508  0.00  0.00     0.189 C 
BRANCH   5   6
HETATM    6  C           1     -19.852  -4.779  -6.331  0.00  0.00     0.197 C 
HETATM    7  O           1     -19.523  -4.301  -5.223  0.00  0.00    -0.646 OA
HETATM    8  O           1     -19.054  -4.734  -7.292  0.00  0.00    -0.646 OA
ENDBRANCH   5   6
BRANCH   5   9
HETATM    9  C           1     -21.116  -6.906  -6.242  0.00  0.00     0.074 C 
BRANCH   9  10
HETATM   10  C           1     -21.117  -7.153  -4.766  0.00  0.00    -0.056 A 
HETATM   11  C           1     -21.918  -6.375  -3.929  0.00  0.00     0.010 A 
HETATM   12  C           1     -21.920  -6.604  -2.553  0.00  0.00     0.037 A 
HETATM   13  C           1     -21.120  -7.611  -2.014  0.00  0.00     0.065 A 
HETATM   14  C           1     -20.317  -8.388  -2.850  0.00  0.00     0.037 A 
HETATM   15  C           1     -20.316  -8.158  -4.225  0.00  0.00     0.010 A 
BRANCH  13  16
HETATM   16  O           1     -21.120  -7.833  -0.677  0.00  0.00    -0.361 OA
HETATM   17  H           1     -20.290  -7.482  -0.314  0.00  0.00     0.217 HD
ENDBRANCH  13  16
ENDBRANCH   9  10
ENDBRANCH   5   9
ENDBRANCH   1   5
BRANCH   2  18
HETATM   18  C           1     -23.408  -4.455  -9.498  0.00  0.00     0.280 C 
BRANCH  18  19
HETATM   19  N           1     -24.907  -4.501  -9.529  0.00  0.00    -0.066 N 
HETATM   20  H           1     -25.286  -4.124  -8.631  0.00  0.00     0.275 HD
HETATM   21  H           1     -25.256  -3.922 -10.326  0.00  0.00     0.275 HD
HETATM   22  H           1     -25.222  -5.490  -9.653  0.00  0.00     0.275 HD
ENDBRANCH  18  19
BRANCH  18  23
HETATM   23  C           1     -22.932  -3.091  -9.981  0.00  0.00     0.101 C 
BRANCH  23  24
HETATM   24  C           1     -22.884  -3.080 -11.477  0.00  0.00     0.028 A 
HETATM   25  N           1     -23.867  -2.570 -12.285  0.00  0.00    -0.355 N 
HETATM   26  C           1     -23.438  -2.753 -13.512  0.00  0.00     0.180 A 
ATOM     27  HN          1     -24.745  -2.139 -11.994  1.00  0.00     0.166 HD
HETATM   28  N           1     -22.215  -3.362 -13.529  0.00  0.00    -0.360 N 
HETATM   29  C           1     -21.846  -3.577 -12.229  0.00  0.00     0.114 A 
HETATM   30  H           1     -21.661  -3.618 -14.382  0.00  0.00     0.166 HD
ENDBRANCH  23  24
ENDBRANCH  18  23
ENDBRANCH   2  18
TORSDOF 9
ENDMDL
MODEL 3
REMARK VINA RESULT:      -7.6     11.842     14.400
REMARK  9 active torsions:
REMARK  status: ('A' for Active; 'I' for Inactive)
REMARK    1  A    between atoms: N_4  and  C_7 
REMARK    2  A    between atoms: N_6  and  C_13 
REMARK       I    between atoms: N_6  and  C_9 
REMARK    3  A    between atoms: C_7  and  C_9 
REMARK    4  A    between atoms: C_7  and  C_8 
REMARK    5  A    between atoms: C_8  and  C_14 
REMARK    6  A    between atoms: C_11  and  C_13 
REMARK    7  A    between atoms: C_13  and  C_20 
REMARK    8  A    between atoms: C_20  and  C_29 
REMARK    9  A    between atoms: O_23  and  C_26 
ROOT
HETATM    1  N           1     -28.734  -6.256 -17.077  0.00  0.00    -0.344 N 
HETATM    2  C           1     -29.849  -6.858 -17.596  0.00  0.00     0.249 C 
HETATM    3  H           1     -28.798  -5.327 -16.683  0.00  0.00     0.163 HD
HETATM    4  O           1     -29.773  -7.968 -18.066  0.00  0.00    -0.271 OA
ENDROOT
BRANCH   1   5
HETATM    5  C           1     -27.462  -6.951 -17.091  0.00  0.00     0.189 C 
BRANCH   5   6
HETATM    6  C           1     -27.050  -7.276 -15.676  0.00  0.00     0.197 C 
HETATM    7  O           1     -27.920  -7.536 -14.816  0.00  0.00    -0.646 OA
HETATM    8  O           1     -25.840  -7.287 -15.364  0.00  0.00    -0.646 OA
ENDBRANCH   5   6
BRANCH   5   9
HETATM    9  C           1     -26.406  -6.063 -17.737  0.00  0.00     0.074 C 
BRANCH   9  10
HETATM   10  C           1     -25.876  -6.730 -18.967  0.00  0.00    -0.056 A 
HETATM   11  C           1     -26.733  -7.017 -20.029  0.00  0.00     0.010 A 
HETATM   12  C           1     -26.240  -7.639 -21.176  0.00  0.00     0.037 A 
HETATM   13  C           1     -24.889  -7.974 -21.260  0.00  0.00     0.065 A 
HETATM   14  C           1     -24.031  -7.688 -20.198  0.00  0.00     0.037 A 
HETATM   15  C           1     -24.525  -7.066 -19.052  0.00  0.00     0.010 A 
BRANCH  13  16
HETATM   16  O           1     -24.409  -8.579 -22.374  0.00  0.00    -0.361 OA
HETATM   17  H           1     -24.050  -7.891 -22.958  0.00  0.00     0.217 HD
ENDBRANCH  13  16
ENDBRANCH   9  10
ENDBRANCH   5   9
ENDBRANCH   1   5
BRANCH   2  18
HETATM   18  C           1     -31.173  -6.134 -17.580  0.00  0.00     0.280 C 
BRANCH  18  19
HETATM   19  N           1     -32.276  -7.115 -17.318  0.00  0.00    -0.066 N 
HETATM   20  H           1     -32.268  -7.387 -16.309  0.00  0.00     0.275 HD
HETATM   21  H           1     -33.195  -6.676 -17.554  0.00  0.00     0.275 HD
HETATM   22  H           1     -32.134  -7.965 -17.909  0.00  0.00     0.275 HD
ENDBRANCH  18  19
BRANCH  18  23
HETATM   23  C           1     -31.161  -5.078 -16.483  0.00  0.00     0.101 C 
BRANCH  23  24
HETATM   24  C           1     -32.451  -4.317 -16.507  0.00  0.00     0.028 A 
HETATM   25  N           1     -33.430  -4.414 -15.552  0.00  0.00    -0.355 N 
HETATM   26  C           1     -34.378  -3.595 -15.943  0.00  0.00     0.180 A 
ATOM     27  HN          1     -33.423  -4.998 -14.716  1.00  0.00     0.166 HD
HETATM   28  N           1     -34.050  -2.973 -17.115  0.00  0.00    -0.360 N 
HETATM   29  C           1     -32.815  -3.426 -17.488  0.00  0.00     0.114 A 
HETATM   30  H           1     -34.638  -2.274 -17.632  0.00  0.00     0.166 HD
ENDBRANCH  23  24
ENDBRANCH  18  23
ENDBRANCH   2  18
TORSDOF 9
ENDMDL
MODEL 4
REMARK VINA RESULT:      -7.6      2.659      7.719
REMARK  9 active torsions:
REMARK  status: ('A' for Active; 'I' for Inactive)
REMARK    1  A    between atoms: N_4  and  C_7 
REMARK    2  A    between atoms: N_6  and  C_13 
REMARK       I    between atoms: N_6  and  C_9 
REMARK    3  A    between atoms: C_7  and  C_9 
REMARK    4  A    between atoms: C_7  and  C_8 
REMARK    5  A    between atoms: C_8  and  C_14 
REMARK    6  A    between atoms: C_11  and  C_13 
REMARK    7  A    between atoms: C_13  and  C_20 
REMARK    8  A    between atoms: C_20  and  C_29 
REMARK    9  A    between atoms: O_23  and  C_26 
ROOT
HETATM    1  N           1     -20.419  -6.716  -6.158  0.00  0.00    -0.344 N 
HETATM    2  C           1     -20.511  -5.352  -6.084  0.00  0.00     0.249 C 
HETATM    3  H           1     -20.513  -7.181  -7.051  0.00  0.00     0.163 HD
HETATM    4  O           1     -20.398  -4.796  -5.017  0.00  0.00    -0.271 OA
ENDROOT
BRANCH   1   5
HETATM    5  C           1     -20.186  -7.493  -4.957  0.00  0.00     0.189 C 
BRANCH   5   6
HETATM    6  C           1     -19.107  -8.515  -5.221  0.00  0.00     0.197 C 
HETATM    7  O           1     -18.576  -8.587  -6.351  0.00  0.00    -0.646 OA
HETATM    8  O           1     -18.744  -9.290  -4.310  0.00  0.00    -0.646 OA
ENDBRANCH   5   6
BRANCH   5   9
HETATM    9  C           1     -21.472  -8.203  -4.555  0.00  0.00     0.074 C 
BRANCH   9  10
HETATM   10  C           1     -21.681  -8.062  -3.081  0.00  0.00    -0.056 A 
HETATM   11  C           1     -21.613  -9.185  -2.256  0.00  0.00     0.010 A 
HETATM   12  C           1     -21.808  -9.054  -0.880  0.00  0.00     0.037 A 
HETATM   13  C           1     -22.071  -7.800  -0.331  0.00  0.00     0.065 A 
HETATM   14  C           1     -22.141  -6.677  -1.155  0.00  0.00     0.037 A 
HETATM   15  C           1     -21.946  -6.809  -2.530  0.00  0.00     0.010 A 
BRANCH  13  16
HETATM   16  O           1     -22.262  -7.672   1.005  0.00  0.00    -0.361 OA
HETATM   17  H           1     -21.571  -8.185   1.457  0.00  0.00     0.217 HD
ENDBRANCH  13  16
ENDBRANCH   9  10
ENDBRANCH   5   9
ENDBRANCH   1   5
BRANCH   2  18
HETATM   18  C           1     -20.753  -4.542  -7.334  0.00  0.00     0.280 C 
BRANCH  18  19
HETATM   19  N           1     -19.438  -4.165  -7.948  0.00  0.00    -0.066 N 
HETATM   20  H           1     -18.999  -3.399  -7.389  0.00  0.00     0.275 HD
HETATM   21  H           1     -18.807  -4.998  -7.955  0.00  0.00     0.275 HD
HETATM   22  H           1     -19.593  -3.838  -8.928  0.00  0.00     0.275 HD
ENDBRANCH  18  19
BRANCH  18  23
HETATM   23  C           1     -21.558  -5.371  -8.327  0.00  0.00     0.101 C 
BRANCH  23  24
HETATM   24  C           1     -22.576  -4.500  -8.996  0.00  0.00     0.028 A 
HETATM   25  N           1     -23.734  -4.063  -8.408  0.00  0.00    -0.355 N 
HETATM   26  C           1     -24.334  -3.336  -9.322  0.00  0.00     0.180 A 
ATOM     27  HN          1     -24.061  -4.260  -7.463  1.00  0.00     0.166 HD
HETATM   28  N           1     -23.607  -3.286 -10.478  0.00  0.00    -0.360 N 
HETATM   29  C           1     -22.475  -4.029 -10.283  0.00  0.00     0.114 A 
HETATM   30  H           1     -23.869  -2.772 -11.355  0.00  0.00     0.166 HD
ENDBRANCH  23  24
ENDBRANCH  18  23
ENDBRANCH   2  18
TORSDOF 9
ENDMDL
MODEL 5
REMARK VINA RESULT:      -7.5      1.631      2.423
REMARK  9 active torsions:
REMARK  status: ('A' for Active; 'I' for Inactive)
REMARK    1  A    between atoms: N_4  and  C_7 
REMARK    2  A    between atoms: N_6  and  C_13 
REMARK       I    between atoms: N_6  and  C_9 
REMARK    3  A    between atoms: C_7  and  C_9 
REMARK    4  A    between atoms: C_7  and  C_8 
REMARK    5  A    between atoms: C_8  and  C_14 
REMARK    6  A    between atoms: C_11  and  C_13 
REMARK    7  A    between atoms: C_13  and  C_20 
REMARK    8  A    between atoms: C_20  and  C_29 
REMARK    9  A    between atoms: O_23  and  C_26 
ROOT
HETATM    1  N           1     -21.020  -5.140  -5.153  0.00  0.00    -0.344 N 
HETATM    2  C           1     -21.326  -6.245  -4.404  0.00  0.00     0.249 C 
HETATM    3  H           1     -20.790  -4.268  -4.696  0.00  0.00     0.163 HD
HETATM    4  O           1     -21.600  -7.288  -4.950  0.00  0.00    -0.271 OA
ENDROOT
BRANCH   1   5
HETATM    5  C           1     -21.025  -5.221  -6.600  0.00  0.00     0.189 C 
BRANCH   5   6
HETATM    6  C           1     -19.634  -5.539  -7.091  0.00  0.00     0.197 C 
HETATM    7  O           1     -18.795  -4.622  -7.228  0.00  0.00    -0.646 OA
HETATM    8  O           1     -19.319  -6.719  -7.359  0.00  0.00    -0.646 OA
ENDBRANCH   5   6
BRANCH   5   9
HETATM    9  C           1     -21.477  -3.888  -7.181  0.00  0.00     0.074 C 
BRANCH   9  10
HETATM   10  C           1     -22.039  -4.104  -8.551  0.00  0.00    -0.056 A 
HETATM   11  C           1     -23.409  -4.302  -8.720  0.00  0.00     0.010 A 
HETATM   12  C           1     -23.933  -4.504  -9.997  0.00  0.00     0.037 A 
HETATM   13  C           1     -23.086  -4.508 -11.105  0.00  0.00     0.065 A 
HETATM   14  C           1     -21.716  -4.312 -10.936  0.00  0.00     0.037 A 
HETATM   15  C           1     -21.192  -4.110  -9.660  0.00  0.00     0.010 A 
BRANCH  13  16
HETATM   16  O           1     -23.595  -4.705 -12.345  0.00  0.00    -0.361 OA
HETATM   17  H           1     -24.539  -4.477 -12.323  0.00  0.00     0.217 HD
ENDBRANCH  13  16
ENDBRANCH   9  10
ENDBRANCH   5   9
ENDBRANCH   1   5
BRANCH   2  18
HETATM   18  C           1     -21.321  -6.161  -2.897  0.00  0.00     0.280 C 
BRANCH  18  19
HETATM   19  N           1     -22.726  -5.992  -2.402  0.00  0.00    -0.066 N 
HETATM   20  H           1     -23.186  -6.928  -2.332  0.00  0.00     0.275 HD
HETATM   21  H           1     -22.710  -5.541  -1.459  0.00  0.00     0.275 HD
HETATM   22  H           1     -23.260  -5.390  -3.068  0.00  0.00     0.275 HD
ENDBRANCH  18  19
BRANCH  18  23
HETATM   23  C           1     -20.728  -7.440  -2.320  0.00  0.00     0.101 C 
BRANCH  23  24
HETATM   24  C           1     -21.660  -8.003  -1.292  0.00  0.00     0.028 A 
HETATM   25  N           1     -22.034  -7.356  -0.142  0.00  0.00    -0.355 N 
HETATM   26  C           1     -22.849  -8.183   0.471  0.00  0.00     0.180 A 
ATOM     27  HN          1     -21.742  -6.430   0.170  1.00  0.00     0.166 HD
HETATM   28  N           1     -23.016  -9.339  -0.238  0.00  0.00    -0.360 N 
HETATM   29  C           1     -22.259  -9.237  -1.373  0.00  0.00     0.114 A 
HETATM   30  H           1     -23.615 -10.155   0.038  0.00  0.00     0.166 HD
ENDBRANCH  23  24
ENDBRANCH  18  23
ENDBRANCH   2  18
TORSDOF 9
ENDMDL
MODEL 6
REMARK VINA RESULT:      -7.2      2.747      7.962
REMARK  9 active torsions:
REMARK  status: ('A' for Active; 'I' for Inactive)
REMARK    1  A    between atoms: N_4  and  C_7 
REMARK    2  A    between atoms: N_6  and  C_13 
REMARK       I    between atoms: N_6  and  C_9 
REMARK    3  A    between atoms: C_7  and  C_9 
REMARK    4  A    between atoms: C_7  and  C_8 
REMARK    5  A    between atoms: C_8  and  C_14 
REMARK    6  A    between atoms: C_11  and  C_13 
REMARK    7  A    between atoms: C_13  and  C_20 
REMARK    8  A    between atoms: C_20  and  C_29 
REMARK    9  A    between atoms: O_23  and  C_26 
ROOT
HETATM    1  N           1     -20.941  -8.218  -4.417  0.00  0.00    -0.344 N 
HETATM    2  C           1     -20.711  -7.391  -5.484  0.00  0.00     0.249 C 
HETATM    3  H           1     -21.810  -8.149  -3.902  0.00  0.00     0.163 HD
HETATM    4  O           1     -19.675  -7.474  -6.099  0.00  0.00    -0.271 OA
ENDROOT
BRANCH   1   5
HETATM    5  C           1     -19.942  -9.192  -4.026  0.00  0.00     0.189 C 
BRANCH   5   6
HETATM    6  C           1     -20.556 -10.571  -4.031  0.00  0.00     0.197 C 
HETATM    7  O           1     -19.856 -11.568  -3.748  0.00  0.00    -0.646 OA
HETATM    8  O           1     -21.764 -10.717  -4.318  0.00  0.00    -0.646 OA
ENDBRANCH   5   6
BRANCH   5   9
HETATM    9  C           1     -19.437  -8.866  -2.626  0.00  0.00     0.074 C 
BRANCH   9  10
HETATM   10  C           1     -20.598  -8.555  -1.735  0.00  0.00    -0.056 A 
HETATM   11  C           1     -21.160  -7.279  -1.741  0.00  0.00     0.010 A 
HETATM   12  C           1     -22.242  -6.988  -0.910  0.00  0.00     0.037 A 
HETATM   13  C           1     -22.763  -7.976  -0.074  0.00  0.00     0.065 A 
HETATM   14  C           1     -22.201  -9.252  -0.067  0.00  0.00     0.037 A 
HETATM   15  C           1     -21.119  -9.542  -0.898  0.00  0.00     0.010 A 
BRANCH  13  16
HETATM   16  O           1     -23.814  -7.694   0.734  0.00  0.00    -0.361 OA
HETATM   17  H           1     -23.544  -7.871   1.650  0.00  0.00     0.217 HD
ENDBRANCH  13  16
ENDBRANCH   9  10
ENDBRANCH   5   9
ENDBRANCH   1   5
BRANCH   2  18
HETATM   18  C           1     -21.751  -6.377  -5.892  0.00  0.00     0.280 C 
BRANCH  18  19
HETATM   19  N           1     -22.724  -6.180  -4.767  0.00  0.00    -0.066 N 
HETATM   20  H           1     -23.330  -5.353  -4.971  0.00  0.00     0.275 HD
HETATM   21  H           1     -23.319  -7.033  -4.670  0.00  0.00     0.275 HD
HETATM   22  H           1     -22.200  -6.017  -3.878  0.00  0.00     0.275 HD
ENDBRANCH  18  19
BRANCH  18  23
HETATM   23  C           1     -21.071  -5.053  -6.212  0.00  0.00     0.101 C 
BRANCH  23  24
HETATM   24  C           1     -21.588  -4.527  -7.515  0.00  0.00     0.028 A 
HETATM   25  N           1     -22.864  -4.070  -7.720  0.00  0.00    -0.355 N 
HETATM   26  C           1     -22.905  -3.706  -8.980  0.00  0.00     0.180 A 
ATOM     27  HN          1     -23.621  -4.023  -7.038  1.00  0.00     0.166 HD
HETATM   28  N           1     -21.704  -3.909  -9.599  0.00  0.00    -0.360 N 
HETATM   29  C           1     -20.848  -4.436  -8.670  0.00  0.00     0.114 A 
HETATM   30  H           1     -21.478  -3.700 -10.602  0.00  0.00     0.166 HD
ENDBRANCH  23  24
ENDBRANCH  18  23
ENDBRANCH   2  18
TORSDOF 9
ENDMDL
MODEL 7
REMARK VINA RESULT:      -7.1      2.665      8.040
REMARK  9 active torsions:
REMARK  status: ('A' for Active; 'I' for Inactive)
REMARK    1  A    between atoms: N_4  and  C_7 
REMARK    2  A    between atoms: N_6  and  C_13 
REMARK       I    between atoms: N_6  and  C_9 
REMARK    3  A    between atoms: C_7  and  C_9 
REMARK    4  A    between atoms: C_7  and  C_8 
REMARK    5  A    between atoms: C_8  and  C_14 
REMARK    6  A    between atoms: C_11  and  C_13 
REMARK    7  A    between atoms: C_13  and  C_20 
REMARK    8  A    between atoms: C_20  and  C_29 
REMARK    9  A    between atoms: O_23  and  C_26 
ROOT
HETATM    1  N           1     -21.035  -7.568  -5.373  0.00  0.00    -0.344 N 
HETATM    2  C           1     -21.176  -6.206  -5.418  0.00  0.00     0.249 C 
HETATM    3  H           1     -21.380  -8.137  -6.135  0.00  0.00     0.163 HD
HETATM    4  O           1     -20.764  -5.526  -4.510  0.00  0.00    -0.271 OA
ENDROOT
BRANCH   1   5
HETATM    5  C           1     -20.390  -8.192  -4.235  0.00  0.00     0.189 C 
BRANCH   5   6
HETATM    6  C           1     -19.069  -8.781  -4.666  0.00  0.00     0.197 C 
HETATM    7  O           1     -18.814  -8.922  -5.882  0.00  0.00    -0.646 OA
HETATM    8  O           1     -18.229  -9.127  -3.808  0.00  0.00    -0.646 OA
ENDBRANCH   5   6
BRANCH   5   9
HETATM    9  C           1     -21.285  -9.296  -3.688  0.00  0.00     0.074 C 
BRANCH   9  10
HETATM   10  C           1     -21.828  -8.886  -2.356  0.00  0.00    -0.056 A 
HETATM   11  C           1     -21.757  -7.552  -1.955  0.00  0.00     0.010 A 
HETATM   12  C           1     -22.263  -7.168  -0.712  0.00  0.00     0.037 A 
HETATM   13  C           1     -22.839  -8.120   0.129  0.00  0.00     0.065 A 
HETATM   14  C           1     -22.909  -9.454  -0.271  0.00  0.00     0.037 A 
HETATM   15  C           1     -22.403  -9.837  -1.513  0.00  0.00     0.010 A 
BRANCH  13  16
HETATM   16  O           1     -23.330  -7.748   1.336  0.00  0.00    -0.361 OA
HETATM   17  H           1     -22.796  -7.005   1.661  0.00  0.00     0.217 HD
ENDBRANCH  13  16
ENDBRANCH   9  10
ENDBRANCH   5   9
ENDBRANCH   1   5
BRANCH   2  18
HETATM   18  C           1     -21.848  -5.556  -6.604  0.00  0.00     0.280 C 
BRANCH  18  19
HETATM   19  N           1     -23.220  -5.098  -6.211  0.00  0.00    -0.066 N 
HETATM   20  H           1     -23.661  -5.812  -5.588  0.00  0.00     0.275 HD
HETATM   21  H           1     -23.150  -4.187  -5.703  0.00  0.00     0.275 HD
HETATM   22  H           1     -23.805  -4.975  -7.068  0.00  0.00     0.275 HD
ENDBRANCH  18  19
BRANCH  18  23
HETATM   23  C           1     -21.024  -4.359  -7.060  0.00  0.00     0.101 C 
BRANCH  23  24
HETATM   24  C           1     -21.053  -4.273  -8.554  0.00  0.00     0.028 A 
HETATM   25  N           1     -20.029  -4.661  -9.378  0.00  0.00    -0.355 N 
HETATM   26  C           1     -20.453  -4.423 -10.597  0.00  0.00     0.180 A 
ATOM     27  HN          1     -19.128  -5.053  -9.102  1.00  0.00     0.166 HD
HETATM   28  N           1     -21.714  -3.895 -10.593  0.00  0.00    -0.360 N 
HETATM   29  C           1     -22.112  -3.794  -9.288  0.00  0.00     0.114 A 
HETATM   30  H           1     -22.274  -3.619 -11.436  0.00  0.00     0.166 HD
ENDBRANCH  23  24
ENDBRANCH  18  23
ENDBRANCH   2  18
TORSDOF 9
ENDMDL
MODEL 8
REMARK VINA RESULT:      -7.0      4.220      9.094
REMARK  9 active torsions:
REMARK  status: ('A' for Active; 'I' for Inactive)
REMARK    1  A    between atoms: N_4  and  C_7 
REMARK    2  A    between atoms: N_6  and  C_13 
REMARK       I    between atoms: N_6  and  C_9 
REMARK    3  A    between atoms: C_7  and  C_9 
REMARK    4  A    between atoms: C_7  and  C_8 
REMARK    5  A    between atoms: C_8  and  C_14 
REMARK    6  A    between atoms: C_11  and  C_13 
REMARK    7  A    between atoms: C_13  and  C_20 
REMARK    8  A    between atoms: C_20  and  C_29 
REMARK    9  A    between atoms: O_23  and  C_26 
ROOT
HETATM    1  N           1     -21.247  -8.231  -2.443  0.00  0.00    -0.344 N 
HETATM    2  C           1     -21.335  -8.995  -3.576  0.00  0.00     0.249 C 
HETATM    3  H           1     -20.622  -7.436  -2.416  0.00  0.00     0.163 HD
HETATM    4  O           1     -22.082  -9.944  -3.608  0.00  0.00    -0.271 OA
ENDROOT
BRANCH   1   5
HETATM    5  C           1     -22.052  -8.560  -1.283  0.00  0.00     0.189 C 
BRANCH   5   6
HETATM    6  C           1     -22.597  -7.292  -0.673  0.00  0.00     0.197 C 
HETATM    7  O           1     -22.386  -6.191  -1.226  0.00  0.00    -0.646 OA
HETATM    8  O           1     -23.260  -7.342   0.386  0.00  0.00    -0.646 OA
ENDBRANCH   5   6
BRANCH   5   9
HETATM    9  C           1     -21.190  -9.287  -0.258  0.00  0.00     0.074 C 
BRANCH   9  10
HETATM   10  C           1     -21.832 -10.591   0.099  0.00  0.00    -0.056 A 
HETATM   11  C           1     -21.094 -11.575   0.756  0.00  0.00     0.010 A 
HETATM   12  C           1     -21.692 -12.790   1.090  0.00  0.00     0.037 A 
HETATM   13  C           1     -23.029 -13.021   0.765  0.00  0.00     0.065 A 
HETATM   14  C           1     -23.767 -12.038   0.107  0.00  0.00     0.037 A 
HETATM   15  C           1     -23.169 -10.823  -0.226  0.00  0.00     0.010 A 
BRANCH  13  16
HETATM   16  O           1     -23.610 -14.202   1.088  0.00  0.00    -0.361 OA
HETATM   17  H           1     -23.222 -14.509   1.924  0.00  0.00     0.217 HD
ENDBRANCH  13  16
ENDBRANCH   9  10
ENDBRANCH   5   9
ENDBRANCH   1   5
BRANCH   2  18
HETATM   18  C           1     -20.497  -8.653  -4.784  0.00  0.00     0.280 C 
BRANCH  18  19
HETATM   19  N           1     -20.007  -9.916  -5.427  0.00  0.00    -0.066 N 
HETATM   20  H           1     -19.700  -9.713  -6.404  0.00  0.00     0.275 HD
HETATM   21  H           1     -19.202 -10.294  -4.879  0.00  0.00     0.275 HD
HETATM   22  H           1     -20.779 -10.620  -5.443  0.00  0.00     0.275 HD
ENDBRANCH  18  19
BRANCH  18  23
HETATM   23  C           1     -21.342  -7.870  -5.781  0.00  0.00     0.101 C 
BRANCH  23  24
HETATM   24  C           1     -20.693  -6.549  -6.057  0.00  0.00     0.028 A 
HETATM   25  N           1     -19.957  -6.262  -7.178  0.00  0.00    -0.355 N 
HETATM   26  C           1     -19.574  -5.015  -7.031  0.00  0.00     0.180 A 
ATOM     27  HN          1     -19.751  -6.885  -7.959  1.00  0.00     0.166 HD
HETATM   28  N           1     -20.033  -4.485  -5.859  0.00  0.00    -0.360 N 
HETATM   29  C           1     -20.755  -5.458  -5.223  0.00  0.00     0.114 A 
HETATM   30  H           1     -19.865  -3.510  -5.510  0.00  0.00     0.166 HD
ENDBRANCH  23  24
ENDBRANCH  18  23
ENDBRANCH   2  18
TORSDOF 9
ENDMDL
MODEL 9
REMARK VINA RESULT:      -7.0     11.374     14.666
REMARK  9 active torsions:
REMARK  status: ('A' for Active; 'I' for Inactive)
REMARK    1  A    between atoms: N_4  and  C_7 
REMARK    2  A    between atoms: N_6  and  C_13 
REMARK       I    between atoms: N_6  and  C_9 
REMARK    3  A    between atoms: C_7  and  C_9 
REMARK    4  A    between atoms: C_7  and  C_8 
REMARK    5  A    between atoms: C_8  and  C_14 
REMARK    6  A    between atoms: C_11  and  C_13 
REMARK    7  A    between atoms: C_13  and  C_20 
REMARK    8  A    between atoms: C_20  and  C_29 
REMARK    9  A    between atoms: O_23  and  C_26 
ROOT
HETATM    1  N           1     -26.253  -6.704 -18.169  0.00  0.00    -0.344 N 
HETATM    2  C           1     -26.891  -6.163 -19.253  0.00  0.00     0.249 C 
HETATM    3  H           1     -25.455  -7.310 -18.303  0.00  0.00     0.163 HD
HETATM    4  O           1     -27.844  -5.438 -19.093  0.00  0.00    -0.271 OA
ENDROOT
BRANCH   1   5
HETATM    5  C           1     -26.721  -6.408 -16.829  0.00  0.00     0.189 C 
BRANCH   5   6
HETATM    6  C           1     -25.556  -6.439 -15.871  0.00  0.00     0.197 C 
HETATM    7  O           1     -25.228  -7.512 -15.319  0.00  0.00    -0.646 OA
HETATM    8  O           1     -24.917  -5.391 -15.629  0.00  0.00    -0.646 OA
ENDBRANCH   5   6
BRANCH   5   9
HETATM    9  C           1     -27.752  -7.448 -16.411  0.00  0.00     0.074 C 
BRANCH   9  10
HETATM   10  C           1     -29.127  -6.878 -16.563  0.00  0.00    -0.056 A 
HETATM   11  C           1     -29.508  -5.765 -15.813  0.00  0.00     0.010 A 
HETATM   12  C           1     -30.790  -5.234 -15.954  0.00  0.00     0.037 A 
HETATM   13  C           1     -31.691  -5.816 -16.845  0.00  0.00     0.065 A 
HETATM   14  C           1     -31.311  -6.930 -17.594  0.00  0.00     0.037 A 
HETATM   15  C           1     -30.030  -7.461 -17.452  0.00  0.00     0.010 A 
BRANCH  13  16
HETATM   16  O           1     -32.937  -5.301 -16.982  0.00  0.00    -0.361 OA
HETATM   17  H           1     -32.892  -4.572 -17.623  0.00  0.00     0.217 HD
ENDBRANCH  13  16
ENDBRANCH   9  10
ENDBRANCH   5   9
ENDBRANCH   1   5
BRANCH   2  18
HETATM   18  C           1     -26.404  -6.472 -20.647  0.00  0.00     0.280 C 
BRANCH  18  19
HETATM   19  N           1     -25.180  -5.656 -20.940  0.00  0.00    -0.066 N 
HETATM   20  H           1     -24.560  -6.181 -21.597  0.00  0.00     0.275 HD
HETATM   21  H           1     -25.463  -4.750 -21.377  0.00  0.00     0.275 HD
HETATM   22  H           1     -24.665  -5.469 -20.050  0.00  0.00     0.275 HD
ENDBRANCH  18  19
BRANCH  18  23
HETATM   23  C           1     -26.063  -7.953 -20.749  0.00  0.00     0.101 C 
BRANCH  23  24
HETATM   24  C           1     -24.678  -8.111 -21.296  0.00  0.00     0.028 A 
HETATM   25  N           1     -23.590  -8.503 -20.560  0.00  0.00    -0.355 N 
HETATM   26  C           1     -22.586  -8.515 -21.406  0.00  0.00     0.180 A 
ATOM     27  HN          1     -23.566  -8.735 -19.567  1.00  0.00     0.166 HD
HETATM   28  N           1     -22.983  -8.147 -22.660  0.00  0.00    -0.360 N 
HETATM   29  C           1     -24.325  -7.885 -22.605  0.00  0.00     0.114 A 
HETATM   30  H           1     -22.372  -8.078 -23.510  0.00  0.00     0.166 HD
ENDBRANCH  23  24
ENDBRANCH  18  23
ENDBRANCH   2  18
TORSDOF 9
ENDMDL
