MODEL 1
REMARK VINA RESULT:      -7.4      0.000      0.000
REMARK  9 active torsions:
REMARK  status: ('A' for Active; 'I' for Inactive)
REMARK    1  A    between atoms: O_1  and  C_20 
REMARK    2  A    between atoms: C_8  and  C_16 
REMARK    3  A    between atoms: C_8  and  C_13 
REMARK    4  A    between atoms: N_9  and  C_25 
REMARK       I    between atoms: N_9  and  C_15 
REMARK    5  A    between atoms: C_14  and  C_22 
REMARK    6  A    between atoms: C_14  and  C_25 
REMARK    7  A    between atoms: C_15  and  C_16 
REMARK    8  A    between atoms: C_16  and  N_17 
REMARK    9  A    between atoms: C_23  and  C_25 
ROOT
HETATM    1  C           1     -22.159  -5.149  -6.823  0.00  0.00     0.278 C 
ENDROOT
BRANCH   1   2
HETATM    2  C           1     -21.589  -3.835  -7.341  0.00  0.00     0.081 C 
BRANCH   2   3
HETATM    3  C           1     -21.631  -3.829  -8.838  0.00  0.00    -0.056 A 
HETATM    4  C           1     -20.473  -4.098  -9.568  0.00  0.00     0.010 A 
HETATM    5  C           1     -20.513  -4.093 -10.963  0.00  0.00     0.037 A 
HETATM    6  C           1     -21.708  -3.819 -11.626  0.00  0.00     0.065 A 
HETATM    7  C           1     -22.865  -3.550 -10.896  0.00  0.00     0.037 A 
HETATM    8  C           1     -22.827  -3.556  -9.501  0.00  0.00     0.010 A 
BRANCH   6   9
HETATM    9  O           1     -21.746  -3.814 -12.981  0.00  0.00    -0.361 OA
HETATM   10  H           1     -21.234  -3.049 -13.292  0.00  0.00     0.217 HD
ENDBRANCH   6   9
ENDBRANCH   2   3
ENDBRANCH   1   2
BRANCH   1  11
HETATM   11  C           1     -21.313  -5.648  -5.677  0.00  0.00     0.249 C 
HETATM   12  N           1     -21.565  -6.875  -5.123  0.00  0.00    -0.344 N 
HETATM   13  H           1     -22.319  -7.447  -5.482  0.00  0.00     0.163 HD
HETATM   14  O           1     -20.413  -4.966  -5.249  0.00  0.00    -0.271 OA
BRANCH  12  15
HETATM   15  C           1     -20.753  -7.354  -4.023  0.00  0.00     0.195 C 
BRANCH  15  16
HETATM   16  C           1     -21.654  -7.924  -2.936  0.00  0.00     0.149 C 
BRANCH  16  17
HETATM   17  C           1     -21.999  -6.838  -1.947  0.00  0.00     0.175 C 
HETATM   18  O           1     -22.269  -7.132  -0.763  0.00  0.00    -0.648 OA
HETATM   19  O           1     -22.016  -5.642  -2.313  0.00  0.00    -0.648 OA
ENDBRANCH  16  17
ENDBRANCH  15  16
BRANCH  15  20
HETATM   20  C           1     -19.820  -8.432  -4.519  0.00  0.00     0.197 C 
HETATM   21  O           1     -18.958  -8.913  -3.752  0.00  0.00    -0.646 OA
HETATM   22  O           1     -19.910  -8.844  -5.696  0.00  0.00    -0.646 OA
ENDBRANCH  15  20
ENDBRANCH  12  15
ENDBRANCH   1  11
BRANCH   1  23
HETATM   23  N           1     -23.565  -4.929  -6.347  0.00  0.00    -0.066 N 
HETATM   24  H           1     -23.906  -5.787  -5.858  0.00  0.00     0.275 HD
HETATM   25  H           1     -24.182  -4.726  -7.165  0.00  0.00     0.275 HD
HETATM   26  H           1     -23.584  -4.120  -5.685  0.00  0.00     0.275 HD
ENDBRANCH   1  23
TORSDOF 9
ENDMDL
MODEL 2
REMARK VINA RESULT:      -7.2      2.231      7.736
REMARK  9 active torsions:
REMARK  status: ('A' for Active; 'I' for Inactive)
REMARK    1  A    between atoms: O_1  and  C_20 
REMARK    2  A    between atoms: C_8  and  C_16 
REMARK    3  A    between atoms: C_8  and  C_13 
REMARK    4  A    between atoms: N_9  and  C_25 
REMARK       I    between atoms: N_9  and  C_15 
REMARK    5  A    between atoms: C_14  and  C_22 
REMARK    6  A    between atoms: C_14  and  C_25 
REMARK    7  A    between atoms: C_15  and  C_16 
REMARK    8  A    between atoms: C_16  and  N_17 
REMARK    9  A    between atoms: C_23  and  C_25 
ROOT
HETATM    1  C           1     -21.106  -5.712  -6.864  0.00  0.00     0.278 C 
ENDROOT
BRANCH   1   2
HETATM    2  C           1     -20.869  -5.245  -5.433  0.00  0.00     0.081 C 
BRANCH   2   3
HETATM    3  C           1     -21.155  -6.371  -4.489  0.00  0.00    -0.056 A 
HETATM    4  C           1     -21.306  -7.669  -4.977  0.00  0.00     0.010 A 
HETATM    5  C           1     -21.572  -8.718  -4.096  0.00  0.00     0.037 A 
HETATM    6  C           1     -21.685  -8.470  -2.729  0.00  0.00     0.065 A 
HETATM    7  C           1     -21.533  -7.172  -2.241  0.00  0.00     0.037 A 
HETATM    8  C           1     -21.268  -6.122  -3.120  0.00  0.00     0.010 A 
BRANCH   6   9
HETATM    9  O           1     -21.943  -9.489  -1.874  0.00  0.00    -0.361 OA
HETATM   10  H           1     -21.616  -9.233  -0.996  0.00  0.00     0.217 HD
ENDBRANCH   6   9
ENDBRANCH   2   3
ENDBRANCH   1   2
BRANCH   1  11
HETATM   11  C           1     -21.670  -4.573  -7.678  0.00  0.00     0.249 C 
HETATM   12  N           1     -22.272  -4.824  -8.883  0.00  0.00    -0.344 N 
HETATM   13  H           1     -22.338  -5.774  -9.226  0.00  0.00     0.163 HD
HETATM   14  O           1     -21.592  -3.440  -7.268  0.00  0.00    -0.271 OA
BRANCH  12  15
HETATM   15  C           1     -22.814  -3.731  -9.664  0.00  0.00     0.195 C 
BRANCH  15  16
HETATM   16  C           1     -22.287  -3.816 -11.090  0.00  0.00     0.149 C 
BRANCH  16  17
HETATM   17  C           1     -20.784  -3.689 -11.080  0.00  0.00     0.175 C 
HETATM   18  O           1     -20.247  -2.586 -11.319  0.00  0.00    -0.648 OA
HETATM   19  O           1     -20.073  -4.688 -10.834  0.00  0.00    -0.648 OA
ENDBRANCH  16  17
ENDBRANCH  15  16
BRANCH  15  20
HETATM   20  C           1     -24.320  -3.822  -9.678  0.00  0.00     0.197 C 
HETATM   21  O           1     -24.878  -4.928  -9.847  0.00  0.00    -0.646 OA
HETATM   22  O           1     -25.010  -2.792  -9.520  0.00  0.00    -0.646 OA
ENDBRANCH  15  20
ENDBRANCH  12  15
ENDBRANCH   1  11
BRANCH   1  23
HETATM   23  N           1     -19.805  -6.158  -7.465  0.00  0.00    -0.066 N 
HETATM   24  H           1     -19.425  -6.961  -6.915  0.00  0.00     0.275 HD
HETATM   25  H           1     -19.122  -5.367  -7.444  0.00  0.00     0.275 HD
HETATM   26  H           1     -19.964  -6.457  -8.454  0.00  0.00     0.275 HD
ENDBRANCH   1  23
TORSDOF 9
ENDMDL
MODEL 3
REMARK VINA RESULT:      -7.1      1.333      1.559
REMARK  9 active torsions:
REMARK  status: ('A' for Active; 'I' for Inactive)
REMARK    1  A    between atoms: O_1  and  C_20 
REMARK    2  A    between atoms: C_8  and  C_16 
REMARK    3  A    between atoms: C_8  and  C_13 
REMARK    4  A    between atoms: N_9  and  C_25 
REMARK       I    between atoms: N_9  and  C_15 
REMARK    5  A    between atoms: C_14  and  C_22 
REMARK    6  A    between atoms: C_14  and  C_25 
REMARK    7  A    between atoms: C_15  and  C_16 
REMARK    8  A    between atoms: C_16  and  N_17 
REMARK    9  A    between atoms: C_23  and  C_25 
ROOT
HETATM    1  C           1     -21.719  -4.612  -7.372  0.00  0.00     0.278 C 
ENDROOT
BRANCH   1   2
HETATM    2  C           1     -21.130  -4.831  -8.759  0.00  0.00     0.081 C 
BRANCH   2   3
HETATM    3  C           1     -22.024  -4.207  -9.785  0.00  0.00    -0.056 A 
HETATM    4  C           1     -21.473  -3.488 -10.845  0.00  0.00     0.010 A 
HETATM    5  C           1     -22.306  -2.906 -11.801  0.00  0.00     0.037 A 
HETATM    6  C           1     -23.689  -3.045 -11.697  0.00  0.00     0.065 A 
HETATM    7  C           1     -24.241  -3.764 -10.637  0.00  0.00     0.037 A 
HETATM    8  C           1     -23.409  -4.346  -9.681  0.00  0.00     0.010 A 
BRANCH   6   9
HETATM    9  O           1     -24.499  -2.480 -12.626  0.00  0.00    -0.361 OA
HETATM   10  H           1     -24.903  -1.690 -12.230  0.00  0.00     0.217 HD
ENDBRANCH   6   9
ENDBRANCH   2   3
ENDBRANCH   1   2
BRANCH   1  11
HETATM   11  C           1     -20.940  -5.418  -6.361  0.00  0.00     0.249 C 
HETATM   12  N           1     -21.541  -6.461  -5.707  0.00  0.00    -0.344 N 
HETATM   13  H           1     -22.507  -6.690  -5.902  0.00  0.00     0.163 HD
HETATM   14  O           1     -19.787  -5.145  -6.129  0.00  0.00    -0.271 OA
BRANCH  12  15
HETATM   15  C           1     -20.794  -7.236  -4.737  0.00  0.00     0.195 C 
BRANCH  15  16
HETATM   16  C           1     -21.693  -7.576  -3.556  0.00  0.00     0.149 C 
BRANCH  16  17
HETATM   17  C           1     -21.828  -6.369  -2.662  0.00  0.00     0.175 C 
HETATM   18  O           1     -22.597  -6.403  -1.677  0.00  0.00    -0.648 OA
HETATM   19  O           1     -21.171  -5.333  -2.905  0.00  0.00    -0.648 OA
ENDBRANCH  16  17
ENDBRANCH  15  16
BRANCH  15  20
HETATM   20  C           1     -20.305  -8.510  -5.381  0.00  0.00     0.197 C 
HETATM   21  O           1     -19.089  -8.652  -5.640  0.00  0.00    -0.646 OA
HETATM   22  O           1     -21.113  -9.423  -5.654  0.00  0.00    -0.646 OA
ENDBRANCH  15  20
ENDBRANCH  12  15
ENDBRANCH   1  11
BRANCH   1  23
HETATM   23  N           1     -21.636  -3.156  -7.019  0.00  0.00    -0.066 N 
HETATM   24  H           1     -21.192  -3.050  -6.079  0.00  0.00     0.275 HD
HETATM   25  H           1     -22.597  -2.747  -6.998  0.00  0.00     0.275 HD
HETATM   26  H           1     -21.060  -2.658  -7.734  0.00  0.00     0.275 HD
ENDBRANCH   1  23
TORSDOF 9
ENDMDL
MODEL 4
REMARK VINA RESULT:      -6.9      1.351      2.978
REMARK  9 active torsions:
REMARK  status: ('A' for Active; 'I' for Inactive)
REMARK    1  A    between atoms: O_1  and  C_20 
REMARK    2  A    between atoms: C_8  and  C_16 
REMARK    3  A    between atoms: C_8  and  C_13 
REMARK    4  A    between atoms: N_9  and  C_25 
REMARK       I    between atoms: N_9  and  C_15 
REMARK    5  A    between atoms: C_14  and  C_22 
REMARK    6  A    between atoms: C_14  and  C_25 
REMARK    7  A    between atoms: C_15  and  C_16 
REMARK    8  A    between atoms: C_16  and  N_17 
REMARK    9  A    between atoms: C_23  and  C_25 
ROOT
HETATM    1  C           1     -21.027  -5.026  -6.242  0.00  0.00     0.278 C 
ENDROOT
BRANCH   1   2
HETATM    2  C           1     -20.713  -5.746  -7.547  0.00  0.00     0.081 C 
BRANCH   2   3
HETATM    3  C           1     -21.162  -4.904  -8.701  0.00  0.00    -0.056 A 
HETATM    4  C           1     -22.471  -4.424  -8.745  0.00  0.00     0.010 A 
HETATM    5  C           1     -22.889  -3.640  -9.821  0.00  0.00     0.037 A 
HETATM    6  C           1     -22.000  -3.335 -10.850  0.00  0.00     0.065 A 
HETATM    7  C           1     -20.691  -3.814 -10.805  0.00  0.00     0.037 A 
HETATM    8  C           1     -20.271  -4.599  -9.731  0.00  0.00     0.010 A 
BRANCH   6   9
HETATM    9  O           1     -22.407  -2.573 -11.894  0.00  0.00    -0.361 OA
HETATM   10  H           1     -22.928  -1.833 -11.540  0.00  0.00     0.217 HD
ENDBRANCH   6   9
ENDBRANCH   2   3
ENDBRANCH   1   2
BRANCH   1  11
HETATM   11  C           1     -21.729  -5.974  -5.301  0.00  0.00     0.249 C 
HETATM   12  N           1     -20.999  -6.783  -4.472  0.00  0.00    -0.344 N 
HETATM   13  H           1     -19.988  -6.745  -4.491  0.00  0.00     0.163 HD
HETATM   14  O           1     -22.936  -6.020  -5.278  0.00  0.00    -0.271 OA
BRANCH  12  15
HETATM   15  C           1     -21.673  -7.694  -3.568  0.00  0.00     0.195 C 
BRANCH  15  16
HETATM   16  C           1     -21.049  -9.078  -3.682  0.00  0.00     0.149 C 
BRANCH  16  17
HETATM   17  C           1     -19.802  -9.000  -4.528  0.00  0.00     0.175 C 
HETATM   18  O           1     -19.886  -9.056  -5.774  0.00  0.00    -0.648 OA
HETATM   19  O           1     -18.683  -8.881  -3.983  0.00  0.00    -0.648 OA
ENDBRANCH  16  17
ENDBRANCH  15  16
BRANCH  15  20
HETATM   20  C           1     -21.531  -7.193  -2.152  0.00  0.00     0.197 C 
HETATM   21  O           1     -20.735  -7.755  -1.368  0.00  0.00    -0.646 OA
HETATM   22  O           1     -22.208  -6.217  -1.763  0.00  0.00    -0.646 OA
ENDBRANCH  15  20
ENDBRANCH  12  15
ENDBRANCH   1  11
BRANCH   1  23
HETATM   23  N           1     -19.749  -4.554  -5.613  0.00  0.00    -0.066 N 
HETATM   24  H           1     -18.984  -4.570  -6.324  0.00  0.00     0.275 HD
HETATM   25  H           1     -19.499  -5.184  -4.818  0.00  0.00     0.275 HD
HETATM   26  H           1     -19.876  -3.578  -5.260  0.00  0.00     0.275 HD
ENDBRANCH   1  23
TORSDOF 9
ENDMDL
MODEL 5
REMARK VINA RESULT:      -6.7      1.396      2.055
REMARK  9 active torsions:
REMARK  status: ('A' for Active; 'I' for Inactive)
REMARK    1  A    between atoms: O_1  and  C_20 
REMARK    2  A    between atoms: C_8  and  C_16 
REMARK    3  A    between atoms: C_8  and  C_13 
REMARK    4  A    between atoms: N_9  and  C_25 
REMARK       I    between atoms: N_9  and  C_15 
REMARK    5  A    between atoms: C_14  and  C_22 
REMARK    6  A    between atoms: C_14  and  C_25 
REMARK    7  A    between atoms: C_15  and  C_16 
REMARK    8  A    between atoms: C_16  and  N_17 
REMARK    9  A    between atoms: C_23  and  C_25 
ROOT
HETATM    1  C           1     -21.940  -6.129  -6.205  0.00  0.00     0.278 C 
ENDROOT
BRANCH   1   2
HETATM    2  C           1     -21.143  -4.860  -6.481  0.00  0.00     0.081 C 
BRANCH   2   3
HETATM    3  C           1     -21.163  -4.568  -7.949  0.00  0.00    -0.056 A 
HETATM    4  C           1     -22.294  -3.994  -8.530  0.00  0.00     0.010 A 
HETATM    5  C           1     -22.312  -3.722  -9.898  0.00  0.00     0.037 A 
HETATM    6  C           1     -21.201  -4.023 -10.684  0.00  0.00     0.065 A 
HETATM    7  C           1     -20.070  -4.597 -10.104  0.00  0.00     0.037 A 
HETATM    8  C           1     -20.051  -4.869  -8.736  0.00  0.00     0.010 A 
BRANCH   6   9
HETATM    9  O           1     -21.219  -3.758 -12.014  0.00  0.00    -0.361 OA
HETATM   10  H           1     -20.701  -4.447 -12.463  0.00  0.00     0.217 HD
ENDBRANCH   6   9
ENDBRANCH   2   3
ENDBRANCH   1   2
BRANCH   1  11
HETATM   11  C           1     -21.147  -7.032  -5.293  0.00  0.00     0.249 C 
HETATM   12  N           1     -21.663  -7.404  -4.079  0.00  0.00    -0.344 N 
HETATM   13  H           1     -22.575  -7.072  -3.795  0.00  0.00     0.163 HD
HETATM   14  O           1     -20.058  -7.428  -5.632  0.00  0.00    -0.271 OA
BRANCH  12  15
HETATM   15  C           1     -20.901  -8.271  -3.203  0.00  0.00     0.195 C 
BRANCH  15  16
HETATM   16  C           1     -20.757  -7.614  -1.837  0.00  0.00     0.149 C 
BRANCH  16  17
HETATM   17  C           1     -21.930  -6.697  -1.593  0.00  0.00     0.175 C 
HETATM   18  O           1     -22.873  -7.069  -0.863  0.00  0.00    -0.648 OA
HETATM   19  O           1     -21.959  -5.564  -2.121  0.00  0.00    -0.648 OA
ENDBRANCH  16  17
ENDBRANCH  15  16
BRANCH  15  20
HETATM   20  C           1     -21.620  -9.590  -3.053  0.00  0.00     0.197 C 
HETATM   21  O           1     -22.111 -10.151  -4.058  0.00  0.00    -0.646 OA
HETATM   22  O           1     -21.724 -10.121  -1.927  0.00  0.00    -0.646 OA
ENDBRANCH  15  20
ENDBRANCH  12  15
ENDBRANCH   1  11
BRANCH   1  23
HETATM   23  N           1     -23.239  -5.769  -5.546  0.00  0.00    -0.066 N 
HETATM   24  H           1     -24.031  -6.174  -6.094  0.00  0.00     0.275 HD
HETATM   25  H           1     -23.335  -4.729  -5.510  0.00  0.00     0.275 HD
HETATM   26  H           1     -23.254  -6.155  -4.575  0.00  0.00     0.275 HD
ENDBRANCH   1  23
TORSDOF 9
ENDMDL
MODEL 6
REMARK VINA RESULT:      -6.4      1.896      2.519
REMARK  9 active torsions:
REMARK  status: ('A' for Active; 'I' for Inactive)
REMARK    1  A    between atoms: O_1  and  C_20 
REMARK    2  A    between atoms: C_8  and  C_16 
REMARK    3  A    between atoms: C_8  and  C_13 
REMARK    4  A    between atoms: N_9  and  C_25 
REMARK       I    between atoms: N_9  and  C_15 
REMARK    5  A    between atoms: C_14  and  C_22 
REMARK    6  A    between atoms: C_14  and  C_25 
REMARK    7  A    between atoms: C_15  and  C_16 
REMARK    8  A    between atoms: C_16  and  N_17 
REMARK    9  A    between atoms: C_23  and  C_25 
ROOT
HETATM    1  C           1     -21.586  -6.306  -5.372  0.00  0.00     0.278 C 
ENDROOT
BRANCH   1   2
HETATM    2  C           1     -20.673  -5.164  -5.801  0.00  0.00     0.081 C 
BRANCH   2   3
HETATM    3  C           1     -21.028  -4.737  -7.191  0.00  0.00    -0.056 A 
HETATM    4  C           1     -20.075  -4.809  -8.207  0.00  0.00     0.010 A 
HETATM    5  C           1     -20.407  -4.411  -9.502  0.00  0.00     0.037 A 
HETATM    6  C           1     -21.689  -3.942  -9.782  0.00  0.00     0.065 A 
HETATM    7  C           1     -22.642  -3.870  -8.766  0.00  0.00     0.037 A 
HETATM    8  C           1     -22.312  -4.268  -7.471  0.00  0.00     0.010 A 
BRANCH   6   9
HETATM    9  O           1     -22.011  -3.556 -11.041  0.00  0.00    -0.361 OA
HETATM   10  H           1     -21.195  -3.268 -11.483  0.00  0.00     0.217 HD
ENDBRANCH   6   9
ENDBRANCH   2   3
ENDBRANCH   1   2
BRANCH   1  11
HETATM   11  C           1     -20.804  -7.597  -5.360  0.00  0.00     0.249 C 
HETATM   12  N           1     -21.227  -8.647  -4.588  0.00  0.00    -0.344 N 
HETATM   13  H           1     -22.063  -8.555  -4.025  0.00  0.00     0.163 HD
HETATM   14  O           1     -19.806  -7.706  -6.032  0.00  0.00    -0.271 OA
BRANCH  12  15
HETATM   15  C           1     -20.476  -9.886  -4.576  0.00  0.00     0.195 C 
BRANCH  15  16
HETATM   16  C           1     -20.331 -10.379  -3.142  0.00  0.00     0.149 C 
BRANCH  16  17
HETATM   17  C           1     -20.860  -9.331  -2.194  0.00  0.00     0.175 C 
HETATM   18  O           1     -22.036  -9.402  -1.777  0.00  0.00    -0.648 OA
HETATM   19  O           1     -20.122  -8.392  -1.825  0.00  0.00    -0.648 OA
ENDBRANCH  16  17
ENDBRANCH  15  16
BRANCH  15  20
HETATM   20  C           1     -21.207 -10.924  -5.392  0.00  0.00     0.197 C 
HETATM   21  O           1     -22.081 -11.639  -4.855  0.00  0.00    -0.646 OA
HETATM   22  O           1     -20.940 -11.067  -6.604  0.00  0.00    -0.646 OA
ENDBRANCH  15  20
ENDBRANCH  12  15
ENDBRANCH   1  11
BRANCH   1  23
HETATM   23  N           1     -22.117  -6.031  -3.997  0.00  0.00    -0.066 N 
HETATM   24  H           1     -22.391  -5.026  -3.923  0.00  0.00     0.275 HD
HETATM   25  H           1     -21.377  -6.243  -3.289  0.00  0.00     0.275 HD
HETATM   26  H           1     -22.952  -6.633  -3.820  0.00  0.00     0.275 HD
ENDBRANCH   1  23
TORSDOF 9
ENDMDL
MODEL 7
REMARK VINA RESULT:      -6.4      2.187      3.666
REMARK  9 active torsions:
REMARK  status: ('A' for Active; 'I' for Inactive)
REMARK    1  A    between atoms: O_1  and  C_20 
REMARK    2  A    between atoms: C_8  and  C_16 
REMARK    3  A    between atoms: C_8  and  C_13 
REMARK    4  A    between atoms: N_9  and  C_25 
REMARK       I    between atoms: N_9  and  C_15 
REMARK    5  A    between atoms: C_14  and  C_22 
REMARK    6  A    between atoms: C_14  and  C_25 
REMARK    7  A    between atoms: C_15  and  C_16 
REMARK    8  A    between atoms: C_16  and  N_17 
REMARK    9  A    between atoms: C_23  and  C_25 
ROOT
HETATM    1  C           1     -20.307  -7.749  -5.088  0.00  0.00     0.278 C 
ENDROOT
BRANCH   1   2
HETATM    2  C           1     -20.916  -6.367  -4.887  0.00  0.00     0.081 C 
BRANCH   2   3
HETATM    3  C           1     -20.979  -5.654  -6.202  0.00  0.00    -0.056 A 
HETATM    4  C           1     -22.164  -5.037  -6.603  0.00  0.00     0.010 A 
HETATM    5  C           1     -22.222  -4.373  -7.829  0.00  0.00     0.037 A 
HETATM    6  C           1     -21.098  -4.324  -8.651  0.00  0.00     0.065 A 
HETATM    7  C           1     -19.913  -4.941  -8.249  0.00  0.00     0.037 A 
HETATM    8  C           1     -19.853  -5.606  -7.024  0.00  0.00     0.010 A 
BRANCH   6   9
HETATM    9  O           1     -21.155  -3.679  -9.841  0.00  0.00    -0.361 OA
HETATM   10  H           1     -21.790  -2.948  -9.755  0.00  0.00     0.217 HD
ENDBRANCH   6   9
ENDBRANCH   2   3
ENDBRANCH   1   2
BRANCH   1  11
HETATM   11  C           1     -20.105  -8.410  -3.746  0.00  0.00     0.249 C 
HETATM   12  N           1     -21.099  -8.367  -2.805  0.00  0.00    -0.344 N 
HETATM   13  H           1     -21.969  -7.893  -3.010  0.00  0.00     0.163 HD
HETATM   14  O           1     -19.067  -8.976  -3.501  0.00  0.00    -0.271 OA
BRANCH  12  15
HETATM   15  C           1     -20.906  -9.001  -1.516  0.00  0.00     0.195 C 
BRANCH  15  16
HETATM   16  C           1     -21.113  -7.976  -0.409  0.00  0.00     0.149 C 
BRANCH  16  17
HETATM   17  C           1     -22.429  -7.269  -0.618  0.00  0.00     0.175 C 
HETATM   18  O           1     -22.522  -6.359  -1.470  0.00  0.00    -0.648 OA
HETATM   19  O           1     -23.428  -7.592   0.062  0.00  0.00    -0.648 OA
ENDBRANCH  16  17
ENDBRANCH  15  16
BRANCH  15  20
HETATM   20  C           1     -21.899 -10.125  -1.355  0.00  0.00     0.197 C 
HETATM   21  O           1     -22.633 -10.452  -2.313  0.00  0.00    -0.646 OA
HETATM   22  O           1     -21.989 -10.729  -0.264  0.00  0.00    -0.646 OA
ENDBRANCH  15  20
ENDBRANCH  12  15
ENDBRANCH   1  11
BRANCH   1  23
HETATM   23  N           1     -21.232  -8.585  -5.921  0.00  0.00    -0.066 N 
HETATM   24  H           1     -21.621  -9.361  -5.339  0.00  0.00     0.275 HD
HETATM   25  H           1     -20.706  -8.986  -6.730  0.00  0.00     0.275 HD
HETATM   26  H           1     -22.015  -7.990  -6.275  0.00  0.00     0.275 HD
ENDBRANCH   1  23
TORSDOF 9
ENDMDL
MODEL 8
REMARK VINA RESULT:      -6.2      2.020      3.399
REMARK  9 active torsions:
REMARK  status: ('A' for Active; 'I' for Inactive)
REMARK    1  A    between atoms: O_1  and  C_20 
REMARK    2  A    between atoms: C_8  and  C_16 
REMARK    3  A    between atoms: C_8  and  C_13 
REMARK    4  A    between atoms: N_9  and  C_25 
REMARK       I    between atoms: N_9  and  C_15 
REMARK    5  A    between atoms: C_14  and  C_22 
REMARK    6  A    between atoms: C_14  and  C_25 
REMARK    7  A    between atoms: C_15  and  C_16 
REMARK    8  A    between atoms: C_16  and  N_17 
REMARK    9  A    between atoms: C_23  and  C_25 
ROOT
HETATM    1  C           1     -20.516  -4.080  -8.489  0.00  0.00     0.278 C 
ENDROOT
BRANCH   1   2
HETATM    2  C           1     -20.470  -4.493  -9.954  0.00  0.00     0.081 C 
BRANCH   2   3
HETATM    3  C           1     -21.733  -4.063 -10.634  0.00  0.00    -0.056 A 
HETATM    4  C           1     -22.969  -4.462 -10.124  0.00  0.00     0.010 A 
HETATM    5  C           1     -24.145  -4.060 -10.758  0.00  0.00     0.037 A 
HETATM    6  C           1     -24.086  -3.261 -11.898  0.00  0.00     0.065 A 
HETATM    7  C           1     -22.851  -2.862 -12.407  0.00  0.00     0.037 A 
HETATM    8  C           1     -21.673  -3.263 -11.775  0.00  0.00     0.010 A 
BRANCH   6   9
HETATM    9  O           1     -25.229  -2.871 -12.513  0.00  0.00    -0.361 OA
HETATM   10  H           1     -25.612  -3.648 -12.954  0.00  0.00     0.217 HD
ENDBRANCH   6   9
ENDBRANCH   2   3
ENDBRANCH   1   2
BRANCH   1  11
HETATM   11  C           1     -20.651  -5.309  -7.623  0.00  0.00     0.249 C 
HETATM   12  N           1     -21.428  -5.271  -6.496  0.00  0.00    -0.344 N 
HETATM   13  H           1     -21.911  -4.418  -6.243  0.00  0.00     0.163 HD
HETATM   14  O           1     -20.075  -6.327  -7.925  0.00  0.00    -0.271 OA
BRANCH  12  15
HETATM   15  C           1     -21.558  -6.451  -5.664  0.00  0.00     0.195 C 
BRANCH  15  16
HETATM   16  C           1     -20.267  -6.669  -4.886  0.00  0.00     0.149 C 
BRANCH  16  17
HETATM   17  C           1     -19.996  -8.148  -4.764  0.00  0.00     0.175 C 
HETATM   18  O           1     -20.013  -8.696  -3.642  0.00  0.00    -0.648 OA
HETATM   19  O           1     -19.753  -8.826  -5.787  0.00  0.00    -0.648 OA
ENDBRANCH  16  17
ENDBRANCH  15  16
BRANCH  15  20
HETATM   20  C           1     -22.701  -6.262  -4.699  0.00  0.00     0.197 C 
HETATM   21  O           1     -23.861  -6.078  -5.132  0.00  0.00    -0.646 OA
HETATM   22  O           1     -22.491  -6.289  -3.467  0.00  0.00    -0.646 OA
ENDBRANCH  15  20
ENDBRANCH  12  15
ENDBRANCH   1  11
BRANCH   1  23
HETATM   23  N           1     -19.251  -3.356  -8.134  0.00  0.00    -0.066 N 
HETATM   24  H           1     -19.342  -2.348  -8.391  0.00  0.00     0.275 HD
HETATM   25  H           1     -18.451  -3.778  -8.658  0.00  0.00     0.275 HD
HETATM   26  H           1     -19.079  -3.440  -7.107  0.00  0.00     0.275 HD
ENDBRANCH   1  23
TORSDOF 9
ENDMDL
MODEL 9
REMARK VINA RESULT:      -6.0      2.278      3.450
REMARK  9 active torsions:
REMARK  status: ('A' for Active; 'I' for Inactive)
REMARK    1  A    between atoms: O_1  and  C_20 
REMARK    2  A    between atoms: C_8  and  C_16 
REMARK    3  A    between atoms: C_8  and  C_13 
REMARK    4  A    between atoms: N_9  and  C_25 
REMARK       I    between atoms: N_9  and  C_15 
REMARK    5  A    between atoms: C_14  and  C_22 
REMARK    6  A    between atoms: C_14  and  C_25 
REMARK    7  A    between atoms: C_15  and  C_16 
REMARK    8  A    between atoms: C_16  and  N_17 
REMARK    9  A    between atoms: C_23  and  C_25 
ROOT
HETATM    1  C           1     -21.302  -6.364  -5.108  0.00  0.00     0.278 C 
ENDROOT
BRANCH   1   2
HETATM    2  C           1     -20.478  -5.153  -5.525  0.00  0.00     0.081 C 
BRANCH   2   3
HETATM    3  C           1     -20.877  -4.729  -6.904  0.00  0.00    -0.056 A 
HETATM    4  C           1     -19.908  -4.592  -7.898  0.00  0.00     0.010 A 
HETATM    5  C           1     -20.281  -4.197  -9.184  0.00  0.00     0.037 A 
HETATM    6  C           1     -21.619  -3.939  -9.474  0.00  0.00     0.065 A 
HETATM    7  C           1     -22.588  -4.076  -8.480  0.00  0.00     0.037 A 
HETATM    8  C           1     -22.217  -4.471  -7.194  0.00  0.00     0.010 A 
BRANCH   6   9
HETATM    9  O           1     -21.981  -3.555 -10.723  0.00  0.00    -0.361 OA
HETATM   10  H           1     -22.838  -3.966 -10.926  0.00  0.00     0.217 HD
ENDBRANCH   6   9
ENDBRANCH   2   3
ENDBRANCH   1   2
BRANCH   1  11
HETATM   11  C           1     -20.405  -7.576  -5.019  0.00  0.00     0.249 C 
HETATM   12  N           1     -20.455  -8.385  -3.915  0.00  0.00    -0.344 N 
HETATM   13  H           1     -21.093  -8.170  -3.159  0.00  0.00     0.163 HD
HETATM   14  O           1     -19.644  -7.832  -5.921  0.00  0.00    -0.271 OA
BRANCH  12  15
HETATM   15  C           1     -19.595  -9.548  -3.830  0.00  0.00     0.195 C 
BRANCH  15  16
HETATM   16  C           1     -18.500  -9.296  -2.802  0.00  0.00     0.149 C 
BRANCH  16  17
HETATM   17  C           1     -17.151  -9.532  -3.434  0.00  0.00     0.175 C 
HETATM   18  O           1     -16.110  -9.391  -2.757  0.00  0.00    -0.648 OA
HETATM   19  O           1     -17.074  -9.868  -4.636  0.00  0.00    -0.648 OA
ENDBRANCH  16  17
ENDBRANCH  15  16
BRANCH  15  20
HETATM   20  C           1     -20.411 -10.747  -3.412  0.00  0.00     0.197 C 
HETATM   21  O           1     -21.224 -10.650  -2.467  0.00  0.00    -0.646 OA
HETATM   22  O           1     -20.274 -11.835  -4.010  0.00  0.00    -0.646 OA
ENDBRANCH  15  20
ENDBRANCH  12  15
ENDBRANCH   1  11
BRANCH   1  23
HETATM   23  N           1     -21.926  -6.106  -3.769  0.00  0.00    -0.066 N 
HETATM   24  H           1     -21.904  -5.082  -3.566  0.00  0.00     0.275 HD
HETATM   25  H           1     -21.393  -6.619  -3.031  0.00  0.00     0.275 HD
HETATM   26  H           1     -22.917  -6.438  -3.779  0.00  0.00     0.275 HD
ENDBRANCH   1  23
TORSDOF 9
ENDMDL
