MODEL 1
REMARK VINA RESULT:      -6.7      0.000      0.000
REMARK  8 active torsions:
REMARK  status: ('A' for Active; 'I' for Inactive)
REMARK    1  A    between atoms: C_1  and  C_15 
REMARK    2  A    between atoms: C_1  and  O_16 
REMARK    3  A    between atoms: C_3  and  C_4 
REMARK    4  A    between atoms: C_4  and  C_5 
REMARK    5  A    between atoms: C_5  and  C_20 
REMARK    6  A    between atoms: C_5  and  N_17 
REMARK    7  A    between atoms: N_9  and  C_15 
REMARK    8  A    between atoms: C_15  and  C_22 
REMARK       I    between atoms: N_17  and  C_22 
ROOT
HETATM    1  C           1     -23.750  -3.579 -11.084  0.00  0.00     0.191 C 
ENDROOT
BRANCH   1   2
HETATM    2  C           1     -22.490  -2.767 -10.819  0.00  0.00     0.094 C 
BRANCH   2   3
HETATM    3  C           1     -21.392  -3.681 -10.370  0.00  0.00     0.028 A 
HETATM    4  C           1     -20.491  -4.290 -11.210  0.00  0.00     0.114 A 
HETATM    5  N           1     -19.680  -5.024 -10.388  0.00  0.00    -0.360 N 
HETATM    6  C           1     -20.114  -4.833  -9.108  0.00  0.00     0.180 A 
HETATM    7  H           1     -18.871  -5.623 -10.688  0.00  0.00     0.166 HD
HETATM    8  N           1     -21.149  -4.025  -9.065  0.00  0.00    -0.354 N 
ATOM      9  HN          1     -21.662  -3.720  -8.238  1.00  0.00     0.166 HD
ENDBRANCH   2   3
ENDBRANCH   1   2
BRANCH   1  10
HETATM   10  C           1     -24.639  -3.543  -9.864  0.00  0.00     0.197 C 
HETATM   11  O           1     -25.812  -3.120  -9.958  0.00  0.00    -0.646 OA
HETATM   12  O           1     -24.202  -3.935  -8.760  0.00  0.00    -0.646 OA
ENDBRANCH   1  10
BRANCH   1  13
HETATM   13  N           1     -24.460  -3.014 -12.215  0.00  0.00    -0.344 N 
HETATM   14  H           1     -25.263  -2.416 -12.062  0.00  0.00     0.163 HD
HETATM   15  C           1     -24.044  -3.289 -13.490  0.00  0.00     0.251 C 
HETATM   16  O           1     -24.489  -4.247 -14.077  0.00  0.00    -0.271 OA
BRANCH  15  17
HETATM   17  C           1     -23.032  -2.395 -14.163  0.00  0.00     0.297 C 
BRANCH  17  18
HETATM   18  C           1     -23.755  -1.305 -14.943  0.00  0.00     0.206 C 
BRANCH  18  19
HETATM   19  O           1     -24.944  -0.965 -14.281  0.00  0.00    -0.398 OA
HETATM   20  H           1     -25.404  -1.770 -14.114  0.00  0.00     0.209 HD
ENDBRANCH  18  19
ENDBRANCH  17  18
BRANCH  17  21
HETATM   21  N           1     -22.195  -3.210 -15.104  0.00  0.00    -0.064 N 
HETATM   22  H           1     -21.960  -2.637 -15.946  0.00  0.00     0.275 HD
HETATM   23  H           1     -21.313  -3.499 -14.623  0.00  0.00     0.275 HD
HETATM   24  H           1     -22.727  -4.059 -15.398  0.00  0.00     0.275 HD
ENDBRANCH  17  21
ENDBRANCH  15  17
ENDBRANCH   1  13
TORSDOF 8
ENDMDL
MODEL 2
REMARK VINA RESULT:      -6.2     11.749     13.219
REMARK  8 active torsions:
REMARK  status: ('A' for Active; 'I' for Inactive)
REMARK    1  A    between atoms: C_1  and  C_15 
REMARK    2  A    between atoms: C_1  and  O_16 
REMARK    3  A    between atoms: C_3  and  C_4 
REMARK    4  A    between atoms: C_4  and  C_5 
REMARK    5  A    between atoms: C_5  and  C_20 
REMARK    6  A    between atoms: C_5  and  N_17 
REMARK    7  A    between atoms: N_9  and  C_15 
REMARK    8  A    between atoms: C_15  and  C_22 
REMARK       I    between atoms: N_17  and  C_22 
ROOT
HETATM    1  C           1     -36.428  -0.660 -12.237  0.00  0.00     0.191 C 
ENDROOT
BRANCH   1   2
HETATM    2  C           1     -34.909  -0.569 -12.233  0.00  0.00     0.094 C 
BRANCH   2   3
HETATM    3  C           1     -34.327  -1.934 -12.036  0.00  0.00     0.028 A 
HETATM    4  C           1     -33.727  -2.368 -10.878  0.00  0.00     0.114 A 
HETATM    5  N           1     -33.345  -3.656 -11.136  0.00  0.00    -0.360 N 
HETATM    6  C           1     -33.722  -3.945 -12.417  0.00  0.00     0.180 A 
HETATM    7  H           1     -32.852  -4.302 -10.472  0.00  0.00     0.166 HD
HETATM    8  N           1     -34.318  -2.923 -12.986  0.00  0.00    -0.354 N 
ATOM      9  HN          1     -34.694  -2.875 -13.933  1.00  0.00     0.166 HD
ENDBRANCH   2   3
ENDBRANCH   1   2
BRANCH   1  10
HETATM   10  C           1     -36.967  -0.152 -10.922  0.00  0.00     0.197 C 
HETATM   11  O           1     -36.306   0.670 -10.252  0.00  0.00    -0.646 OA
HETATM   12  O           1     -38.075  -0.553 -10.504  0.00  0.00    -0.646 OA
ENDBRANCH   1  10
BRANCH   1  13
HETATM   13  N           1     -36.958   0.146 -13.320  0.00  0.00    -0.344 N 
HETATM   14  H           1     -37.249   1.100 -13.145  0.00  0.00     0.163 HD
HETATM   15  C           1     -37.063  -0.382 -14.579  0.00  0.00     0.251 C 
HETATM   16  O           1     -38.075  -0.951 -14.913  0.00  0.00    -0.271 OA
BRANCH  15  17
HETATM   17  C           1     -35.915  -0.253 -15.550  0.00  0.00     0.297 C 
BRANCH  17  18
HETATM   18  C           1     -35.454   1.198 -15.602  0.00  0.00     0.206 C 
BRANCH  18  19
HETATM   19  O           1     -36.486   1.999 -16.113  0.00  0.00    -0.398 OA
HETATM   20  H           1     -37.293   1.663 -15.763  0.00  0.00     0.209 HD
ENDBRANCH  18  19
ENDBRANCH  17  18
BRANCH  17  21
HETATM   21  N           1     -36.364  -0.683 -16.914  0.00  0.00    -0.064 N 
HETATM   22  H           1     -36.466  -1.723 -16.936  0.00  0.00     0.275 HD
HETATM   23  H           1     -37.285  -0.238 -17.133  0.00  0.00     0.275 HD
HETATM   24  H           1     -35.657  -0.387 -17.624  0.00  0.00     0.275 HD
ENDBRANCH  17  21
ENDBRANCH  15  17
ENDBRANCH   1  13
TORSDOF 8
ENDMDL
MODEL 3
REMARK VINA RESULT:      -6.2      2.144      5.014
REMARK  8 active torsions:
REMARK  status: ('A' for Active; 'I' for Inactive)
REMARK    1  A    between atoms: C_1  and  C_15 
REMARK    2  A    between atoms: C_1  and  O_16 
REMARK    3  A    between atoms: C_3  and  C_4 
REMARK    4  A    between atoms: C_4  and  C_5 
REMARK    5  A    between atoms: C_5  and  C_20 
REMARK    6  A    between atoms: C_5  and  N_17 
REMARK    7  A    between atoms: N_9  and  C_15 
REMARK    8  A    between atoms: C_15  and  C_22 
REMARK       I    between atoms: N_17  and  C_22 
ROOT
HETATM    1  C           1     -23.355  -3.968 -10.410  0.00  0.00     0.191 C 
ENDROOT
BRANCH   1   2
HETATM    2  C           1     -23.485  -4.609 -11.785  0.00  0.00     0.094 C 
BRANCH   2   3
HETATM    3  C           1     -23.458  -3.545 -12.837  0.00  0.00     0.028 A 
HETATM    4  C           1     -24.425  -2.581 -12.998  0.00  0.00     0.114 A 
HETATM    5  N           1     -24.005  -1.832 -14.063  0.00  0.00    -0.360 N 
HETATM    6  C           1     -22.823  -2.361 -14.496  0.00  0.00     0.180 A 
HETATM    7  H           1     -24.501  -1.001 -14.472  0.00  0.00     0.166 HD
HETATM    8  N           1     -22.467  -3.399 -13.774  0.00  0.00    -0.354 N 
ATOM      9  HN          1     -21.632  -3.974 -13.887  1.00  0.00     0.166 HD
ENDBRANCH   2   3
ENDBRANCH   1   2
BRANCH   1  10
HETATM   10  C           1     -24.722  -3.833  -9.786  0.00  0.00     0.197 C 
HETATM   11  O           1     -25.395  -4.855  -9.528  0.00  0.00    -0.646 OA
HETATM   12  O           1     -25.182  -2.700  -9.527  0.00  0.00    -0.646 OA
ENDBRANCH   1  10
BRANCH   1  13
HETATM   13  N           1     -22.518  -4.799  -9.566  0.00  0.00    -0.344 N 
HETATM   14  H           1     -22.590  -5.808  -9.619  0.00  0.00     0.163 HD
HETATM   15  C           1     -21.632  -4.220  -8.699  0.00  0.00     0.251 C 
HETATM   16  O           1     -21.976  -3.951  -7.573  0.00  0.00    -0.271 OA
BRANCH  15  17
HETATM   17  C           1     -20.223  -3.919  -9.150  0.00  0.00     0.297 C 
BRANCH  17  18
HETATM   18  C           1     -19.914  -4.709 -10.414  0.00  0.00     0.206 C 
BRANCH  18  19
HETATM   19  O           1     -20.080  -3.883 -11.535  0.00  0.00    -0.398 OA
HETATM   20  H           1     -20.433  -4.422 -12.223  0.00  0.00     0.209 HD
ENDBRANCH  18  19
ENDBRANCH  17  18
BRANCH  17  21
HETATM   21  N           1     -19.259  -4.310  -8.069  0.00  0.00    -0.064 N 
HETATM   22  H           1     -19.502  -3.806  -7.186  0.00  0.00     0.275 HD
HETATM   23  H           1     -19.318  -5.341  -7.908  0.00  0.00     0.275 HD
HETATM   24  H           1     -18.288  -4.056  -8.359  0.00  0.00     0.275 HD
ENDBRANCH  17  21
ENDBRANCH  15  17
ENDBRANCH   1  13
TORSDOF 8
ENDMDL
MODEL 4
REMARK VINA RESULT:      -5.9      2.149      5.671
REMARK  8 active torsions:
REMARK  status: ('A' for Active; 'I' for Inactive)
REMARK    1  A    between atoms: C_1  and  C_15 
REMARK    2  A    between atoms: C_1  and  O_16 
REMARK    3  A    between atoms: C_3  and  C_4 
REMARK    4  A    between atoms: C_4  and  C_5 
REMARK    5  A    between atoms: C_5  and  C_20 
REMARK    6  A    between atoms: C_5  and  N_17 
REMARK    7  A    between atoms: N_9  and  C_15 
REMARK    8  A    between atoms: C_15  and  C_22 
REMARK       I    between atoms: N_17  and  C_22 
ROOT
HETATM    1  C           1     -23.380  -3.404  -9.194  0.00  0.00     0.191 C 
ENDROOT
BRANCH   1   2
HETATM    2  C           1     -22.305  -3.957 -10.120  0.00  0.00     0.094 C 
BRANCH   2   3
HETATM    3  C           1     -22.552  -3.475 -11.516  0.00  0.00     0.028 A 
HETATM    4  C           1     -21.768  -3.789 -12.600  0.00  0.00     0.114 A 
HETATM    5  N           1     -22.349  -3.144 -13.657  0.00  0.00    -0.360 N 
HETATM    6  C           1     -23.442  -2.477 -13.179  0.00  0.00     0.180 A 
HETATM    7  H           1     -22.017  -3.158 -14.653  0.00  0.00     0.166 HD
HETATM    8  N           1     -23.589  -2.659 -11.887  0.00  0.00    -0.354 N 
ATOM      9  HN          1     -24.319  -2.275 -11.288  1.00  0.00     0.166 HD
ENDBRANCH   2   3
ENDBRANCH   1   2
BRANCH   1  10
HETATM   10  C           1     -24.737  -3.868  -9.664  0.00  0.00     0.197 C 
HETATM   11  O           1     -24.927  -5.074  -9.930  0.00  0.00    -0.646 OA
HETATM   12  O           1     -25.670  -3.045  -9.786  0.00  0.00    -0.646 OA
ENDBRANCH   1  10
BRANCH   1  13
HETATM   13  N           1     -23.147  -3.881  -7.844  0.00  0.00    -0.344 N 
HETATM   14  H           1     -23.929  -4.030  -7.219  0.00  0.00     0.163 HD
HETATM   15  C           1     -21.871  -4.132  -7.417  0.00  0.00     0.251 C 
HETATM   16  O           1     -21.227  -3.255  -6.893  0.00  0.00    -0.271 OA
BRANCH  15  17
HETATM   17  C           1     -21.269  -5.504  -7.601  0.00  0.00     0.297 C 
BRANCH  17  18
HETATM   18  C           1     -21.365  -6.279  -6.293  0.00  0.00     0.206 C 
BRANCH  18  19
HETATM   19  O           1     -22.391  -5.741  -5.503  0.00  0.00    -0.398 OA
HETATM   20  H           1     -23.127  -5.594  -6.072  0.00  0.00     0.209 HD
ENDBRANCH  18  19
ENDBRANCH  17  18
BRANCH  17  21
HETATM   21  N           1     -19.829  -5.368  -7.996  0.00  0.00    -0.064 N 
HETATM   22  H           1     -19.301  -6.216  -7.688  0.00  0.00     0.275 HD
HETATM   23  H           1     -19.760  -5.273  -9.034  0.00  0.00     0.275 HD
HETATM   24  H           1     -19.421  -4.520  -7.541  0.00  0.00     0.275 HD
ENDBRANCH  17  21
ENDBRANCH  15  17
ENDBRANCH   1  13
TORSDOF 8
ENDMDL
MODEL 5
REMARK VINA RESULT:      -5.7     11.849     13.861
REMARK  8 active torsions:
REMARK  status: ('A' for Active; 'I' for Inactive)
REMARK    1  A    between atoms: C_1  and  C_15 
REMARK    2  A    between atoms: C_1  and  O_16 
REMARK    3  A    between atoms: C_3  and  C_4 
REMARK    4  A    between atoms: C_4  and  C_5 
REMARK    5  A    between atoms: C_5  and  C_20 
REMARK    6  A    between atoms: C_5  and  N_17 
REMARK    7  A    between atoms: N_9  and  C_15 
REMARK    8  A    between atoms: C_15  and  C_22 
REMARK       I    between atoms: N_17  and  C_22 
ROOT
HETATM    1  C           1     -36.240  -0.094 -10.814  0.00  0.00     0.191 C 
ENDROOT
BRANCH   1   2
HETATM    2  C           1     -37.224  -0.428 -11.926  0.00  0.00     0.094 C 
BRANCH   2   3
HETATM    3  C           1     -36.682   0.054 -13.235  0.00  0.00     0.028 A 
HETATM    4  C           1     -37.401   0.113 -14.405  0.00  0.00     0.114 A 
HETATM    5  N           1     -36.527   0.605 -15.335  0.00  0.00    -0.360 N 
HETATM    6  C           1     -35.336   0.821 -14.703  0.00  0.00     0.180 A 
HETATM    7  H           1     -36.735   0.784 -16.348  0.00  0.00     0.166 HD
HETATM    8  N           1     -35.399   0.496 -13.432  0.00  0.00    -0.354 N 
ATOM      9  HN          1     -34.652   0.559 -12.740  1.00  0.00     0.166 HD
ENDBRANCH   2   3
ENDBRANCH   1   2
BRANCH   1  10
HETATM   10  C           1     -36.919   0.777  -9.784  0.00  0.00     0.197 C 
HETATM   11  O           1     -38.075   1.203  -9.992  0.00  0.00    -0.646 OA
HETATM   12  O           1     -36.324   1.071  -8.725  0.00  0.00    -0.646 OA
ENDBRANCH   1  10
BRANCH   1  13
HETATM   13  N           1     -35.785  -1.320 -10.185  0.00  0.00    -0.344 N 
HETATM   14  H           1     -36.229  -1.647  -9.336  0.00  0.00     0.163 HD
HETATM   15  C           1     -34.759  -2.034 -10.742  0.00  0.00     0.251 C 
HETATM   16  O           1     -33.618  -1.804 -10.418  0.00  0.00    -0.271 OA
BRANCH  15  17
HETATM   17  C           1     -35.053  -3.111 -11.758  0.00  0.00     0.297 C 
BRANCH  17  18
HETATM   18  C           1     -35.026  -4.473 -11.077  0.00  0.00     0.206 C 
BRANCH  18  19
HETATM   19  O           1     -33.742  -4.719 -10.572  0.00  0.00    -0.398 OA
HETATM   20  H           1     -33.852  -5.142  -9.737  0.00  0.00     0.209 HD
ENDBRANCH  18  19
ENDBRANCH  17  18
BRANCH  17  21
HETATM   21  N           1     -34.013  -3.073 -12.839  0.00  0.00    -0.064 N 
HETATM   22  H           1     -34.464  -2.820 -13.747  0.00  0.00     0.275 HD
HETATM   23  H           1     -33.289  -2.358 -12.599  0.00  0.00     0.275 HD
HETATM   24  H           1     -33.563  -4.012 -12.923  0.00  0.00     0.275 HD
ENDBRANCH  17  21
ENDBRANCH  15  17
ENDBRANCH   1  13
TORSDOF 8
ENDMDL
MODEL 6
REMARK VINA RESULT:      -5.6     10.883     12.922
REMARK  8 active torsions:
REMARK  status: ('A' for Active; 'I' for Inactive)
REMARK    1  A    between atoms: C_1  and  C_15 
REMARK    2  A    between atoms: C_1  and  O_16 
REMARK    3  A    between atoms: C_3  and  C_4 
REMARK    4  A    between atoms: C_4  and  C_5 
REMARK    5  A    between atoms: C_5  and  C_20 
REMARK    6  A    between atoms: C_5  and  N_17 
REMARK    7  A    between atoms: N_9  and  C_15 
REMARK    8  A    between atoms: C_15  and  C_22 
REMARK       I    between atoms: N_17  and  C_22 
ROOT
HETATM    1  C           1     -34.500  -1.432 -11.974  0.00  0.00     0.191 C 
ENDROOT
BRANCH   1   2
HETATM    2  C           1     -35.844  -1.518 -12.684  0.00  0.00     0.094 C 
BRANCH   2   3
HETATM    3  C           1     -35.924  -0.452 -13.732  0.00  0.00     0.028 A 
HETATM    4  C           1     -37.092  -0.003 -14.301  0.00  0.00     0.114 A 
HETATM    5  N           1     -36.705   0.958 -15.195  0.00  0.00    -0.360 N 
HETATM    6  C           1     -35.344   1.051 -15.132  0.00  0.00     0.180 A 
HETATM    7  H           1     -37.338   1.521 -15.815  0.00  0.00     0.166 HD
HETATM    8  N           1     -34.844   0.210 -14.257  0.00  0.00    -0.354 N 
ATOM      9  HN          1     -33.861   0.077 -14.018  1.00  0.00     0.166 HD
ENDBRANCH   2   3
ENDBRANCH   1   2
BRANCH   1  10
HETATM   10  C           1     -34.712  -1.520 -10.482  0.00  0.00     0.197 C 
HETATM   11  O           1     -35.785  -1.123  -9.979  0.00  0.00    -0.646 OA
HETATM   12  O           1     -33.813  -1.990  -9.751  0.00  0.00    -0.646 OA
ENDBRANCH   1  10
BRANCH   1  13
HETATM   13  N           1     -33.653  -2.527 -12.407  0.00  0.00    -0.344 N 
HETATM   14  H           1     -32.650  -2.470 -12.285  0.00  0.00     0.163 HD
HETATM   15  C           1     -34.211  -3.639 -12.977  0.00  0.00     0.251 C 
HETATM   16  O           1     -34.369  -3.690 -14.174  0.00  0.00    -0.271 OA
BRANCH  15  17
HETATM   17  C           1     -34.629  -4.803 -12.112  0.00  0.00     0.297 C 
BRANCH  17  18
HETATM   18  C           1     -33.454  -5.240 -11.246  0.00  0.00     0.206 C 
BRANCH  18  19
HETATM   19  O           1     -32.257  -5.049 -11.950  0.00  0.00    -0.398 OA
HETATM   20  H           1     -31.591  -5.538 -11.497  0.00  0.00     0.209 HD
ENDBRANCH  18  19
ENDBRANCH  17  18
BRANCH  17  21
HETATM   21  N           1     -35.057  -5.946 -12.984  0.00  0.00    -0.064 N 
HETATM   22  H           1     -35.811  -6.487 -12.505  0.00  0.00     0.275 HD
HETATM   23  H           1     -35.419  -5.573 -13.892  0.00  0.00     0.275 HD
HETATM   24  H           1     -34.240  -6.572 -13.165  0.00  0.00     0.275 HD
ENDBRANCH  17  21
ENDBRANCH  15  17
ENDBRANCH   1  13
TORSDOF 8
ENDMDL
MODEL 7
REMARK VINA RESULT:      -5.5      3.140      4.599
REMARK  8 active torsions:
REMARK  status: ('A' for Active; 'I' for Inactive)
REMARK    1  A    between atoms: C_1  and  C_15 
REMARK    2  A    between atoms: C_1  and  O_16 
REMARK    3  A    between atoms: C_3  and  C_4 
REMARK    4  A    between atoms: C_4  and  C_5 
REMARK    5  A    between atoms: C_5  and  C_20 
REMARK    6  A    between atoms: C_5  and  N_17 
REMARK    7  A    between atoms: N_9  and  C_15 
REMARK    8  A    between atoms: C_15  and  C_22 
REMARK       I    between atoms: N_17  and  C_22 
ROOT
HETATM    1  C           1     -21.061  -4.007  -9.443  0.00  0.00     0.191 C 
ENDROOT
BRANCH   1   2
HETATM    2  C           1     -19.783  -4.488  -8.769  0.00  0.00     0.094 C 
BRANCH   2   3
HETATM    3  C           1     -20.113  -5.075  -7.432  0.00  0.00     0.028 A 
HETATM    4  C           1     -20.637  -4.368  -6.376  0.00  0.00     0.114 A 
HETATM    5  N           1     -20.778  -5.285  -5.370  0.00  0.00    -0.360 N 
HETATM    6  C           1     -20.343  -6.488  -5.849  0.00  0.00     0.180 A 
HETATM    7  H           1     -21.152  -5.097  -4.407  0.00  0.00     0.166 HD
HETATM    8  N           1     -19.934  -6.392  -7.093  0.00  0.00    -0.354 N 
ATOM      9  HN          1     -19.563  -7.138  -7.681  1.00  0.00     0.166 HD
ENDBRANCH   2   3
ENDBRANCH   1   2
BRANCH   1  10
HETATM   10  C           1     -20.757  -3.592 -10.862  0.00  0.00     0.197 C 
HETATM   11  O           1     -19.948  -4.255 -11.547  0.00  0.00    -0.646 OA
HETATM   12  O           1     -21.315  -2.586 -11.351  0.00  0.00    -0.646 OA
ENDBRANCH   1  10
BRANCH   1  13
HETATM   13  N           1     -22.036  -5.081  -9.452  0.00  0.00    -0.344 N 
HETATM   14  H           1     -21.810  -5.973  -9.030  0.00  0.00     0.163 HD
HETATM   15  C           1     -23.261  -4.887 -10.030  0.00  0.00     0.251 C 
HETATM   16  O           1     -23.424  -5.138 -11.200  0.00  0.00    -0.271 OA
BRANCH  15  17
HETATM   17  C           1     -24.410  -4.360  -9.205  0.00  0.00     0.297 C 
BRANCH  17  18
HETATM   18  C           1     -24.851  -3.008  -9.751  0.00  0.00     0.206 C 
BRANCH  18  19
HETATM   19  O           1     -25.248  -3.150 -11.088  0.00  0.00    -0.398 OA
HETATM   20  H           1     -24.826  -3.924 -11.419  0.00  0.00     0.209 HD
ENDBRANCH  18  19
ENDBRANCH  17  18
BRANCH  17  21
HETATM   21  N           1     -23.969  -4.203  -7.780  0.00  0.00    -0.064 N 
HETATM   22  H           1     -24.808  -4.095  -7.165  0.00  0.00     0.275 HD
HETATM   23  H           1     -23.430  -5.049  -7.487  0.00  0.00     0.275 HD
HETATM   24  H           1     -23.364  -3.355  -7.693  0.00  0.00     0.275 HD
ENDBRANCH  17  21
ENDBRANCH  15  17
ENDBRANCH   1  13
TORSDOF 8
ENDMDL
MODEL 8
REMARK VINA RESULT:      -5.5      3.900      7.270
REMARK  8 active torsions:
REMARK  status: ('A' for Active; 'I' for Inactive)
REMARK    1  A    between atoms: C_1  and  C_15 
REMARK    2  A    between atoms: C_1  and  O_16 
REMARK    3  A    between atoms: C_3  and  C_4 
REMARK    4  A    between atoms: C_4  and  C_5 
REMARK    5  A    between atoms: C_5  and  C_20 
REMARK    6  A    between atoms: C_5  and  N_17 
REMARK    7  A    between atoms: N_9  and  C_15 
REMARK    8  A    between atoms: C_15  and  C_22 
REMARK       I    between atoms: N_17  and  C_22 
ROOT
HETATM    1  C           1     -21.991  -4.887  -7.864  0.00  0.00     0.191 C 
ENDROOT
BRANCH   1   2
HETATM    2  C           1     -22.603  -3.693  -8.583  0.00  0.00     0.094 C 
BRANCH   2   3
HETATM    3  C           1     -22.576  -3.932 -10.061  0.00  0.00     0.028 A 
HETATM    4  C           1     -23.422  -4.783 -10.731  0.00  0.00     0.114 A 
HETATM    5  N           1     -23.049  -4.694 -12.044  0.00  0.00    -0.360 N 
HETATM    6  C           1     -22.011  -3.809 -12.116  0.00  0.00     0.180 A 
HETATM    7  H           1     -23.481  -5.212 -12.848  0.00  0.00     0.166 HD
HETATM    8  N           1     -21.702  -3.331 -10.932  0.00  0.00    -0.354 N 
ATOM      9  HN          1     -20.970  -2.659 -10.708  1.00  0.00     0.166 HD
ENDBRANCH   2   3
ENDBRANCH   1   2
BRANCH   1  10
HETATM   10  C           1     -20.497  -4.896  -8.082  0.00  0.00     0.197 C 
HETATM   11  O           1     -19.873  -3.817  -8.173  0.00  0.00    -0.646 OA
HETATM   12  O           1     -19.885  -5.982  -8.172  0.00  0.00    -0.646 OA
ENDBRANCH   1  10
BRANCH   1  13
HETATM   13  N           1     -22.271  -4.793  -6.444  0.00  0.00    -0.344 N 
HETATM   14  H           1     -23.036  -4.216  -6.117  0.00  0.00     0.163 HD
HETATM   15  C           1     -21.501  -5.484  -5.548  0.00  0.00     0.251 C 
HETATM   16  O           1     -20.514  -4.971  -5.078  0.00  0.00    -0.271 OA
BRANCH  15  17
HETATM   17  C           1     -21.888  -6.886  -5.145  0.00  0.00     0.297 C 
BRANCH  17  18
HETATM   18  C           1     -21.618  -7.081  -3.659  0.00  0.00     0.206 C 
BRANCH  18  19
HETATM   19  O           1     -22.280  -6.083  -2.928  0.00  0.00    -0.398 OA
HETATM   20  H           1     -22.731  -5.541  -3.552  0.00  0.00     0.209 HD
ENDBRANCH  18  19
ENDBRANCH  17  18
BRANCH  17  21
HETATM   21  N           1     -21.077  -7.873  -5.932  0.00  0.00    -0.064 N 
HETATM   22  H           1     -21.475  -8.831  -5.807  0.00  0.00     0.275 HD
HETATM   23  H           1     -21.103  -7.615  -6.945  0.00  0.00     0.275 HD
HETATM   24  H           1     -20.088  -7.860  -5.594  0.00  0.00     0.275 HD
ENDBRANCH  17  21
ENDBRANCH  15  17
ENDBRANCH   1  13
TORSDOF 8
ENDMDL
MODEL 9
REMARK VINA RESULT:      -5.4      9.110     11.241
REMARK  8 active torsions:
REMARK  status: ('A' for Active; 'I' for Inactive)
REMARK    1  A    between atoms: C_1  and  C_15 
REMARK    2  A    between atoms: C_1  and  O_16 
REMARK    3  A    between atoms: C_3  and  C_4 
REMARK    4  A    between atoms: C_4  and  C_5 
REMARK    5  A    between atoms: C_5  and  C_20 
REMARK    6  A    between atoms: C_5  and  N_17 
REMARK    7  A    between atoms: N_9  and  C_15 
REMARK    8  A    between atoms: C_15  and  C_22 
REMARK       I    between atoms: N_17  and  C_22 
ROOT
HETATM    1  C           1     -32.471  -4.618 -16.376  0.00  0.00     0.191 C 
ENDROOT
BRANCH   1   2
HETATM    2  C           1     -32.202  -5.866 -17.205  0.00  0.00     0.094 C 
BRANCH   2   3
HETATM    3  C           1     -30.776  -6.287 -17.024  0.00  0.00     0.028 A 
HETATM    4  C           1     -30.063  -7.038 -17.928  0.00  0.00     0.114 A 
HETATM    5  N           1     -28.824  -7.186 -17.367  0.00  0.00    -0.360 N 
HETATM    6  C           1     -28.836  -6.530 -16.170  0.00  0.00     0.180 A 
HETATM    7  H           1     -28.013  -7.708 -17.782  0.00  0.00     0.166 HD
HETATM    8  N           1     -30.003  -5.976 -15.935  0.00  0.00    -0.354 N 
ATOM      9  HN          1     -30.277  -5.432 -15.117  1.00  0.00     0.166 HD
ENDBRANCH   2   3
ENDBRANCH   1   2
BRANCH   1  10
HETATM   10  C           1     -32.464  -3.405 -17.274  0.00  0.00     0.197 C 
HETATM   11  O           1     -31.379  -2.928 -17.671  0.00  0.00    -0.646 OA
HETATM   12  O           1     -33.543  -2.878 -17.621  0.00  0.00    -0.646 OA
ENDBRANCH   1  10
BRANCH   1  13
HETATM   13  N           1     -33.767  -4.735 -15.734  0.00  0.00    -0.344 N 
HETATM   14  H           1     -34.434  -5.421 -16.062  0.00  0.00     0.163 HD
HETATM   15  C           1     -34.086  -3.917 -14.683  0.00  0.00     0.251 C 
HETATM   16  O           1     -34.622  -2.854 -14.886  0.00  0.00    -0.271 OA
BRANCH  15  17
HETATM   17  C           1     -33.769  -4.345 -13.271  0.00  0.00     0.297 C 
BRANCH  17  18
HETATM   18  C           1     -34.899  -5.218 -12.739  0.00  0.00     0.206 C 
BRANCH  18  19
HETATM   19  O           1     -35.275  -6.147 -13.719  0.00  0.00    -0.398 OA
HETATM   20  H           1     -35.193  -5.715 -14.552  0.00  0.00     0.209 HD
ENDBRANCH  18  19
ENDBRANCH  17  18
BRANCH  17  21
HETATM   21  N           1     -33.625  -3.131 -12.402  0.00  0.00    -0.064 N 
HETATM   22  H           1     -34.572  -2.749 -12.177  0.00  0.00     0.275 HD
HETATM   23  H           1     -33.137  -3.394 -11.516  0.00  0.00     0.275 HD
HETATM   24  H           1     -33.068  -2.405 -12.906  0.00  0.00     0.275 HD
ENDBRANCH  17  21
ENDBRANCH  15  17
ENDBRANCH   1  13
TORSDOF 8
ENDMDL
