MODEL 1
REMARK VINA RESULT:      -6.7      0.000      0.000
REMARK  11 active torsions:
REMARK  status: ('A' for Active; 'I' for Inactive)
REMARK    1  A    between atoms: N_6  and  C_26 
REMARK    2  A    between atoms: N_7  and  C_8 
REMARK    3  A    between atoms: C_8  and  C_17 
REMARK       I    between atoms: C_9  and  N_10 
REMARK    4  A    between atoms: C_9  and  C_15 
REMARK    5  A    between atoms: C_11  and  C_23 
REMARK    6  A    between atoms: C_13  and  C_26 
REMARK    7  A    between atoms: C_13  and  C_17 
REMARK    8  A    between atoms: C_15  and  C_27 
REMARK    9  A    between atoms: N_20  and  C_23 
REMARK       I    between atoms: N_20  and  C_25 
REMARK   10  A    between atoms: C_23  and  C_27 
REMARK   11  A    between atoms: C_25  and  C_26 
ROOT
HETATM    1  O           1     -21.681  -3.560  -7.269  0.00  0.00    -0.271 OA
HETATM    2  H           1     -22.204  -5.845  -9.354  0.00  0.00     0.163 HD
HETATM    3  N           1     -22.193  -4.906  -8.975  0.00  0.00    -0.345 N 
HETATM    4  C           1     -21.695  -4.680  -7.720  0.00  0.00     0.249 C 
ENDROOT
BRANCH   4   5
HETATM    5  C           1     -21.164  -5.830  -6.901  0.00  0.00     0.274 C 
BRANCH   5   6
HETATM    6  N           1     -19.813  -6.229  -7.418  0.00  0.00    -0.067 N 
HETATM    7  H           1     -19.668  -5.818  -8.368  0.00  0.00     0.275 HD
HETATM    8  H           1     -19.074  -5.875  -6.770  0.00  0.00     0.275 HD
HETATM    9  H           1     -19.757  -7.271  -7.477  0.00  0.00     0.275 HD
ENDBRANCH   5   6
BRANCH   5  10
HETATM   10  C           1     -21.043  -5.403  -5.444  0.00  0.00     0.044 C 
BRANCH  10  11
HETATM   11  C           1     -21.850  -6.353  -4.568  0.00  0.00     0.030 C 
BRANCH  11  12
HETATM   12  C           1     -21.311  -6.312  -3.144  0.00  0.00     0.230 C 
BRANCH  12  13
HETATM   13  N           1     -22.404  -5.889  -2.207  0.00  0.00    -0.079 N 
HETATM   14  H           1     -22.031  -5.856  -1.230  0.00  0.00     0.274 HD
HETATM   15  H           1     -22.750  -4.942  -2.479  0.00  0.00     0.274 HD
HETATM   16  H           1     -23.191  -6.575  -2.256  0.00  0.00     0.274 HD
ENDBRANCH  12  13
ENDBRANCH  11  12
ENDBRANCH  10  11
ENDBRANCH   5  10
ENDBRANCH   4   5
BRANCH   3  17
HETATM   17  C           1     -22.703  -3.801  -9.764  0.00  0.00     0.186 C 
BRANCH  17  18
HETATM   18  C           1     -24.212  -3.820  -9.736  0.00  0.00     0.196 C 
HETATM   19  O           1     -24.828  -4.879  -9.985  0.00  0.00    -0.646 OA
HETATM   20  O           1     -24.845  -2.777  -9.465  0.00  0.00    -0.646 OA
ENDBRANCH  17  18
BRANCH  17  21
HETATM   21  C           1     -22.219  -3.937 -11.201  0.00  0.00     0.045 C 
BRANCH  21  22
HETATM   22  C           1     -22.495  -2.644 -11.955  0.00  0.00     0.105 C 
BRANCH  22  23
HETATM   23  C           1     -23.229  -2.954 -13.237  0.00  0.00     0.215 C 
HETATM   24  O           1     -24.422  -3.139 -13.219  0.00  0.00    -0.274 OA
HETATM   25  N           1     -22.543  -3.025 -14.419  0.00  0.00    -0.370 N 
HETATM   26  H           1     -21.543  -2.869 -14.434  0.00  0.00     0.159 HD
HETATM   27  H           1     -23.036  -3.232 -15.278  0.00  0.00     0.159 HD
ENDBRANCH  22  23
ENDBRANCH  21  22
ENDBRANCH  17  21
ENDBRANCH   3  17
TORSDOF 11
ENDMDL
MODEL 2
REMARK VINA RESULT:      -6.7     12.138     14.013
REMARK  11 active torsions:
REMARK  status: ('A' for Active; 'I' for Inactive)
REMARK    1  A    between atoms: N_6  and  C_26 
REMARK    2  A    between atoms: N_7  and  C_8 
REMARK    3  A    between atoms: C_8  and  C_17 
REMARK       I    between atoms: C_9  and  N_10 
REMARK    4  A    between atoms: C_9  and  C_15 
REMARK    5  A    between atoms: C_11  and  C_23 
REMARK    6  A    between atoms: C_13  and  C_26 
REMARK    7  A    between atoms: C_13  and  C_17 
REMARK    8  A    between atoms: C_15  and  C_27 
REMARK    9  A    between atoms: N_20  and  C_23 
REMARK       I    between atoms: N_20  and  C_25 
REMARK   10  A    between atoms: C_23  and  C_27 
REMARK   11  A    between atoms: C_25  and  C_26 
ROOT
HETATM    1  O           1     -33.792  -1.826 -11.171  0.00  0.00    -0.271 OA
HETATM    2  H           1     -35.598  -1.946 -13.733  0.00  0.00     0.163 HD
HETATM    3  N           1     -35.125  -1.534 -12.938  0.00  0.00    -0.345 N 
HETATM    4  C           1     -34.357  -2.317 -12.119  0.00  0.00     0.249 C 
ENDROOT
BRANCH   4   5
HETATM    5  C           1     -34.217  -3.793 -12.399  0.00  0.00     0.274 C 
BRANCH   5   6
HETATM    6  N           1     -33.688  -3.989 -13.789  0.00  0.00    -0.067 N 
HETATM    7  H           1     -33.113  -3.161 -14.063  0.00  0.00     0.275 HD
HETATM    8  H           1     -33.095  -4.849 -13.818  0.00  0.00     0.275 HD
HETATM    9  H           1     -34.487  -4.092 -14.454  0.00  0.00     0.275 HD
ENDBRANCH   5   6
BRANCH   5  10
HETATM   10  C           1     -33.250  -4.411 -11.397  0.00  0.00     0.044 C 
BRANCH  10  11
HETATM   11  C           1     -34.017  -5.319 -10.445  0.00  0.00     0.030 C 
BRANCH  11  12
HETATM   12  C           1     -34.688  -6.434 -11.236  0.00  0.00     0.230 C 
BRANCH  12  13
HETATM   13  N           1     -34.488  -7.742 -10.528  0.00  0.00    -0.079 N 
HETATM   14  H           1     -35.352  -7.982  -9.990  0.00  0.00     0.274 HD
HETATM   15  H           1     -34.295  -8.492 -11.229  0.00  0.00     0.274 HD
HETATM   16  H           1     -33.679  -7.662  -9.871  0.00  0.00     0.274 HD
ENDBRANCH  12  13
ENDBRANCH  11  12
ENDBRANCH  10  11
ENDBRANCH   5  10
ENDBRANCH   4   5
BRANCH   3  17
HETATM   17  C           1     -35.259  -0.116 -12.670  0.00  0.00     0.186 C 
BRANCH  17  18
HETATM   18  C           1     -36.462   0.116 -11.788  0.00  0.00     0.196 C 
HETATM   19  O           1     -36.306   0.481 -10.602  0.00  0.00    -0.646 OA
HETATM   20  O           1     -37.612  -0.057 -12.243  0.00  0.00    -0.646 OA
ENDBRANCH  17  18
BRANCH  17  21
HETATM   21  C           1     -35.440   0.634 -13.983  0.00  0.00     0.045 C 
BRANCH  21  22
HETATM   22  C           1     -35.625  -0.365 -15.117  0.00  0.00     0.105 C 
BRANCH  22  23
HETATM   23  C           1     -36.965  -0.142 -15.773  0.00  0.00     0.215 C 
HETATM   24  O           1     -37.217  -0.673 -16.829  0.00  0.00    -0.274 OA
HETATM   25  N           1     -37.897   0.662 -15.172  0.00  0.00    -0.370 N 
HETATM   26  H           1     -37.686   1.107 -14.288  0.00  0.00     0.159 HD
HETATM   27  H           1     -38.795   0.812 -15.612  0.00  0.00     0.159 HD
ENDBRANCH  22  23
ENDBRANCH  21  22
ENDBRANCH  17  21
ENDBRANCH   3  17
TORSDOF 11
ENDMDL
MODEL 3
REMARK VINA RESULT:      -6.2     12.130     14.032
REMARK  11 active torsions:
REMARK  status: ('A' for Active; 'I' for Inactive)
REMARK    1  A    between atoms: N_6  and  C_26 
REMARK    2  A    between atoms: N_7  and  C_8 
REMARK    3  A    between atoms: C_8  and  C_17 
REMARK       I    between atoms: C_9  and  N_10 
REMARK    4  A    between atoms: C_9  and  C_15 
REMARK    5  A    between atoms: C_11  and  C_23 
REMARK    6  A    between atoms: C_13  and  C_26 
REMARK    7  A    between atoms: C_13  and  C_17 
REMARK    8  A    between atoms: C_15  and  C_27 
REMARK    9  A    between atoms: N_20  and  C_23 
REMARK       I    between atoms: N_20  and  C_25 
REMARK   10  A    between atoms: C_23  and  C_27 
REMARK   11  A    between atoms: C_25  and  C_26 
ROOT
HETATM    1  O           1     -34.608  -3.065 -13.362  0.00  0.00    -0.271 OA
HETATM    2  H           1     -34.665  -0.597 -11.426  0.00  0.00     0.163 HD
HETATM    3  N           1     -34.913  -1.168 -12.225  0.00  0.00    -0.345 N 
HETATM    4  C           1     -34.311  -2.384 -12.410  0.00  0.00     0.249 C 
ENDROOT
BRANCH   4   5
HETATM    5  C           1     -33.279  -2.873 -11.424  0.00  0.00     0.274 C 
BRANCH   5   6
HETATM    6  N           1     -33.734  -2.564 -10.029  0.00  0.00    -0.067 N 
HETATM    7  H           1     -33.226  -1.723  -9.674  0.00  0.00     0.275 HD
HETATM    8  H           1     -34.761  -2.372 -10.032  0.00  0.00     0.275 HD
HETATM    9  H           1     -33.533  -3.380  -9.408  0.00  0.00     0.275 HD
ENDBRANCH   5   6
BRANCH   5  10
HETATM   10  C           1     -33.100  -4.377 -11.578  0.00  0.00     0.044 C 
BRANCH  10  11
HETATM   11  C           1     -33.930  -5.098 -10.523  0.00  0.00     0.030 C 
BRANCH  11  12
HETATM   12  C           1     -34.613  -6.305 -11.152  0.00  0.00     0.230 C 
BRANCH  12  13
HETATM   13  N           1     -34.902  -6.021 -12.597  0.00  0.00    -0.079 N 
HETATM   14  H           1     -35.572  -5.222 -12.667  0.00  0.00     0.274 HD
HETATM   15  H           1     -34.013  -5.774 -13.088  0.00  0.00     0.274 HD
HETATM   16  H           1     -35.322  -6.868 -13.042  0.00  0.00     0.274 HD
ENDBRANCH  12  13
ENDBRANCH  11  12
ENDBRANCH  10  11
ENDBRANCH   5  10
ENDBRANCH   4   5
BRANCH   3  17
HETATM   17  C           1     -35.906  -0.698 -13.171  0.00  0.00     0.186 C 
BRANCH  17  18
HETATM   18  C           1     -35.235   0.152 -14.222  0.00  0.00     0.196 C 
HETATM   19  O           1     -34.995  -0.327 -15.352  0.00  0.00    -0.646 OA
HETATM   20  O           1     -34.921   1.333 -13.963  0.00  0.00    -0.646 OA
ENDBRANCH  17  18
BRANCH  17  21
HETATM   21  C           1     -36.952   0.132 -12.438  0.00  0.00     0.045 C 
BRANCH  21  22
HETATM   22  C           1     -37.377  -0.593 -11.168  0.00  0.00     0.105 C 
BRANCH  22  23
HETATM   23  C           1     -36.651  -0.003  -9.984  0.00  0.00     0.215 C 
HETATM   24  O           1     -35.856  -0.673  -9.368  0.00  0.00    -0.274 OA
HETATM   25  N           1     -36.892   1.291  -9.607  0.00  0.00    -0.370 N 
HETATM   26  H           1     -37.557   1.852 -10.123  0.00  0.00     0.159 HD
HETATM   27  H           1     -36.405   1.686  -8.813  0.00  0.00     0.159 HD
ENDBRANCH  22  23
ENDBRANCH  21  22
ENDBRANCH  17  21
ENDBRANCH   3  17
TORSDOF 11
ENDMDL
MODEL 4
REMARK VINA RESULT:      -5.8      1.502      2.071
REMARK  11 active torsions:
REMARK  status: ('A' for Active; 'I' for Inactive)
REMARK    1  A    between atoms: N_6  and  C_26 
REMARK    2  A    between atoms: N_7  and  C_8 
REMARK    3  A    between atoms: C_8  and  C_17 
REMARK       I    between atoms: C_9  and  N_10 
REMARK    4  A    between atoms: C_9  and  C_15 
REMARK    5  A    between atoms: C_11  and  C_23 
REMARK    6  A    between atoms: C_13  and  C_26 
REMARK    7  A    between atoms: C_13  and  C_17 
REMARK    8  A    between atoms: C_15  and  C_27 
REMARK    9  A    between atoms: N_20  and  C_23 
REMARK       I    between atoms: N_20  and  C_25 
REMARK   10  A    between atoms: C_23  and  C_27 
REMARK   11  A    between atoms: C_25  and  C_26 
ROOT
HETATM    1  O           1     -21.975  -3.433  -7.299  0.00  0.00    -0.271 OA
HETATM    2  H           1     -22.557  -5.587  -9.505  0.00  0.00     0.163 HD
HETATM    3  N           1     -22.586  -4.686  -9.044  0.00  0.00    -0.345 N 
HETATM    4  C           1     -21.942  -4.509  -7.848  0.00  0.00     0.249 C 
ENDROOT
BRANCH   4   5
HETATM    5  C           1     -21.192  -5.655  -7.218  0.00  0.00     0.274 C 
BRANCH   5   6
HETATM    6  N           1     -19.895  -5.863  -7.944  0.00  0.00    -0.067 N 
HETATM    7  H           1     -20.061  -6.447  -8.794  0.00  0.00     0.275 HD
HETATM    8  H           1     -19.505  -4.937  -8.231  0.00  0.00     0.275 HD
HETATM    9  H           1     -19.217  -6.348  -7.314  0.00  0.00     0.275 HD
ENDBRANCH   5   6
BRANCH   5  10
HETATM   10  C           1     -20.908  -5.335  -5.756  0.00  0.00     0.044 C 
BRANCH  10  11
HETATM   11  C           1     -21.708  -6.278  -4.865  0.00  0.00     0.030 C 
BRANCH  11  12
HETATM   12  C           1     -21.293  -6.078  -3.413  0.00  0.00     0.230 C 
BRANCH  12  13
HETATM   13  N           1     -22.518  -5.938  -2.558  0.00  0.00    -0.079 N 
HETATM   14  H           1     -23.324  -6.414  -3.024  0.00  0.00     0.274 HD
HETATM   15  H           1     -22.345  -6.379  -1.626  0.00  0.00     0.274 HD
HETATM   16  H           1     -22.739  -4.925  -2.429  0.00  0.00     0.274 HD
ENDBRANCH  12  13
ENDBRANCH  11  12
ENDBRANCH  10  11
ENDBRANCH   5  10
ENDBRANCH   4   5
BRANCH   3  17
HETATM   17  C           1     -23.306  -3.584  -9.651  0.00  0.00     0.186 C 
BRANCH  17  18
HETATM   18  C           1     -24.780  -3.909  -9.689  0.00  0.00     0.196 C 
HETATM   19  O           1     -25.621  -2.988  -9.768  0.00  0.00    -0.646 OA
HETATM   20  O           1     -25.159  -5.099  -9.642  0.00  0.00    -0.646 OA
ENDBRANCH  17  18
BRANCH  17  21
HETATM   21  C           1     -22.797  -3.365 -11.069  0.00  0.00     0.045 C 
BRANCH  21  22
HETATM   22  C           1     -21.854  -4.498 -11.450  0.00  0.00     0.105 C 
BRANCH  22  23
HETATM   23  C           1     -20.429  -4.076 -11.189  0.00  0.00     0.215 C 
HETATM   24  O           1     -19.639  -4.869 -10.733  0.00  0.00    -0.274 OA
HETATM   25  N           1     -20.030  -2.797 -11.467  0.00  0.00    -0.370 N 
HETATM   26  H           1     -20.692  -2.133 -11.849  0.00  0.00     0.159 HD
HETATM   27  H           1     -19.075  -2.514 -11.292  0.00  0.00     0.159 HD
ENDBRANCH  22  23
ENDBRANCH  21  22
ENDBRANCH  17  21
ENDBRANCH   3  17
TORSDOF 11
ENDMDL
MODEL 5
REMARK VINA RESULT:      -5.7      2.186      7.007
REMARK  11 active torsions:
REMARK  status: ('A' for Active; 'I' for Inactive)
REMARK    1  A    between atoms: N_6  and  C_26 
REMARK    2  A    between atoms: N_7  and  C_8 
REMARK    3  A    between atoms: C_8  and  C_17 
REMARK       I    between atoms: C_9  and  N_10 
REMARK    4  A    between atoms: C_9  and  C_15 
REMARK    5  A    between atoms: C_11  and  C_23 
REMARK    6  A    between atoms: C_13  and  C_26 
REMARK    7  A    between atoms: C_13  and  C_17 
REMARK    8  A    between atoms: C_15  and  C_27 
REMARK    9  A    between atoms: N_20  and  C_23 
REMARK       I    between atoms: N_20  and  C_25 
REMARK   10  A    between atoms: C_23  and  C_27 
REMARK   11  A    between atoms: C_25  and  C_26 
ROOT
HETATM    1  O           1     -23.265  -3.243  -8.368  0.00  0.00    -0.271 OA
HETATM    2  H           1     -22.202  -6.071  -9.214  0.00  0.00     0.163 HD
HETATM    3  N           1     -22.223  -5.186  -8.723  0.00  0.00    -0.345 N 
HETATM    4  C           1     -23.239  -4.299  -8.955  0.00  0.00     0.249 C 
ENDROOT
BRANCH   4   5
HETATM    5  C           1     -24.327  -4.639  -9.943  0.00  0.00     0.274 C 
BRANCH   5   6
HETATM    6  N           1     -25.422  -3.618  -9.852  0.00  0.00    -0.067 N 
HETATM    7  H           1     -25.022  -2.705  -9.538  0.00  0.00     0.275 HD
HETATM    8  H           1     -25.865  -3.497 -10.791  0.00  0.00     0.275 HD
HETATM    9  H           1     -26.141  -3.937  -9.165  0.00  0.00     0.275 HD
ENDBRANCH   5   6
BRANCH   5  10
HETATM   10  C           1     -23.752  -4.641 -11.354  0.00  0.00     0.044 C 
BRANCH  10  11
HETATM   11  C           1     -23.914  -3.258 -11.971  0.00  0.00     0.030 C 
BRANCH  11  12
HETATM   12  C           1     -22.651  -2.893 -12.740  0.00  0.00     0.230 C 
BRANCH  12  13
HETATM   13  N           1     -21.541  -3.825 -12.350  0.00  0.00    -0.079 N 
HETATM   14  H           1     -20.690  -3.268 -12.104  0.00  0.00     0.274 HD
HETATM   15  H           1     -21.836  -4.392 -11.524  0.00  0.00     0.274 HD
HETATM   16  H           1     -21.322  -4.461 -13.149  0.00  0.00     0.274 HD
ENDBRANCH  12  13
ENDBRANCH  11  12
ENDBRANCH  10  11
ENDBRANCH   5  10
ENDBRANCH   4   5
BRANCH   3  17
HETATM   17  C           1     -21.178  -4.860  -7.772  0.00  0.00     0.186 C 
BRANCH  17  18
HETATM   18  C           1     -19.897  -4.566  -8.516  0.00  0.00     0.196 C 
HETATM   19  O           1     -19.862  -4.664  -9.762  0.00  0.00    -0.646 OA
HETATM   20  O           1     -18.874  -4.224  -7.887  0.00  0.00    -0.646 OA
ENDBRANCH  17  18
BRANCH  17  21
HETATM   21  C           1     -20.960  -6.039  -6.833  0.00  0.00     0.045 C 
BRANCH  21  22
HETATM   22  C           1     -20.925  -5.542  -5.394  0.00  0.00     0.105 C 
BRANCH  22  23
HETATM   23  C           1     -21.693  -6.496  -4.513  0.00  0.00     0.215 C 
HETATM   24  O           1     -22.233  -6.091  -3.511  0.00  0.00    -0.274 OA
HETATM   25  N           1     -21.780  -7.821  -4.848  0.00  0.00    -0.370 N 
HETATM   26  H           1     -21.328  -8.160  -5.688  0.00  0.00     0.159 HD
HETATM   27  H           1     -22.295  -8.460  -4.257  0.00  0.00     0.159 HD
ENDBRANCH  22  23
ENDBRANCH  21  22
ENDBRANCH  17  21
ENDBRANCH   3  17
TORSDOF 11
ENDMDL
MODEL 6
REMARK VINA RESULT:      -5.7      1.875      2.130
REMARK  11 active torsions:
REMARK  status: ('A' for Active; 'I' for Inactive)
REMARK    1  A    between atoms: N_6  and  C_26 
REMARK    2  A    between atoms: N_7  and  C_8 
REMARK    3  A    between atoms: C_8  and  C_17 
REMARK       I    between atoms: C_9  and  N_10 
REMARK    4  A    between atoms: C_9  and  C_15 
REMARK    5  A    between atoms: C_11  and  C_23 
REMARK    6  A    between atoms: C_13  and  C_26 
REMARK    7  A    between atoms: C_13  and  C_17 
REMARK    8  A    between atoms: C_15  and  C_27 
REMARK    9  A    between atoms: N_20  and  C_23 
REMARK       I    between atoms: N_20  and  C_25 
REMARK   10  A    between atoms: C_23  and  C_27 
REMARK   11  A    between atoms: C_25  and  C_26 
ROOT
HETATM    1  O           1     -22.670  -3.338  -8.197  0.00  0.00    -0.271 OA
HETATM    2  H           1     -21.185  -4.446 -10.729  0.00  0.00     0.163 HD
HETATM    3  N           1     -21.878  -3.933 -10.198  0.00  0.00    -0.345 N 
HETATM    4  C           1     -21.843  -3.951  -8.830  0.00  0.00     0.249 C 
ENDROOT
BRANCH   4   5
HETATM    5  C           1     -20.773  -4.736  -8.113  0.00  0.00     0.274 C 
BRANCH   5   6
HETATM    6  N           1     -19.422  -4.277  -8.577  0.00  0.00    -0.067 N 
HETATM    7  H           1     -19.495  -3.307  -8.957  0.00  0.00     0.275 HD
HETATM    8  H           1     -18.756  -4.285  -7.772  0.00  0.00     0.275 HD
HETATM    9  H           1     -19.074  -4.918  -9.325  0.00  0.00     0.275 HD
ENDBRANCH   5   6
BRANCH   5  10
HETATM   10  C           1     -20.896  -4.510  -6.611  0.00  0.00     0.044 C 
BRANCH  10  11
HETATM   11  C           1     -21.549  -5.727  -5.967  0.00  0.00     0.030 C 
BRANCH  11  12
HETATM   12  C           1     -20.480  -6.760  -5.635  0.00  0.00     0.230 C 
BRANCH  12  13
HETATM   13  N           1     -21.015  -8.136  -5.900  0.00  0.00    -0.079 N 
HETATM   14  H           1     -21.214  -8.613  -4.991  0.00  0.00     0.274 HD
HETATM   15  H           1     -21.897  -8.067  -6.456  0.00  0.00     0.274 HD
HETATM   16  H           1     -20.308  -8.688  -6.436  0.00  0.00     0.274 HD
ENDBRANCH  12  13
ENDBRANCH  11  12
ENDBRANCH  10  11
ENDBRANCH   5  10
ENDBRANCH   4   5
BRANCH   3  17
HETATM   17  C           1     -22.906  -3.178 -10.888  0.00  0.00     0.186 C 
BRANCH  17  18
HETATM   18  C           1     -24.237  -3.869 -10.714  0.00  0.00     0.196 C 
HETATM   19  O           1     -25.248  -3.206 -10.396  0.00  0.00    -0.646 OA
HETATM   20  O           1     -24.328  -5.103 -10.888  0.00  0.00    -0.646 OA
ENDBRANCH  17  18
BRANCH  17  21
HETATM   21  C           1     -22.567  -3.096 -12.370  0.00  0.00     0.045 C 
BRANCH  21  22
HETATM   22  C           1     -23.809  -2.697 -13.155  0.00  0.00     0.105 C 
BRANCH  22  23
HETATM   23  C           1     -23.400  -2.113 -14.485  0.00  0.00     0.215 C 
HETATM   24  O           1     -22.633  -2.715 -15.198  0.00  0.00    -0.274 OA
HETATM   25  N           1     -23.896  -0.901 -14.883  0.00  0.00    -0.370 N 
HETATM   26  H           1     -24.539  -0.396 -14.285  0.00  0.00     0.159 HD
HETATM   27  H           1     -23.621  -0.509 -15.775  0.00  0.00     0.159 HD
ENDBRANCH  22  23
ENDBRANCH  21  22
ENDBRANCH  17  21
ENDBRANCH   3  17
TORSDOF 11
ENDMDL
MODEL 7
REMARK VINA RESULT:      -5.7     11.642     13.582
REMARK  11 active torsions:
REMARK  status: ('A' for Active; 'I' for Inactive)
REMARK    1  A    between atoms: N_6  and  C_26 
REMARK    2  A    between atoms: N_7  and  C_8 
REMARK    3  A    between atoms: C_8  and  C_17 
REMARK       I    between atoms: C_9  and  N_10 
REMARK    4  A    between atoms: C_9  and  C_15 
REMARK    5  A    between atoms: C_11  and  C_23 
REMARK    6  A    between atoms: C_13  and  C_26 
REMARK    7  A    between atoms: C_13  and  C_17 
REMARK    8  A    between atoms: C_15  and  C_27 
REMARK    9  A    between atoms: N_20  and  C_23 
REMARK       I    between atoms: N_20  and  C_25 
REMARK   10  A    between atoms: C_23  and  C_27 
REMARK   11  A    between atoms: C_25  and  C_26 
ROOT
HETATM    1  O           1     -34.980  -4.691 -15.683  0.00  0.00    -0.271 OA
HETATM    2  H           1     -32.353  -3.813 -14.210  0.00  0.00     0.163 HD
HETATM    3  N           1     -33.334  -4.038 -14.324  0.00  0.00    -0.345 N 
HETATM    4  C           1     -33.810  -4.421 -15.548  0.00  0.00     0.249 C 
ENDROOT
BRANCH   4   5
HETATM    5  C           1     -32.875  -4.508 -16.729  0.00  0.00     0.274 C 
BRANCH   5   6
HETATM    6  N           1     -32.702  -3.145 -17.330  0.00  0.00    -0.067 N 
HETATM    7  H           1     -31.756  -2.775 -17.089  0.00  0.00     0.275 HD
HETATM    8  H           1     -32.795  -3.208 -18.369  0.00  0.00     0.275 HD
HETATM    9  H           1     -33.434  -2.502 -16.952  0.00  0.00     0.275 HD
ENDBRANCH   5   6
BRANCH   5  10
HETATM   10  C           1     -31.522  -5.035 -16.269  0.00  0.00     0.044 C 
BRANCH  10  11
HETATM   11  C           1     -31.069  -6.153 -17.198  0.00  0.00     0.030 C 
BRANCH  11  12
HETATM   12  C           1     -29.666  -6.600 -16.809  0.00  0.00     0.230 C 
BRANCH  12  13
HETATM   13  N           1     -29.429  -7.996 -17.305  0.00  0.00    -0.079 N 
HETATM   14  H           1     -28.402  -8.153 -17.423  0.00  0.00     0.274 HD
HETATM   15  H           1     -29.808  -8.682 -16.614  0.00  0.00     0.274 HD
HETATM   16  H           1     -29.909  -8.125 -18.224  0.00  0.00     0.274 HD
ENDBRANCH  12  13
ENDBRANCH  11  12
ENDBRANCH  10  11
ENDBRANCH   5  10
ENDBRANCH   4   5
BRANCH   3  17
HETATM   17  C           1     -34.232  -3.956 -13.188  0.00  0.00     0.186 C 
BRANCH  17  18
HETATM   18  C           1     -34.553  -2.508 -12.907  0.00  0.00     0.196 C 
HETATM   19  O           1     -35.153  -1.823 -13.764  0.00  0.00    -0.646 OA
HETATM   20  O           1     -34.219  -1.994 -11.818  0.00  0.00    -0.646 OA
ENDBRANCH  17  18
BRANCH  17  21
HETATM   21  C           1     -33.564  -4.574 -11.968  0.00  0.00     0.045 C 
BRANCH  21  22
HETATM   22  C           1     -34.631  -5.087 -11.010  0.00  0.00     0.105 C 
BRANCH  22  23
HETATM   23  C           1     -34.251  -6.463 -10.521  0.00  0.00     0.215 C 
HETATM   24  O           1     -34.975  -7.053  -9.755  0.00  0.00    -0.274 OA
HETATM   25  N           1     -33.086  -7.043 -10.946  0.00  0.00    -0.370 N 
HETATM   26  H           1     -32.479  -6.549 -11.588  0.00  0.00     0.159 HD
HETATM   27  H           1     -32.831  -7.966 -10.618  0.00  0.00     0.159 HD
ENDBRANCH  22  23
ENDBRANCH  21  22
ENDBRANCH  17  21
ENDBRANCH   3  17
TORSDOF 11
ENDMDL
MODEL 8
REMARK VINA RESULT:      -5.6      3.272      8.072
REMARK  11 active torsions:
REMARK  status: ('A' for Active; 'I' for Inactive)
REMARK    1  A    between atoms: N_6  and  C_26 
REMARK    2  A    between atoms: N_7  and  C_8 
REMARK    3  A    between atoms: C_8  and  C_17 
REMARK       I    between atoms: C_9  and  N_10 
REMARK    4  A    between atoms: C_9  and  C_15 
REMARK    5  A    between atoms: C_11  and  C_23 
REMARK    6  A    between atoms: C_13  and  C_26 
REMARK    7  A    between atoms: C_13  and  C_17 
REMARK    8  A    between atoms: C_15  and  C_27 
REMARK    9  A    between atoms: N_20  and  C_23 
REMARK       I    between atoms: N_20  and  C_25 
REMARK   10  A    between atoms: C_23  and  C_27 
REMARK   11  A    between atoms: C_25  and  C_26 
ROOT
HETATM    1  O           1     -19.790  -4.715  -6.690  0.00  0.00    -0.271 OA
HETATM    2  H           1     -22.505  -6.282  -6.594  0.00  0.00     0.163 HD
HETATM    3  N           1     -21.594  -5.967  -6.286  0.00  0.00    -0.345 N 
HETATM    4  C           1     -20.876  -5.093  -7.058  0.00  0.00     0.249 C 
ENDROOT
BRANCH   4   5
HETATM    5  C           1     -21.442  -4.602  -8.368  0.00  0.00     0.274 C 
BRANCH   5   6
HETATM    6  N           1     -22.408  -3.484  -8.106  0.00  0.00    -0.067 N 
HETATM    7  H           1     -23.386  -3.838  -8.201  0.00  0.00     0.275 HD
HETATM    8  H           1     -22.264  -3.118  -7.138  0.00  0.00     0.275 HD
HETATM    9  H           1     -22.247  -2.716  -8.797  0.00  0.00     0.275 HD
ENDBRANCH   5   6
BRANCH   5  10
HETATM   10  C           1     -20.311  -4.098  -9.254  0.00  0.00     0.044 C 
BRANCH  10  11
HETATM   11  C           1     -20.627  -4.414 -10.711  0.00  0.00     0.030 C 
BRANCH  11  12
HETATM   12  C           1     -21.220  -3.181 -11.380  0.00  0.00     0.230 C 
BRANCH  12  13
HETATM   13  N           1     -21.842  -3.572 -12.689  0.00  0.00    -0.079 N 
HETATM   14  H           1     -21.358  -3.069 -13.467  0.00  0.00     0.274 HD
HETATM   15  H           1     -21.743  -4.603 -12.827  0.00  0.00     0.274 HD
HETATM   16  H           1     -22.854  -3.317 -12.684  0.00  0.00     0.274 HD
ENDBRANCH  12  13
ENDBRANCH  11  12
ENDBRANCH  10  11
ENDBRANCH   5  10
ENDBRANCH   4   5
BRANCH   3  17
HETATM   17  C           1     -21.051  -6.438  -5.027  0.00  0.00     0.186 C 
BRANCH  17  18
HETATM   18  C           1     -20.594  -7.868  -5.182  0.00  0.00     0.196 C 
HETATM   19  O           1     -21.340  -8.805  -4.824  0.00  0.00    -0.646 OA
HETATM   20  O           1     -19.470  -8.115  -5.669  0.00  0.00    -0.646 OA
ENDBRANCH  17  18
BRANCH  17  21
HETATM   21  C           1     -22.126  -6.362  -3.951  0.00  0.00     0.045 C 
BRANCH  21  22
HETATM   22  C           1     -21.471  -6.144  -2.594  0.00  0.00     0.105 C 
BRANCH  22  23
HETATM   23  C           1     -21.983  -7.173  -1.616  0.00  0.00     0.215 C 
HETATM   24  O           1     -22.758  -6.848  -0.748  0.00  0.00    -0.274 OA
HETATM   25  N           1     -21.570  -8.475  -1.712  0.00  0.00    -0.370 N 
HETATM   26  H           1     -20.921  -8.747  -2.439  0.00  0.00     0.159 HD
HETATM   27  H           1     -21.914  -9.164  -1.056  0.00  0.00     0.159 HD
ENDBRANCH  22  23
ENDBRANCH  21  22
ENDBRANCH  17  21
ENDBRANCH   3  17
TORSDOF 11
ENDMDL
MODEL 9
REMARK VINA RESULT:      -5.5      3.539      7.825
REMARK  11 active torsions:
REMARK  status: ('A' for Active; 'I' for Inactive)
REMARK    1  A    between atoms: N_6  and  C_26 
REMARK    2  A    between atoms: N_7  and  C_8 
REMARK    3  A    between atoms: C_8  and  C_17 
REMARK       I    between atoms: C_9  and  N_10 
REMARK    4  A    between atoms: C_9  and  C_15 
REMARK    5  A    between atoms: C_11  and  C_23 
REMARK    6  A    between atoms: C_13  and  C_26 
REMARK    7  A    between atoms: C_13  and  C_17 
REMARK    8  A    between atoms: C_15  and  C_27 
REMARK    9  A    between atoms: N_20  and  C_23 
REMARK       I    between atoms: N_20  and  C_25 
REMARK   10  A    between atoms: C_23  and  C_27 
REMARK   11  A    between atoms: C_25  and  C_26 
ROOT
HETATM    1  O           1     -22.584  -5.514  -5.768  0.00  0.00    -0.271 OA
HETATM    2  H           1     -19.776  -6.504  -4.779  0.00  0.00     0.163 HD
HETATM    3  N           1     -20.785  -6.465  -4.847  0.00  0.00    -0.345 N 
HETATM    4  C           1     -21.380  -5.561  -5.685  0.00  0.00     0.249 C 
ENDROOT
BRANCH   4   5
HETATM    5  C           1     -20.531  -4.622  -6.508  0.00  0.00     0.274 C 
BRANCH   5   6
HETATM    6  N           1     -19.723  -5.414  -7.493  0.00  0.00    -0.067 N 
HETATM    7  H           1     -20.153  -5.332  -8.442  0.00  0.00     0.275 HD
HETATM    8  H           1     -18.747  -5.042  -7.522  0.00  0.00     0.275 HD
HETATM    9  H           1     -19.707  -6.418  -7.204  0.00  0.00     0.275 HD
ENDBRANCH   5   6
BRANCH   5  10
HETATM   10  C           1     -21.430  -3.647  -7.256  0.00  0.00     0.044 C 
BRANCH  10  11
HETATM   11  C           1     -21.512  -4.054  -8.722  0.00  0.00     0.030 C 
BRANCH  11  12
HETATM   12  C           1     -22.930  -3.832  -9.232  0.00  0.00     0.230 C 
BRANCH  12  13
HETATM   13  N           1     -23.904  -4.047  -8.112  0.00  0.00    -0.079 N 
HETATM   14  H           1     -24.864  -3.780  -8.429  0.00  0.00     0.274 HD
HETATM   15  H           1     -23.898  -5.054  -7.832  0.00  0.00     0.274 HD
HETATM   16  H           1     -23.631  -3.456  -7.294  0.00  0.00     0.274 HD
ENDBRANCH  12  13
ENDBRANCH  11  12
ENDBRANCH  10  11
ENDBRANCH   5  10
ENDBRANCH   4   5
BRANCH   3  17
HETATM   17  C           1     -21.601  -7.368  -4.058  0.00  0.00     0.186 C 
BRANCH  17  18
HETATM   18  C           1     -21.644  -6.884  -2.628  0.00  0.00     0.196 C 
HETATM   19  O           1     -22.405  -5.946  -2.309  0.00  0.00    -0.646 OA
HETATM   20  O           1     -20.919  -7.423  -1.765  0.00  0.00    -0.646 OA
ENDBRANCH  17  18
BRANCH  17  21
HETATM   21  C           1     -20.999  -8.766  -4.103  0.00  0.00     0.045 C 
BRANCH  21  22
HETATM   22  C           1     -19.685  -8.728  -4.872  0.00  0.00     0.105 C 
BRANCH  22  23
HETATM   23  C           1     -18.577  -9.273  -4.004  0.00  0.00     0.215 C 
HETATM   24  O           1     -17.581  -9.729  -4.513  0.00  0.00    -0.274 OA
HETATM   25  N           1     -18.701  -9.251  -2.641  0.00  0.00    -0.370 N 
HETATM   26  H           1     -19.536  -8.869  -2.215  0.00  0.00     0.159 HD
HETATM   27  H           1     -17.958  -9.617  -2.060  0.00  0.00     0.159 HD
ENDBRANCH  22  23
ENDBRANCH  21  22
ENDBRANCH  17  21
ENDBRANCH   3  17
TORSDOF 11
ENDMDL
