MODEL 1
REMARK VINA RESULT:      -6.5      0.000      0.000
REMARK  7 active torsions:
REMARK  status: ('A' for Active; 'I' for Inactive)
REMARK    1  A    between atoms: C_1  and  O_8 
REMARK    2  A    between atoms: C_1  and  C_15 
REMARK    3  A    between atoms: C_6  and  C_19 
REMARK    4  A    between atoms: N_10  and  C_19 
REMARK    5  A    between atoms: N_14  and  C_15 
REMARK       I    between atoms: N_14  and  C_18 
REMARK    6  A    between atoms: C_15  and  C_16 
REMARK    7  A    between atoms: C_18  and  C_19 
ROOT
HETATM    1  O           1     -36.568  -1.246 -12.580  0.00  0.00    -0.271 OA
HETATM    2  H           1     -33.952  -0.841 -14.262  0.00  0.00     0.163 HD
HETATM    3  N           1     -34.940  -0.809 -14.043  0.00  0.00    -0.343 N 
HETATM    4  C           1     -35.391  -1.285 -12.841  0.00  0.00     0.249 C 
ENDROOT
BRANCH   4   5
HETATM    5  C           1     -34.414  -1.856 -11.843  0.00  0.00     0.278 C 
BRANCH   5   6
HETATM    6  C           1     -34.324  -3.365 -12.026  0.00  0.00     0.017 C 
HETATM    7  C           1     -32.899  -3.825 -11.754  0.00  0.00     0.012 C 
HETATM    8  C           1     -35.273  -4.052 -11.052  0.00  0.00     0.012 C 
ENDBRANCH   5   6
BRANCH   5   9
HETATM    9  N           1     -34.884  -1.549 -10.451  0.00  0.00    -0.066 N 
HETATM   10  H           1     -35.552  -0.745 -10.477  0.00  0.00     0.275 HD
HETATM   11  H           1     -35.365  -2.389 -10.055  0.00  0.00     0.275 HD
HETATM   12  H           1     -34.064  -1.303  -9.853  0.00  0.00     0.275 HD
ENDBRANCH   5   9
ENDBRANCH   4   5
BRANCH   3  13
HETATM   13  C           1     -35.877  -0.260 -15.003  0.00  0.00     0.209 C 
BRANCH  13  14
HETATM   14  C           1     -35.573   1.215 -15.224  0.00  0.00     0.200 C 
BRANCH  14  15
HETATM   15  O           1     -36.572   1.785 -16.027  0.00  0.00    -0.398 OA
HETATM   16  H           1     -37.137   2.274 -15.454  0.00  0.00     0.209 HD
ENDBRANCH  14  15
ENDBRANCH  13  14
BRANCH  13  17
HETATM   17  C           1     -35.751  -1.002 -16.311  0.00  0.00     0.198 C 
HETATM   18  O           1     -34.783  -1.768 -16.505  0.00  0.00    -0.646 OA
HETATM   19  O           1     -36.614  -0.848 -17.203  0.00  0.00    -0.646 OA
ENDBRANCH  13  17
ENDBRANCH   3  13
TORSDOF 7
ENDMDL
MODEL 2
REMARK VINA RESULT:      -5.6     12.835     14.644
REMARK  7 active torsions:
REMARK  status: ('A' for Active; 'I' for Inactive)
REMARK    1  A    between atoms: C_1  and  O_8 
REMARK    2  A    between atoms: C_1  and  C_15 
REMARK    3  A    between atoms: C_6  and  C_19 
REMARK    4  A    between atoms: N_10  and  C_19 
REMARK    5  A    between atoms: N_14  and  C_15 
REMARK       I    between atoms: N_14  and  C_18 
REMARK    6  A    between atoms: C_15  and  C_16 
REMARK    7  A    between atoms: C_18  and  C_19 
ROOT
HETATM    1  O           1     -20.674  -3.774  -8.487  0.00  0.00    -0.271 OA
HETATM    2  H           1     -23.010  -5.686  -9.340  0.00  0.00     0.163 HD
HETATM    3  N           1     -22.406  -4.874  -9.367  0.00  0.00    -0.343 N 
HETATM    4  C           1     -21.395  -4.742  -8.455  0.00  0.00     0.249 C 
ENDROOT
BRANCH   4   5
HETATM    5  C           1     -21.179  -5.809  -7.409  0.00  0.00     0.278 C 
BRANCH   5   6
HETATM    6  C           1     -21.512  -5.247  -6.033  0.00  0.00     0.017 C 
HETATM    7  C           1     -22.148  -6.334  -5.180  0.00  0.00     0.012 C 
HETATM    8  C           1     -20.234  -4.758  -5.363  0.00  0.00     0.012 C 
ENDBRANCH   5   6
BRANCH   5   9
HETATM    9  N           1     -19.746  -6.252  -7.434  0.00  0.00    -0.066 N 
HETATM   10  H           1     -19.659  -7.179  -6.959  0.00  0.00     0.275 HD
HETATM   11  H           1     -19.427  -6.338  -8.425  0.00  0.00     0.275 HD
HETATM   12  H           1     -19.155  -5.549  -6.937  0.00  0.00     0.275 HD
ENDBRANCH   5   9
ENDBRANCH   4   5
BRANCH   3  13
HETATM   13  C           1     -22.614  -3.850 -10.372  0.00  0.00     0.209 C 
BRANCH  13  14
HETATM   14  C           1     -21.937  -4.267 -11.671  0.00  0.00     0.200 C 
BRANCH  14  15
HETATM   15  O           1     -21.733  -3.139 -12.477  0.00  0.00    -0.398 OA
HETATM   16  H           1     -22.225  -3.276 -13.269  0.00  0.00     0.209 HD
ENDBRANCH  14  15
ENDBRANCH  13  14
BRANCH  13  17
HETATM   17  C           1     -24.093  -3.670 -10.610  0.00  0.00     0.198 C 
HETATM   18  O           1     -24.493  -2.895 -11.504  0.00  0.00    -0.646 OA
HETATM   19  O           1     -24.919  -4.295  -9.909  0.00  0.00    -0.646 OA
ENDBRANCH  13  17
ENDBRANCH   3  13
TORSDOF 7
ENDMDL
MODEL 3
REMARK VINA RESULT:      -5.6      2.407      5.251
REMARK  7 active torsions:
REMARK  status: ('A' for Active; 'I' for Inactive)
REMARK    1  A    between atoms: C_1  and  O_8 
REMARK    2  A    between atoms: C_1  and  C_15 
REMARK    3  A    between atoms: C_6  and  C_19 
REMARK    4  A    between atoms: N_10  and  C_19 
REMARK    5  A    between atoms: N_14  and  C_15 
REMARK       I    between atoms: N_14  and  C_18 
REMARK    6  A    between atoms: C_15  and  C_16 
REMARK    7  A    between atoms: C_18  and  C_19 
ROOT
HETATM    1  O           1     -36.622  -1.062 -12.194  0.00  0.00    -0.271 OA
HETATM    2  H           1     -34.129  -1.836 -13.933  0.00  0.00     0.163 HD
HETATM    3  N           1     -34.799  -1.895 -13.176  0.00  0.00    -0.343 N 
HETATM    4  C           1     -35.824  -0.992 -13.096  0.00  0.00     0.249 C 
ENDROOT
BRANCH   4   5
HETATM    5  C           1     -35.956   0.091 -14.139  0.00  0.00     0.278 C 
BRANCH   5   6
HETATM    6  C           1     -36.840  -0.403 -15.276  0.00  0.00     0.017 C 
HETATM    7  C           1     -37.840   0.681 -15.652  0.00  0.00     0.012 C 
HETATM    8  C           1     -35.974  -0.735 -16.484  0.00  0.00     0.012 C 
ENDBRANCH   5   6
BRANCH   5   9
HETATM    9  N           1     -34.599   0.438 -14.676  0.00  0.00    -0.066 N 
HETATM   10  H           1     -33.897   0.396 -13.904  0.00  0.00     0.275 HD
HETATM   11  H           1     -34.337  -0.244 -15.423  0.00  0.00     0.275 HD
HETATM   12  H           1     -34.620   1.403 -15.077  0.00  0.00     0.275 HD
ENDBRANCH   5   9
ENDBRANCH   4   5
BRANCH   3  13
HETATM   13  C           1     -34.670  -2.936 -12.175  0.00  0.00     0.209 C 
BRANCH  13  14
HETATM   14  C           1     -34.476  -4.281 -12.863  0.00  0.00     0.200 C 
BRANCH  14  15
HETATM   15  O           1     -33.670  -4.115 -13.997  0.00  0.00    -0.398 OA
HETATM   16  H           1     -34.009  -3.372 -14.467  0.00  0.00     0.209 HD
ENDBRANCH  14  15
ENDBRANCH  13  14
BRANCH  13  17
HETATM   17  C           1     -33.480  -2.644 -11.294  0.00  0.00     0.198 C 
HETATM   18  O           1     -32.441  -3.329 -11.400  0.00  0.00    -0.646 OA
HETATM   19  O           1     -33.535  -1.717 -10.457  0.00  0.00    -0.646 OA
ENDBRANCH  13  17
ENDBRANCH   3  13
TORSDOF 7
ENDMDL
MODEL 4
REMARK VINA RESULT:      -5.5      9.833     11.307
REMARK  7 active torsions:
REMARK  status: ('A' for Active; 'I' for Inactive)
REMARK    1  A    between atoms: C_1  and  O_8 
REMARK    2  A    between atoms: C_1  and  C_15 
REMARK    3  A    between atoms: C_6  and  C_19 
REMARK    4  A    between atoms: N_10  and  C_19 
REMARK    5  A    between atoms: N_14  and  C_15 
REMARK       I    between atoms: N_14  and  C_18 
REMARK    6  A    between atoms: C_15  and  C_16 
REMARK    7  A    between atoms: C_18  and  C_19 
ROOT
HETATM    1  O           1     -28.485  -5.271 -19.081  0.00  0.00    -0.271 OA
HETATM    2  H           1     -27.407  -8.194 -18.723  0.00  0.00     0.163 HD
HETATM    3  N           1     -27.502  -7.275 -19.134  0.00  0.00    -0.343 N 
HETATM    4  C           1     -28.372  -6.368 -18.591  0.00  0.00     0.249 C 
ENDROOT
BRANCH   4   5
HETATM    5  C           1     -29.186  -6.740 -17.376  0.00  0.00     0.278 C 
BRANCH   5   6
HETATM    6  C           1     -28.454  -6.295 -16.117  0.00  0.00     0.017 C 
HETATM    7  C           1     -29.458  -5.750 -15.111  0.00  0.00     0.012 C 
HETATM    8  C           1     -27.721  -7.484 -15.510  0.00  0.00     0.012 C 
ENDBRANCH   5   6
BRANCH   5   9
HETATM    9  N           1     -29.382  -8.227 -17.340  0.00  0.00    -0.066 N 
HETATM   10  H           1     -28.701  -8.652 -16.672  0.00  0.00     0.275 HD
HETATM   11  H           1     -30.356  -8.441 -17.028  0.00  0.00     0.275 HD
HETATM   12  H           1     -29.227  -8.621 -18.295  0.00  0.00     0.275 HD
ENDBRANCH   5   9
ENDBRANCH   4   5
BRANCH   3  13
HETATM   13  C           1     -26.719  -6.918 -20.301  0.00  0.00     0.209 C 
BRANCH  13  14
HETATM   14  C           1     -25.334  -6.463 -19.864  0.00  0.00     0.200 C 
BRANCH  14  15
HETATM   15  O           1     -24.744  -7.456 -19.069  0.00  0.00    -0.398 OA
HETATM   16  H           1     -23.841  -7.212 -18.952  0.00  0.00     0.209 HD
ENDBRANCH  14  15
ENDBRANCH  13  14
BRANCH  13  17
HETATM   17  C           1     -26.593  -8.117 -21.208  0.00  0.00     0.198 C 
HETATM   18  O           1     -25.496  -8.382 -21.745  0.00  0.00    -0.646 OA
HETATM   19  O           1     -27.587  -8.845 -21.425  0.00  0.00    -0.646 OA
ENDBRANCH  13  17
ENDBRANCH   3  13
TORSDOF 7
ENDMDL
MODEL 5
REMARK VINA RESULT:      -5.5     12.594     14.395
REMARK  7 active torsions:
REMARK  status: ('A' for Active; 'I' for Inactive)
REMARK    1  A    between atoms: C_1  and  O_8 
REMARK    2  A    between atoms: C_1  and  C_15 
REMARK    3  A    between atoms: C_6  and  C_19 
REMARK    4  A    between atoms: N_10  and  C_19 
REMARK    5  A    between atoms: N_14  and  C_15 
REMARK       I    between atoms: N_14  and  C_18 
REMARK    6  A    between atoms: C_15  and  C_16 
REMARK    7  A    between atoms: C_18  and  C_19 
ROOT
HETATM    1  O           1     -20.658  -4.844  -9.006  0.00  0.00    -0.271 OA
HETATM    2  H           1     -23.643  -3.894  -9.164  0.00  0.00     0.163 HD
HETATM    3  N           1     -22.739  -4.202  -9.498  0.00  0.00    -0.343 N 
HETATM    4  C           1     -21.736  -4.477  -8.608  0.00  0.00     0.249 C 
ENDROOT
BRANCH   4   5
HETATM    5  C           1     -21.981  -4.321  -7.127  0.00  0.00     0.278 C 
BRANCH   5   6
HETATM    6  C           1     -21.184  -5.374  -6.367  0.00  0.00     0.017 C 
HETATM    7  C           1     -20.086  -4.696  -5.560  0.00  0.00     0.012 C 
HETATM    8  C           1     -22.112  -6.129  -5.425  0.00  0.00     0.012 C 
ENDBRANCH   5   6
BRANCH   5   9
HETATM    9  N           1     -23.442  -4.497  -6.839  0.00  0.00    -0.066 N 
HETATM   10  H           1     -23.894  -5.014  -7.627  0.00  0.00     0.275 HD
HETATM   11  H           1     -23.558  -5.042  -5.954  0.00  0.00     0.275 HD
HETATM   12  H           1     -23.892  -3.560  -6.733  0.00  0.00     0.275 HD
ENDBRANCH   5   9
ENDBRANCH   4   5
BRANCH   3  13
HETATM   13  C           1     -22.505  -4.352 -10.921  0.00  0.00     0.209 C 
BRANCH  13  14
HETATM   14  C           1     -23.793  -4.791 -11.605  0.00  0.00     0.200 C 
BRANCH  14  15
HETATM   15  O           1     -23.666  -4.631 -12.992  0.00  0.00    -0.398 OA
HETATM   16  H           1     -24.322  -5.177 -13.391  0.00  0.00     0.209 HD
ENDBRANCH  14  15
ENDBRANCH  13  14
BRANCH  13  17
HETATM   17  C           1     -22.053  -3.033 -11.498  0.00  0.00     0.198 C 
HETATM   18  O           1     -20.842  -2.726 -11.485  0.00  0.00    -0.646 OA
HETATM   19  O           1     -22.891  -2.245 -11.989  0.00  0.00    -0.646 OA
ENDBRANCH  13  17
ENDBRANCH   3  13
TORSDOF 7
ENDMDL
MODEL 6
REMARK VINA RESULT:      -5.4      3.286      5.397
REMARK  7 active torsions:
REMARK  status: ('A' for Active; 'I' for Inactive)
REMARK    1  A    between atoms: C_1  and  O_8 
REMARK    2  A    between atoms: C_1  and  C_15 
REMARK    3  A    between atoms: C_6  and  C_19 
REMARK    4  A    between atoms: N_10  and  C_19 
REMARK    5  A    between atoms: N_14  and  C_15 
REMARK       I    between atoms: N_14  and  C_18 
REMARK    6  A    between atoms: C_15  and  C_16 
REMARK    7  A    between atoms: C_18  and  C_19 
ROOT
HETATM    1  O           1     -34.306  -1.474 -10.236  0.00  0.00    -0.271 OA
HETATM    2  H           1     -35.886  -3.435 -12.106  0.00  0.00     0.163 HD
HETATM    3  N           1     -35.153  -3.122 -11.481  0.00  0.00    -0.343 N 
HETATM    4  C           1     -35.179  -1.848 -10.980  0.00  0.00     0.249 C 
ENDROOT
BRANCH   4   5
HETATM    5  C           1     -36.301  -0.912 -11.358  0.00  0.00     0.278 C 
BRANCH   5   6
HETATM    6  C           1     -36.220  -0.596 -12.845  0.00  0.00     0.017 C 
HETATM    7  C           1     -37.569  -0.085 -13.331  0.00  0.00     0.012 C 
HETATM    8  C           1     -35.159   0.472 -13.080  0.00  0.00     0.012 C 
ENDBRANCH   5   6
BRANCH   5   9
HETATM    9  N           1     -36.179   0.359 -10.570  0.00  0.00    -0.066 N 
HETATM   10  H           1     -36.094   1.169 -11.225  0.00  0.00     0.275 HD
HETATM   11  H           1     -37.030   0.481  -9.975  0.00  0.00     0.275 HD
HETATM   12  H           1     -35.331   0.311  -9.961  0.00  0.00     0.275 HD
ENDBRANCH   5   9
ENDBRANCH   4   5
BRANCH   3  13
HETATM   13  C           1     -34.076  -4.022 -11.119  0.00  0.00     0.209 C 
BRANCH  13  14
HETATM   14  C           1     -34.654  -5.376 -10.732  0.00  0.00     0.200 C 
BRANCH  14  15
HETATM   15  O           1     -34.327  -6.323 -11.712  0.00  0.00    -0.398 OA
HETATM   16  H           1     -33.880  -5.860 -12.401  0.00  0.00     0.209 HD
ENDBRANCH  14  15
ENDBRANCH  13  14
BRANCH  13  17
HETATM   17  C           1     -33.143  -4.189 -12.294  0.00  0.00     0.198 C 
HETATM   18  O           1     -33.535  -3.911 -13.447  0.00  0.00    -0.646 OA
HETATM   19  O           1     -31.979  -4.608 -12.113  0.00  0.00    -0.646 OA
ENDBRANCH  13  17
ENDBRANCH   3  13
TORSDOF 7
ENDMDL
MODEL 7
REMARK VINA RESULT:      -5.3     12.720     14.755
REMARK  7 active torsions:
REMARK  status: ('A' for Active; 'I' for Inactive)
REMARK    1  A    between atoms: C_1  and  O_8 
REMARK    2  A    between atoms: C_1  and  C_15 
REMARK    3  A    between atoms: C_6  and  C_19 
REMARK    4  A    between atoms: N_10  and  C_19 
REMARK    5  A    between atoms: N_14  and  C_15 
REMARK       I    between atoms: N_14  and  C_18 
REMARK    6  A    between atoms: C_15  and  C_16 
REMARK    7  A    between atoms: C_18  and  C_19 
ROOT
HETATM    1  O           1     -20.914  -2.974 -10.827  0.00  0.00    -0.271 OA
HETATM    2  H           1     -23.015  -5.093  -9.862  0.00  0.00     0.163 HD
HETATM    3  N           1     -22.269  -4.413  -9.790  0.00  0.00    -0.343 N 
HETATM    4  C           1     -21.803  -3.785 -10.913  0.00  0.00     0.249 C 
ENDROOT
BRANCH   4   5
HETATM    5  C           1     -22.404  -4.106 -12.260  0.00  0.00     0.278 C 
BRANCH   5   6
HETATM    6  C           1     -23.109  -2.872 -12.808  0.00  0.00     0.017 C 
HETATM    7  C           1     -22.924  -2.811 -14.318  0.00  0.00     0.012 C 
HETATM    8  C           1     -24.594  -2.950 -12.482  0.00  0.00     0.012 C 
ENDBRANCH   5   6
BRANCH   5   9
HETATM    9  N           1     -23.395  -5.222 -12.113  0.00  0.00    -0.066 N 
HETATM   10  H           1     -24.224  -5.036 -12.722  0.00  0.00     0.275 HD
HETATM   11  H           1     -22.948  -6.123 -12.400  0.00  0.00     0.275 HD
HETATM   12  H           1     -23.702  -5.287 -11.116  0.00  0.00     0.275 HD
ENDBRANCH   5   9
ENDBRANCH   4   5
BRANCH   3  13
HETATM   13  C           1     -21.693  -4.105  -8.495  0.00  0.00     0.209 C 
BRANCH  13  14
HETATM   14  C           1     -22.759  -4.245  -7.418  0.00  0.00     0.200 C 
BRANCH  14  15
HETATM   15  O           1     -24.028  -4.075  -7.989  0.00  0.00    -0.398 OA
HETATM   16  H           1     -24.658  -4.326  -7.335  0.00  0.00     0.209 HD
ENDBRANCH  14  15
ENDBRANCH  13  14
BRANCH  13  17
HETATM   17  C           1     -20.559  -5.060  -8.209  0.00  0.00     0.198 C 
HETATM   18  O           1     -19.390  -4.756  -8.529  0.00  0.00    -0.646 OA
HETATM   19  O           1     -20.790  -6.156  -7.654  0.00  0.00    -0.646 OA
ENDBRANCH  13  17
ENDBRANCH   3  13
TORSDOF 7
ENDMDL
MODEL 8
REMARK VINA RESULT:      -5.2     13.813     16.019
REMARK  7 active torsions:
REMARK  status: ('A' for Active; 'I' for Inactive)
REMARK    1  A    between atoms: C_1  and  O_8 
REMARK    2  A    between atoms: C_1  and  C_15 
REMARK    3  A    between atoms: C_6  and  C_19 
REMARK    4  A    between atoms: N_10  and  C_19 
REMARK    5  A    between atoms: N_14  and  C_15 
REMARK       I    between atoms: N_14  and  C_18 
REMARK    6  A    between atoms: C_15  and  C_16 
REMARK    7  A    between atoms: C_18  and  C_19 
ROOT
HETATM    1  O           1     -23.452  -4.164  -8.023  0.00  0.00    -0.271 OA
HETATM    2  H           1     -20.846  -5.746  -8.759  0.00  0.00     0.163 HD
HETATM    3  N           1     -21.545  -5.316  -8.168  0.00  0.00    -0.343 N 
HETATM    4  C           1     -22.618  -4.677  -8.728  0.00  0.00     0.249 C 
ENDROOT
BRANCH   4   5
HETATM    5  C           1     -22.759  -4.617 -10.229  0.00  0.00     0.278 C 
BRANCH   5   6
HETATM    6  C           1     -21.992  -3.415 -10.765  0.00  0.00     0.017 C 
HETATM    7  C           1     -20.608  -3.857 -11.219  0.00  0.00     0.012 C 
HETATM    8  C           1     -22.746  -2.817 -11.945  0.00  0.00     0.012 C 
ENDBRANCH   5   6
BRANCH   5   9
HETATM    9  N           1     -24.209  -4.485 -10.591  0.00  0.00    -0.066 N 
HETATM   10  H           1     -24.778  -5.127  -9.994  0.00  0.00     0.275 HD
HETATM   11  H           1     -24.517  -3.499 -10.434  0.00  0.00     0.275 HD
HETATM   12  H           1     -24.341  -4.736 -11.597  0.00  0.00     0.275 HD
ENDBRANCH   5   9
ENDBRANCH   4   5
BRANCH   3  13
HETATM   13  C           1     -21.409  -5.374  -6.725  0.00  0.00     0.209 C 
BRANCH  13  14
HETATM   14  C           1     -21.409  -6.828  -6.273  0.00  0.00     0.200 C 
BRANCH  14  15
HETATM   15  O           1     -20.089  -7.286  -6.166  0.00  0.00    -0.398 OA
HETATM   16  H           1     -20.130  -8.226  -6.109  0.00  0.00     0.209 HD
ENDBRANCH  14  15
ENDBRANCH  13  14
BRANCH  13  17
HETATM   17  C           1     -20.112  -4.719  -6.316  0.00  0.00     0.198 C 
HETATM   18  O           1     -19.919  -4.409  -5.121  0.00  0.00    -0.646 OA
HETATM   19  O           1     -19.232  -4.485  -7.173  0.00  0.00    -0.646 OA
ENDBRANCH  13  17
ENDBRANCH   3  13
TORSDOF 7
ENDMDL
MODEL 9
REMARK VINA RESULT:      -5.2     10.031     11.434
REMARK  7 active torsions:
REMARK  status: ('A' for Active; 'I' for Inactive)
REMARK    1  A    between atoms: C_1  and  O_8 
REMARK    2  A    between atoms: C_1  and  C_15 
REMARK    3  A    between atoms: C_6  and  C_19 
REMARK    4  A    between atoms: N_10  and  C_19 
REMARK    5  A    between atoms: N_14  and  C_15 
REMARK       I    between atoms: N_14  and  C_18 
REMARK    6  A    between atoms: C_15  and  C_16 
REMARK    7  A    between atoms: C_18  and  C_19 
ROOT
HETATM    1  O           1     -26.546  -5.846 -17.156  0.00  0.00    -0.271 OA
HETATM    2  H           1     -27.600  -7.308 -19.723  0.00  0.00     0.163 HD
HETATM    3  N           1     -27.642  -6.852 -18.821  0.00  0.00    -0.343 N 
HETATM    4  C           1     -26.496  -6.390 -18.232  0.00  0.00     0.249 C 
ENDROOT
BRANCH   4   5
HETATM    5  C           1     -25.169  -6.561 -18.931  0.00  0.00     0.278 C 
BRANCH   5   6
HETATM    6  C           1     -25.398  -7.135 -20.323  0.00  0.00     0.017 C 
HETATM    7  C           1     -25.496  -5.999 -21.331  0.00  0.00     0.012 C 
HETATM    8  C           1     -24.233  -8.044 -20.694  0.00  0.00     0.012 C 
ENDBRANCH   5   6
BRANCH   5   9
HETATM    9  N           1     -24.304  -7.497 -18.141  0.00  0.00    -0.066 N 
HETATM   10  H           1     -24.264  -8.425 -18.620  0.00  0.00     0.275 HD
HETATM   11  H           1     -23.339  -7.101 -18.069  0.00  0.00     0.275 HD
HETATM   12  H           1     -24.704  -7.616 -17.183  0.00  0.00     0.275 HD
ENDBRANCH   5   9
ENDBRANCH   4   5
BRANCH   3  13
HETATM   13  C           1     -28.918  -6.688 -18.151  0.00  0.00     0.209 C 
BRANCH  13  14
HETATM   14  C           1     -29.518  -5.339 -18.522  0.00  0.00     0.200 C 
BRANCH  14  15
HETATM   15  O           1     -30.518  -5.002 -17.600  0.00  0.00    -0.398 OA
HETATM   16  H           1     -30.187  -5.220 -16.745  0.00  0.00     0.209 HD
ENDBRANCH  14  15
ENDBRANCH  13  14
BRANCH  13  17
HETATM   17  C           1     -29.855  -7.791 -18.577  0.00  0.00     0.198 C 
HETATM   18  O           1     -31.017  -7.836 -18.119  0.00  0.00    -0.646 OA
HETATM   19  O           1     -29.468  -8.663 -19.386  0.00  0.00    -0.646 OA
ENDBRANCH  13  17
ENDBRANCH   3  13
TORSDOF 7
ENDMDL
