MODEL 1
REMARK VINA RESULT:      -8.2      0.000      0.000
REMARK  8 active torsions:
REMARK  status: ('A' for Active; 'I' for Inactive)
REMARK    1  A    between atoms: C_1  and  C_24 
REMARK    2  A    between atoms: C_1  and  C_2 
REMARK    3  A    between atoms: C_1  and  N_17 
REMARK    4  A    between atoms: C_5  and  C_13 
REMARK    5  A    between atoms: C_5  and  C_18 
REMARK    6  A    between atoms: N_6  and  C_13 
REMARK       I    between atoms: C_8  and  N_17 
REMARK    7  A    between atoms: C_8  and  C_13 
REMARK    8  A    between atoms: C_23  and  C_24 
ROOT
HETATM    1  C           1     -21.951  -4.517  -7.136  0.00  0.00     0.278 C 
ENDROOT
BRANCH   1   2
HETATM    2  C           1     -21.815  -4.928  -8.596  0.00  0.00     0.083 C 
BRANCH   2   3
HETATM    3  C           1     -22.976  -4.395  -9.376  0.00  0.00    -0.028 A 
HETATM    4  C           1     -22.935  -3.901 -10.709  0.00  0.00    -0.002 A 
HETATM    5  C           1     -24.231  -3.508 -11.042  0.00  0.00     0.042 A 
HETATM    6  C           1     -21.913  -3.750 -11.667  0.00  0.00     0.014 A 
HETATM    7  N           1     -25.024  -3.758  -9.945  0.00  0.00    -0.365 N 
HETATM    8  C           1     -24.560  -2.970 -12.293  0.00  0.00     0.030 A 
HETATM    9  C           1     -24.275  -4.295  -8.932  0.00  0.00     0.096 A 
HETATM   10  H           1     -26.055  -3.566  -9.893  0.00  0.00     0.165 HD
HETATM   11  C           1     -23.528  -2.830 -13.227  0.00  0.00     0.002 A 
HETATM   12  C           1     -22.224  -3.213 -12.921  0.00  0.00     0.001 A 
ENDBRANCH   2   3
ENDBRANCH   1   2
BRANCH   1  13
HETATM   13  N           1     -21.578  -3.071  -6.988  0.00  0.00    -0.066 N 
HETATM   14  H           1     -20.548  -2.991  -6.832  0.00  0.00     0.275 HD
HETATM   15  H           1     -21.838  -2.554  -7.859  0.00  0.00     0.275 HD
HETATM   16  H           1     -22.088  -2.661  -6.173  0.00  0.00     0.275 HD
ENDBRANCH   1  13
BRANCH   1  17
HETATM   17  C           1     -21.035  -5.361  -6.286  0.00  0.00     0.249 C 
HETATM   18  N           1     -21.558  -6.304  -5.442  0.00  0.00    -0.344 N 
HETATM   19  H           1     -22.560  -6.434  -5.389  0.00  0.00     0.163 HD
HETATM   20  O           1     -19.839  -5.206  -6.351  0.00  0.00    -0.271 OA
BRANCH  18  21
HETATM   21  C           1     -20.676  -7.115  -4.626  0.00  0.00     0.189 C 
BRANCH  21  22
HETATM   22  C           1     -21.387  -7.496  -3.334  0.00  0.00     0.014 C 
HETATM   23  C           1     -20.415  -8.224  -2.416  0.00  0.00     0.012 C 
BRANCH  22  24
HETATM   24  C           1     -21.892  -6.237  -2.642  0.00  0.00     0.002 C 
HETATM   25  C           1     -22.291  -6.568  -1.211  0.00  0.00     0.005 C 
ENDBRANCH  22  24
ENDBRANCH  21  22
BRANCH  21  26
HETATM   26  C           1     -20.303  -8.367  -5.382  0.00  0.00     0.197 C 
HETATM   27  O           1     -19.108  -8.587  -5.677  0.00  0.00    -0.646 OA
HETATM   28  O           1     -21.189  -9.184  -5.713  0.00  0.00    -0.646 OA
ENDBRANCH  21  26
ENDBRANCH  18  21
ENDBRANCH   1  17
TORSDOF 8
ENDMDL
MODEL 2
REMARK VINA RESULT:      -8.0      1.284      1.888
REMARK  8 active torsions:
REMARK  status: ('A' for Active; 'I' for Inactive)
REMARK    1  A    between atoms: C_1  and  C_24 
REMARK    2  A    between atoms: C_1  and  C_2 
REMARK    3  A    between atoms: C_1  and  N_17 
REMARK    4  A    between atoms: C_5  and  C_13 
REMARK    5  A    between atoms: C_5  and  C_18 
REMARK    6  A    between atoms: N_6  and  C_13 
REMARK       I    between atoms: C_8  and  N_17 
REMARK    7  A    between atoms: C_8  and  C_13 
REMARK    8  A    between atoms: C_23  and  C_24 
ROOT
HETATM    1  C           1     -22.228  -5.140  -7.074  0.00  0.00     0.278 C 
ENDROOT
BRANCH   1   2
HETATM    2  C           1     -21.693  -3.802  -7.567  0.00  0.00     0.083 C 
BRANCH   2   3
HETATM    3  C           1     -21.430  -3.881  -9.038  0.00  0.00    -0.028 A 
HETATM    4  C           1     -22.386  -3.679 -10.072  0.00  0.00    -0.002 A 
HETATM    5  C           1     -21.719  -3.845 -11.286  0.00  0.00     0.042 A 
HETATM    6  C           1     -23.760  -3.370 -10.090  0.00  0.00     0.014 A 
HETATM    7  N           1     -20.407  -4.137 -10.990  0.00  0.00    -0.365 N 
HETATM    8  C           1     -22.361  -3.717 -12.525  0.00  0.00     0.030 A 
HETATM    9  C           1     -20.221  -4.161  -9.634  0.00  0.00     0.096 A 
HETATM   10  H           1     -19.656  -4.316 -11.702  0.00  0.00     0.165 HD
HETATM   11  C           1     -23.725  -3.409 -12.517  0.00  0.00     0.002 A 
HETATM   12  C           1     -24.417  -3.238 -11.319  0.00  0.00     0.001 A 
ENDBRANCH   2   3
ENDBRANCH   1   2
BRANCH   1  13
HETATM   13  N           1     -23.533  -4.925  -6.366  0.00  0.00    -0.066 N 
HETATM   14  H           1     -23.355  -4.502  -5.427  0.00  0.00     0.275 HD
HETATM   15  H           1     -24.132  -4.280  -6.929  0.00  0.00     0.275 HD
HETATM   16  H           1     -24.020  -5.842  -6.249  0.00  0.00     0.275 HD
ENDBRANCH   1  13
BRANCH   1  17
HETATM   17  C           1     -21.236  -5.759  -6.121  0.00  0.00     0.249 C 
HETATM   18  N           1     -21.599  -6.836  -5.358  0.00  0.00    -0.344 N 
HETATM   19  H           1     -22.534  -7.217  -5.433  0.00  0.00     0.163 HD
HETATM   20  O           1     -20.120  -5.305  -6.032  0.00  0.00    -0.271 OA
BRANCH  18  21
HETATM   21  C           1     -20.645  -7.431  -4.442  0.00  0.00     0.189 C 
BRANCH  21  22
HETATM   22  C           1     -21.337  -7.751  -3.124  0.00  0.00     0.014 C 
HETATM   23  C           1     -20.321  -8.320  -2.143  0.00  0.00     0.012 C 
BRANCH  22  24
HETATM   24  C           1     -21.941  -6.477  -2.546  0.00  0.00     0.002 C 
HETATM   25  C           1     -22.305  -6.704  -1.085  0.00  0.00     0.005 C 
ENDBRANCH  22  24
ENDBRANCH  21  22
BRANCH  21  26
HETATM   26  C           1     -20.099  -8.703  -5.043  0.00  0.00     0.197 C 
HETATM   27  O           1     -18.867  -8.914  -5.047  0.00  0.00    -0.646 OA
HETATM   28  O           1     -20.879  -9.546  -5.539  0.00  0.00    -0.646 OA
ENDBRANCH  21  26
ENDBRANCH  18  21
ENDBRANCH   1  17
TORSDOF 8
ENDMDL
MODEL 3
REMARK VINA RESULT:      -7.9      1.485      1.982
REMARK  8 active torsions:
REMARK  status: ('A' for Active; 'I' for Inactive)
REMARK    1  A    between atoms: C_1  and  C_24 
REMARK    2  A    between atoms: C_1  and  C_2 
REMARK    3  A    between atoms: C_1  and  N_17 
REMARK    4  A    between atoms: C_5  and  C_13 
REMARK    5  A    between atoms: C_5  and  C_18 
REMARK    6  A    between atoms: N_6  and  C_13 
REMARK       I    between atoms: C_8  and  N_17 
REMARK    7  A    between atoms: C_8  and  C_13 
REMARK    8  A    between atoms: C_23  and  C_24 
ROOT
HETATM    1  C           1     -20.773  -5.459  -5.990  0.00  0.00     0.278 C 
ENDROOT
BRANCH   1   2
HETATM    2  C           1     -20.520  -5.046  -7.434  0.00  0.00     0.083 C 
BRANCH   2   3
HETATM    3  C           1     -21.797  -4.561  -8.045  0.00  0.00    -0.028 A 
HETATM    4  C           1     -21.968  -4.112  -9.384  0.00  0.00    -0.002 A 
HETATM    5  C           1     -23.308  -3.754  -9.530  0.00  0.00     0.042 A 
HETATM    6  C           1     -21.106  -3.976 -10.490  0.00  0.00     0.014 A 
HETATM    7  N           1     -23.921  -3.980  -8.318  0.00  0.00    -0.365 N 
HETATM    8  C           1     -23.833  -3.264 -10.732  0.00  0.00     0.030 A 
HETATM    9  C           1     -23.017  -4.468  -7.413  0.00  0.00     0.096 A 
HETATM   10  H           1     -24.936  -3.805  -8.117  0.00  0.00     0.165 HD
HETATM   11  C           1     -22.958  -3.138 -11.816  0.00  0.00     0.002 A 
HETATM   12  C           1     -21.614  -3.487 -11.699  0.00  0.00     0.001 A 
ENDBRANCH   2   3
ENDBRANCH   1   2
BRANCH   1  13
HETATM   13  N           1     -20.075  -4.502  -5.068  0.00  0.00    -0.066 N 
HETATM   14  H           1     -19.171  -4.918  -4.753  0.00  0.00     0.275 HD
HETATM   15  H           1     -19.888  -3.607  -5.574  0.00  0.00     0.275 HD
HETATM   16  H           1     -20.681  -4.313  -4.238  0.00  0.00     0.275 HD
ENDBRANCH   1  13
BRANCH   1  17
HETATM   17  C           1     -20.242  -6.852  -5.762  0.00  0.00     0.249 C 
HETATM   18  N           1     -20.650  -7.572  -4.672  0.00  0.00    -0.344 N 
HETATM   19  H           1     -21.310  -7.169  -4.018  0.00  0.00     0.163 HD
HETATM   20  O           1     -19.456  -7.333  -6.543  0.00  0.00    -0.271 OA
BRANCH  18  21
HETATM   21  C           1     -20.139  -8.911  -4.455  0.00  0.00     0.189 C 
BRANCH  21  22
HETATM   22  C           1     -19.898  -9.128  -2.967  0.00  0.00     0.014 C 
HETATM   23  C           1     -18.412  -9.350  -2.721  0.00  0.00     0.012 C 
BRANCH  22  24
HETATM   24  C           1     -20.362  -7.900  -2.193  0.00  0.00     0.002 C 
HETATM   25  C           1     -21.253  -8.333  -1.037  0.00  0.00     0.005 C 
ENDBRANCH  22  24
ENDBRANCH  21  22
BRANCH  21  26
HETATM   26  C           1     -21.146  -9.920  -4.952  0.00  0.00     0.197 C 
HETATM   27  O           1     -21.114 -10.301  -6.142  0.00  0.00    -0.646 OA
HETATM   28  O           1     -22.013 -10.374  -4.173  0.00  0.00    -0.646 OA
ENDBRANCH  21  26
ENDBRANCH  18  21
ENDBRANCH   1  17
TORSDOF 8
ENDMDL
MODEL 4
REMARK VINA RESULT:      -7.9      2.089      2.712
REMARK  8 active torsions:
REMARK  status: ('A' for Active; 'I' for Inactive)
REMARK    1  A    between atoms: C_1  and  C_24 
REMARK    2  A    between atoms: C_1  and  C_2 
REMARK    3  A    between atoms: C_1  and  N_17 
REMARK    4  A    between atoms: C_5  and  C_13 
REMARK    5  A    between atoms: C_5  and  C_18 
REMARK    6  A    between atoms: N_6  and  C_13 
REMARK       I    between atoms: C_8  and  N_17 
REMARK    7  A    between atoms: C_8  and  C_13 
REMARK    8  A    between atoms: C_23  and  C_24 
ROOT
HETATM    1  C           1     -21.191  -4.983  -6.056  0.00  0.00     0.278 C 
ENDROOT
BRANCH   1   2
HETATM    2  C           1     -21.210  -5.492  -7.491  0.00  0.00     0.083 C 
BRANCH   2   3
HETATM    3  C           1     -22.207  -4.709  -8.286  0.00  0.00    -0.028 A 
HETATM    4  C           1     -22.044  -4.259  -9.626  0.00  0.00    -0.002 A 
HETATM    5  C           1     -23.207  -3.572  -9.973  0.00  0.00     0.042 A 
HETATM    6  C           1     -21.012  -4.370 -10.578  0.00  0.00     0.014 A 
HETATM    7  N           1     -24.041  -3.610  -8.878  0.00  0.00    -0.365 N 
HETATM    8  C           1     -23.393  -2.989 -11.233  0.00  0.00     0.030 A 
HETATM    9  C           1     -23.446  -4.295  -7.852  0.00  0.00     0.096 A 
HETATM   10  H           1     -24.996  -3.176  -8.836  0.00  0.00     0.165 HD
HETATM   11  C           1     -22.355  -3.114 -12.162  0.00  0.00     0.002 A 
HETATM   12  C           1     -21.181  -3.792 -11.842  0.00  0.00     0.001 A 
ENDBRANCH   2   3
ENDBRANCH   1   2
BRANCH   1  13
HETATM   13  N           1     -19.778  -4.677  -5.654  0.00  0.00    -0.066 N 
HETATM   14  H           1     -19.136  -5.392  -6.063  0.00  0.00     0.275 HD
HETATM   15  H           1     -19.514  -3.730  -6.009  0.00  0.00     0.275 HD
HETATM   16  H           1     -19.701  -4.693  -4.612  0.00  0.00     0.275 HD
ENDBRANCH   1  13
BRANCH   1  17
HETATM   17  C           1     -21.755  -6.039  -5.139  0.00  0.00     0.249 C 
HETATM   18  N           1     -20.915  -6.815  -4.387  0.00  0.00    -0.344 N 
HETATM   19  H           1     -19.913  -6.680  -4.446  0.00  0.00     0.163 HD
HETATM   20  O           1     -22.950  -6.200  -5.067  0.00  0.00    -0.271 OA
BRANCH  18  21
HETATM   21  C           1     -21.458  -7.830  -3.505  0.00  0.00     0.189 C 
BRANCH  21  22
HETATM   22  C           1     -20.663  -9.119  -3.663  0.00  0.00     0.014 C 
HETATM   23  C           1     -21.506 -10.147  -4.406  0.00  0.00     0.012 C 
BRANCH  22  24
HETATM   24  C           1     -19.392  -8.838  -4.453  0.00  0.00     0.002 C 
HETATM   25  C           1     -18.186  -9.349  -3.676  0.00  0.00     0.005 C 
ENDBRANCH  22  24
ENDBRANCH  21  22
BRANCH  21  26
HETATM   26  C           1     -21.366  -7.354  -2.076  0.00  0.00     0.197 C 
HETATM   27  O           1     -20.546  -7.882  -1.293  0.00  0.00    -0.646 OA
HETATM   28  O           1     -22.109  -6.433  -1.674  0.00  0.00    -0.646 OA
ENDBRANCH  21  26
ENDBRANCH  18  21
ENDBRANCH   1  17
TORSDOF 8
ENDMDL
MODEL 5
REMARK VINA RESULT:      -7.4      2.195      3.148
REMARK  8 active torsions:
REMARK  status: ('A' for Active; 'I' for Inactive)
REMARK    1  A    between atoms: C_1  and  C_24 
REMARK    2  A    between atoms: C_1  and  C_2 
REMARK    3  A    between atoms: C_1  and  N_17 
REMARK    4  A    between atoms: C_5  and  C_13 
REMARK    5  A    between atoms: C_5  and  C_18 
REMARK    6  A    between atoms: N_6  and  C_13 
REMARK       I    between atoms: C_8  and  N_17 
REMARK    7  A    between atoms: C_8  and  C_13 
REMARK    8  A    between atoms: C_23  and  C_24 
ROOT
HETATM    1  C           1     -21.351  -5.000  -6.532  0.00  0.00     0.278 C 
ENDROOT
BRANCH   1   2
HETATM    2  C           1     -21.015  -5.805  -7.780  0.00  0.00     0.083 C 
BRANCH   2   3
HETATM    3  C           1     -21.037  -4.905  -8.976  0.00  0.00    -0.028 A 
HETATM    4  C           1     -22.199  -4.404  -9.626  0.00  0.00    -0.002 A 
HETATM    5  C           1     -21.765  -3.610 -10.688  0.00  0.00     0.042 A 
HETATM    6  C           1     -23.583  -4.552  -9.412  0.00  0.00     0.014 A 
HETATM    7  N           1     -20.389  -3.633 -10.674  0.00  0.00    -0.365 N 
HETATM    8  C           1     -22.650  -2.951 -11.550  0.00  0.00     0.030 A 
HETATM    9  C           1     -19.938  -4.414  -9.643  0.00  0.00     0.096 A 
HETATM   10  H           1     -19.773  -3.126 -11.356  0.00  0.00     0.165 HD
HETATM   11  C           1     -24.020  -3.113 -11.317  0.00  0.00     0.002 A 
HETATM   12  C           1     -24.482  -3.901 -10.265  0.00  0.00     0.001 A 
ENDBRANCH   2   3
ENDBRANCH   1   2
BRANCH   1  13
HETATM   13  N           1     -20.103  -4.358  -6.001  0.00  0.00    -0.066 N 
HETATM   14  H           1     -19.508  -4.039  -6.798  0.00  0.00     0.275 HD
HETATM   15  H           1     -20.360  -3.536  -5.409  0.00  0.00     0.275 HD
HETATM   16  H           1     -19.573  -5.050  -5.425  0.00  0.00     0.275 HD
ENDBRANCH   1  13
BRANCH   1  17
HETATM   17  C           1     -21.930  -5.915  -5.482  0.00  0.00     0.249 C 
HETATM   18  N           1     -21.101  -6.683  -4.709  0.00  0.00    -0.344 N 
HETATM   19  H           1     -20.099  -6.636  -4.842  0.00  0.00     0.163 HD
HETATM   20  O           1     -23.126  -5.970  -5.323  0.00  0.00    -0.271 OA
BRANCH  18  21
HETATM   21  C           1     -21.659  -7.563  -3.700  0.00  0.00     0.189 C 
BRANCH  21  22
HETATM   22  C           1     -20.887  -8.876  -3.688  0.00  0.00     0.014 C 
HETATM   23  C           1     -21.803 -10.006  -4.138  0.00  0.00     0.012 C 
BRANCH  22  24
HETATM   24  C           1     -19.700  -8.775  -4.637  0.00  0.00     0.002 C 
HETATM   25  C           1     -18.459  -9.341  -3.960  0.00  0.00     0.005 C 
ENDBRANCH  22  24
ENDBRANCH  21  22
BRANCH  21  26
HETATM   26  C           1     -21.552  -6.905  -2.346  0.00  0.00     0.197 C 
HETATM   27  O           1     -22.280  -5.927  -2.066  0.00  0.00    -0.646 OA
HETATM   28  O           1     -20.735  -7.337  -1.504  0.00  0.00    -0.646 OA
ENDBRANCH  21  26
ENDBRANCH  18  21
ENDBRANCH   1  17
TORSDOF 8
ENDMDL
MODEL 6
REMARK VINA RESULT:      -7.1      2.045      8.326
REMARK  8 active torsions:
REMARK  status: ('A' for Active; 'I' for Inactive)
REMARK    1  A    between atoms: C_1  and  C_24 
REMARK    2  A    between atoms: C_1  and  C_2 
REMARK    3  A    between atoms: C_1  and  N_17 
REMARK    4  A    between atoms: C_5  and  C_13 
REMARK    5  A    between atoms: C_5  and  C_18 
REMARK    6  A    between atoms: N_6  and  C_13 
REMARK       I    between atoms: C_8  and  N_17 
REMARK    7  A    between atoms: C_8  and  C_13 
REMARK    8  A    between atoms: C_23  and  C_24 
ROOT
HETATM    1  C           1     -21.792  -5.915  -5.119  0.00  0.00     0.278 C 
ENDROOT
BRANCH   1   2
HETATM    2  C           1     -21.031  -7.023  -4.402  0.00  0.00     0.083 C 
BRANCH   2   3
HETATM    3  C           1     -21.503  -7.118  -2.985  0.00  0.00    -0.028 A 
HETATM    4  C           1     -21.735  -8.318  -2.258  0.00  0.00    -0.002 A 
HETATM    5  C           1     -22.165  -7.950  -0.983  0.00  0.00     0.042 A 
HETATM    6  C           1     -21.621  -9.688  -2.566  0.00  0.00     0.014 A 
HETATM    7  N           1     -22.189  -6.574  -0.946  0.00  0.00    -0.365 N 
HETATM    8  C           1     -22.487  -8.887   0.006  0.00  0.00     0.030 A 
HETATM    9  C           1     -21.791  -6.061  -2.152  0.00  0.00     0.096 A 
HETATM   10  H           1     -22.471  -6.000  -0.114  0.00  0.00     0.165 HD
HETATM   11  C           1     -22.365 -10.241  -0.323  0.00  0.00     0.002 A 
HETATM   12  C           1     -21.940 -10.639  -1.588  0.00  0.00     0.001 A 
ENDBRANCH   2   3
ENDBRANCH   1   2
BRANCH   1  13
HETATM   13  N           1     -23.267  -6.136  -4.954  0.00  0.00    -0.066 N 
HETATM   14  H           1     -23.429  -6.984  -4.366  0.00  0.00     0.275 HD
HETATM   15  H           1     -23.693  -5.303  -4.488  0.00  0.00     0.275 HD
HETATM   16  H           1     -23.705  -6.273  -5.892  0.00  0.00     0.275 HD
ENDBRANCH   1  13
BRANCH   1  17
HETATM   17  C           1     -21.443  -5.930  -6.586  0.00  0.00     0.249 C 
HETATM   18  N           1     -21.907  -4.942  -7.411  0.00  0.00    -0.344 N 
HETATM   19  H           1     -22.486  -4.200  -7.036  0.00  0.00     0.163 HD
HETATM   20  O           1     -20.752  -6.814  -7.032  0.00  0.00    -0.271 OA
BRANCH  18  21
HETATM   21  C           1     -21.571  -4.957  -8.822  0.00  0.00     0.189 C 
BRANCH  21  22
HETATM   22  C           1     -22.524  -4.043  -9.581  0.00  0.00     0.014 C 
HETATM   23  C           1     -22.742  -4.592 -10.985  0.00  0.00     0.012 C 
BRANCH  22  24
HETATM   24  C           1     -23.858  -3.980  -8.849  0.00  0.00     0.002 C 
HETATM   25  C           1     -24.876  -3.245  -9.710  0.00  0.00     0.005 C 
ENDBRANCH  22  24
ENDBRANCH  21  22
BRANCH  21  26
HETATM   26  C           1     -20.155  -4.469  -9.005  0.00  0.00     0.197 C 
HETATM   27  O           1     -19.664  -3.654  -8.194  0.00  0.00    -0.646 OA
HETATM   28  O           1     -19.472  -4.881  -9.968  0.00  0.00    -0.646 OA
ENDBRANCH  21  26
ENDBRANCH  18  21
ENDBRANCH   1  17
TORSDOF 8
ENDMDL
MODEL 7
REMARK VINA RESULT:      -7.0      2.903      8.549
REMARK  8 active torsions:
REMARK  status: ('A' for Active; 'I' for Inactive)
REMARK    1  A    between atoms: C_1  and  C_24 
REMARK    2  A    between atoms: C_1  and  C_2 
REMARK    3  A    between atoms: C_1  and  N_17 
REMARK    4  A    between atoms: C_5  and  C_13 
REMARK    5  A    between atoms: C_5  and  C_18 
REMARK    6  A    between atoms: N_6  and  C_13 
REMARK       I    between atoms: C_8  and  N_17 
REMARK    7  A    between atoms: C_8  and  C_13 
REMARK    8  A    between atoms: C_23  and  C_24 
ROOT
HETATM    1  C           1     -20.588  -8.089  -5.173  0.00  0.00     0.278 C 
ENDROOT
BRANCH   1   2
HETATM    2  C           1     -20.532  -8.384  -3.680  0.00  0.00     0.083 C 
BRANCH   2   3
HETATM    3  C           1     -21.448  -9.524  -3.361  0.00  0.00    -0.028 A 
HETATM    4  C           1     -22.174  -9.701  -2.151  0.00  0.00    -0.002 A 
HETATM    5  C           1     -22.898 -10.888  -2.276  0.00  0.00     0.042 A 
HETATM    6  C           1     -22.284  -8.963  -0.956  0.00  0.00     0.014 A 
HETATM    7  N           1     -22.615 -11.404  -3.521  0.00  0.00    -0.365 N 
HETATM    8  C           1     -23.731 -11.375  -1.262  0.00  0.00     0.030 A 
HETATM    9  C           1     -21.739 -10.587  -4.185  0.00  0.00     0.096 A 
HETATM   10  H           1     -23.013 -12.296  -3.905  0.00  0.00     0.165 HD
HETATM   11  C           1     -23.825 -10.625  -0.086  0.00  0.00     0.002 A 
HETATM   12  C           1     -23.113  -9.437   0.068  0.00  0.00     0.001 A 
ENDBRANCH   2   3
ENDBRANCH   1   2
BRANCH   1  13
HETATM   13  N           1     -19.291  -8.493  -5.811  0.00  0.00    -0.066 N 
HETATM   14  H           1     -19.379  -8.428  -6.850  0.00  0.00     0.275 HD
HETATM   15  H           1     -18.531  -7.854  -5.486  0.00  0.00     0.275 HD
HETATM   16  H           1     -19.062  -9.476  -5.541  0.00  0.00     0.275 HD
ENDBRANCH   1  13
BRANCH   1  17
HETATM   17  C           1     -20.815  -6.614  -5.388  0.00  0.00     0.249 C 
HETATM   18  N           1     -20.937  -6.116  -6.657  0.00  0.00    -0.344 N 
HETATM   19  H           1     -20.875  -6.740  -7.453  0.00  0.00     0.163 HD
HETATM   20  O           1     -20.889  -5.870  -4.439  0.00  0.00    -0.271 OA
BRANCH  18  21
HETATM   21  C           1     -21.155  -4.697  -6.863  0.00  0.00     0.189 C 
BRANCH  21  22
HETATM   22  C           1     -20.262  -4.205  -7.994  0.00  0.00     0.014 C 
HETATM   23  C           1     -18.824  -4.113  -7.503  0.00  0.00     0.012 C 
BRANCH  22  24
HETATM   24  C           1     -20.338  -5.181  -9.162  0.00  0.00     0.002 C 
HETATM   25  C           1     -20.202  -4.417 -10.472  0.00  0.00     0.005 C 
ENDBRANCH  22  24
ENDBRANCH  21  22
BRANCH  21  26
HETATM   26  C           1     -22.600  -4.459  -7.224  0.00  0.00     0.197 C 
HETATM   27  O           1     -22.891  -3.880  -8.293  0.00  0.00    -0.646 OA
HETATM   28  O           1     -23.508  -4.841  -6.453  0.00  0.00    -0.646 OA
ENDBRANCH  21  26
ENDBRANCH  18  21
ENDBRANCH   1  17
TORSDOF 8
ENDMDL
MODEL 8
REMARK VINA RESULT:      -6.9      1.836      2.482
REMARK  8 active torsions:
REMARK  status: ('A' for Active; 'I' for Inactive)
REMARK    1  A    between atoms: C_1  and  C_24 
REMARK    2  A    between atoms: C_1  and  C_2 
REMARK    3  A    between atoms: C_1  and  N_17 
REMARK    4  A    between atoms: C_5  and  C_13 
REMARK    5  A    between atoms: C_5  and  C_18 
REMARK    6  A    between atoms: N_6  and  C_13 
REMARK       I    between atoms: C_8  and  N_17 
REMARK    7  A    between atoms: C_8  and  C_13 
REMARK    8  A    between atoms: C_23  and  C_24 
ROOT
HETATM    1  C           1     -21.000  -5.157  -5.656  0.00  0.00     0.278 C 
ENDROOT
BRANCH   1   2
HETATM    2  C           1     -21.185  -5.819  -7.015  0.00  0.00     0.083 C 
BRANCH   2   3
HETATM    3  C           1     -22.056  -4.959  -7.875  0.00  0.00    -0.028 A 
HETATM    4  C           1     -21.724  -4.451  -9.162  0.00  0.00    -0.002 A 
HETATM    5  C           1     -22.816  -3.703  -9.603  0.00  0.00     0.042 A 
HETATM    6  C           1     -20.593  -4.556  -9.994  0.00  0.00     0.014 A 
HETATM    7  N           1     -23.772  -3.761  -8.614  0.00  0.00    -0.365 N 
HETATM    8  C           1     -22.834  -3.052 -10.842  0.00  0.00     0.030 A 
HETATM    9  C           1     -23.323  -4.518  -7.565  0.00  0.00     0.096 A 
HETATM   10  H           1     -24.710  -3.293  -8.658  0.00  0.00     0.165 HD
HETATM   11  C           1     -21.700  -3.171 -11.652  0.00  0.00     0.002 A 
HETATM   12  C           1     -20.595  -3.910 -11.237  0.00  0.00     0.001 A 
ENDBRANCH   2   3
ENDBRANCH   1   2
BRANCH   1  13
HETATM   13  N           1     -19.674  -4.455  -5.618  0.00  0.00    -0.066 N 
HETATM   14  H           1     -18.935  -5.123  -5.304  0.00  0.00     0.275 HD
HETATM   15  H           1     -19.441  -4.103  -6.574  0.00  0.00     0.275 HD
HETATM   16  H           1     -19.724  -3.652  -4.953  0.00  0.00     0.275 HD
ENDBRANCH   1  13
BRANCH   1  17
HETATM   17  C           1     -21.043  -6.206  -4.573  0.00  0.00     0.249 C 
HETATM   18  N           1     -20.417  -7.410  -4.759  0.00  0.00    -0.344 N 
HETATM   19  H           1     -19.925  -7.595  -5.624  0.00  0.00     0.163 HD
HETATM   20  O           1     -21.630  -5.985  -3.541  0.00  0.00    -0.271 OA
BRANCH  18  21
HETATM   21  C           1     -20.459  -8.418  -3.718  0.00  0.00     0.189 C 
BRANCH  21  22
HETATM   22  C           1     -21.563  -9.421  -4.026  0.00  0.00     0.014 C 
HETATM   23  C           1     -21.142 -10.294  -5.200  0.00  0.00     0.012 C 
BRANCH  22  24
HETATM   24  C           1     -21.808 -10.297  -2.803  0.00  0.00     0.002 C 
HETATM   25  C           1     -22.141  -9.417  -1.606  0.00  0.00     0.005 C 
ENDBRANCH  22  24
ENDBRANCH  21  22
BRANCH  21  26
HETATM   26  C           1     -19.132  -9.134  -3.660  0.00  0.00     0.197 C 
HETATM   27  O           1     -18.748  -9.652  -2.589  0.00  0.00    -0.646 OA
HETATM   28  O           1     -18.418  -9.211  -4.683  0.00  0.00    -0.646 OA
ENDBRANCH  21  26
ENDBRANCH  18  21
ENDBRANCH   1  17
TORSDOF 8
ENDMDL
MODEL 9
REMARK VINA RESULT:      -6.8      5.428      7.907
REMARK  8 active torsions:
REMARK  status: ('A' for Active; 'I' for Inactive)
REMARK    1  A    between atoms: C_1  and  C_24 
REMARK    2  A    between atoms: C_1  and  C_2 
REMARK    3  A    between atoms: C_1  and  N_17 
REMARK    4  A    between atoms: C_5  and  C_13 
REMARK    5  A    between atoms: C_5  and  C_18 
REMARK    6  A    between atoms: N_6  and  C_13 
REMARK       I    between atoms: C_8  and  N_17 
REMARK    7  A    between atoms: C_8  and  C_13 
REMARK    8  A    between atoms: C_23  and  C_24 
ROOT
HETATM    1  C           1     -21.705 -10.104  -1.094  0.00  0.00     0.278 C 
ENDROOT
BRANCH   1   2
HETATM    2  C           1     -21.018  -8.808  -0.684  0.00  0.00     0.083 C 
BRANCH   2   3
HETATM    3  C           1     -21.434  -7.708  -1.610  0.00  0.00    -0.028 A 
HETATM    4  C           1     -21.056  -7.572  -2.974  0.00  0.00    -0.002 A 
HETATM    5  C           1     -21.664  -6.413  -3.456  0.00  0.00     0.042 A 
HETATM    6  C           1     -20.250  -8.329  -3.848  0.00  0.00     0.014 A 
HETATM    7  N           1     -22.383  -5.871  -2.415  0.00  0.00    -0.365 N 
HETATM    8  C           1     -21.507  -5.969  -4.775  0.00  0.00     0.030 A 
HETATM    9  C           1     -22.251  -6.646  -1.293  0.00  0.00     0.096 A 
HETATM   10  H           1     -22.951  -4.990  -2.472  0.00  0.00     0.165 HD
HETATM   11  C           1     -20.703  -6.737  -5.623  0.00  0.00     0.002 A 
HETATM   12  C           1     -20.082  -7.899  -5.169  0.00  0.00     0.001 A 
ENDBRANCH   2   3
ENDBRANCH   1   2
BRANCH   1  13
HETATM   13  N           1     -22.541 -10.608   0.047  0.00  0.00    -0.066 N 
HETATM   14  H           1     -22.821  -9.806   0.654  0.00  0.00     0.275 HD
HETATM   15  H           1     -23.397 -11.074  -0.330  0.00  0.00     0.275 HD
HETATM   16  H           1     -21.987 -11.294   0.607  0.00  0.00     0.275 HD
ENDBRANCH   1  13
BRANCH   1  17
HETATM   17  C           1     -20.665 -11.137  -1.449  0.00  0.00     0.249 C 
HETATM   18  N           1     -19.336 -10.809  -1.419  0.00  0.00    -0.344 N 
HETATM   19  H           1     -19.052  -9.873  -1.159  0.00  0.00     0.163 HD
HETATM   20  O           1     -21.005 -12.254  -1.758  0.00  0.00    -0.271 OA
BRANCH  18  21
HETATM   21  C           1     -18.337 -11.803  -1.760  0.00  0.00     0.189 C 
BRANCH  21  22
HETATM   22  C           1     -17.492 -11.296  -2.922  0.00  0.00     0.014 C 
HETATM   23  C           1     -18.184 -11.632  -4.236  0.00  0.00     0.012 C 
BRANCH  22  24
HETATM   24  C           1     -17.326  -9.786  -2.808  0.00  0.00     0.002 C 
HETATM   25  C           1     -15.848  -9.429  -2.900  0.00  0.00     0.005 C 
ENDBRANCH  22  24
ENDBRANCH  21  22
BRANCH  21  26
HETATM   26  C           1     -17.449 -12.052  -0.566  0.00  0.00     0.197 C 
HETATM   27  O           1     -17.923 -11.992   0.589  0.00  0.00    -0.646 OA
HETATM   28  O           1     -16.238 -12.319  -0.731  0.00  0.00    -0.646 OA
ENDBRANCH  21  26
ENDBRANCH  18  21
ENDBRANCH   1  17
TORSDOF 8
ENDMDL
