MODEL 1
REMARK VINA RESULT:      -8.5      0.000      0.000
REMARK  14 active torsions:
REMARK  status: ('A' for Active; 'I' for Inactive)
REMARK    1  A    between atoms: C_2  and  C_4 
REMARK    2  A    between atoms: C_4  and  C_5 
REMARK    3  A    between atoms: C_4  and  N_17 
REMARK    4  A    between atoms: C_5  and  C_6 
REMARK    5  A    between atoms: C_9  and  O_10 
REMARK    6  A    between atoms: O_10  and  P_11 
REMARK    7  A    between atoms: P_11  and  O_13 
REMARK       I    between atoms: N_17  and  C_18 
REMARK    8  A    between atoms: C_18  and  C_19 
REMARK    9  A    between atoms: C_19  and  C_20 
REMARK   10  A    between atoms: C_19  and  N_32 
REMARK   11  A    between atoms: C_20  and  C_21 
REMARK   12  A    between atoms: C_24  and  O_25 
REMARK   13  A    between atoms: O_25  and  P_26 
REMARK   14  A    between atoms: P_26  and  O_27 
ROOT
HETATM    1  N           1     -21.336  -7.261  -6.526  0.00  0.00    -0.344 N 
HETATM    2  C           1     -20.294  -6.391  -6.706  0.00  0.00     0.249 C 
HETATM    3  O           1     -19.171  -6.815  -6.848  0.00  0.00    -0.271 OA
HETATM    4  H           1     -21.844  -7.615  -7.327  0.00  0.00     0.163 HD
ENDROOT
BRANCH   2   5
HETATM    5  C           1     -20.548  -4.903  -6.728  0.00  0.00     0.278 C 
BRANCH   5   6
HETATM    6  C           1     -19.894  -4.295  -7.961  0.00  0.00     0.081 C 
BRANCH   6   7
HETATM    7  C           1     -20.848  -4.355  -9.113  0.00  0.00    -0.056 A 
HETATM    8  C           1     -20.362  -4.434 -10.418  0.00  0.00     0.010 A 
HETATM    9  C           1     -21.251  -4.491 -11.491  0.00  0.00     0.038 A 
HETATM   10  C           1     -22.626  -4.469 -11.260  0.00  0.00     0.081 A 
HETATM   11  C           1     -23.112  -4.391  -9.955  0.00  0.00     0.038 A 
HETATM   12  C           1     -22.223  -4.334  -8.881  0.00  0.00     0.010 A 
BRANCH  10  13
HETATM   13  O           1     -23.490  -4.524 -12.302  0.00  0.00    -0.247 OA
BRANCH  13  14
HETATM   14  P           1     -23.958  -3.132 -12.974  0.00  0.00     0.411 P 
HETATM   15  O           1     -23.821  -3.224 -14.444  0.00  0.00    -0.624 OA
HETATM   16  O           1     -25.372  -2.867 -12.625  0.00  0.00    -0.624 OA
BRANCH  14  17
HETATM   17  O           1     -23.034  -1.929 -12.422  0.00  0.00    -0.300 OA
HETATM   18  H           1     -22.272  -2.351 -12.064  0.00  0.00     0.223 HD
ENDBRANCH  14  17
ENDBRANCH  13  14
ENDBRANCH  10  13
ENDBRANCH   6   7
ENDBRANCH   5   6
BRANCH   5  19
HETATM   19  N           1     -19.965  -4.280  -5.494  0.00  0.00    -0.066 N 
HETATM   20  H           1     -20.385  -3.334  -5.349  0.00  0.00     0.275 HD
HETATM   21  H           1     -20.174  -4.884  -4.668  0.00  0.00     0.275 HD
HETATM   22  H           1     -18.929  -4.187  -5.607  0.00  0.00     0.275 HD
ENDBRANCH   5  19
ENDBRANCH   2   5
BRANCH   1  23
HETATM   23  C           1     -21.714  -7.673  -5.188  0.00  0.00     0.189 C 
BRANCH  23  24
HETATM   24  C           1     -22.393  -6.525  -4.482  0.00  0.00     0.197 C 
HETATM   25  O           1     -21.822  -5.954  -3.528  0.00  0.00    -0.646 OA
HETATM   26  O           1     -23.525  -6.147  -4.850  0.00  0.00    -0.646 OA
ENDBRANCH  23  24
BRANCH  23  27
HETATM   27  C           1     -20.468  -8.082  -4.413  0.00  0.00     0.074 C 
BRANCH  27  28
HETATM   28  C           1     -20.828  -9.132  -3.408  0.00  0.00    -0.056 A 
HETATM   29  C           1     -20.279  -9.088  -2.127  0.00  0.00     0.010 A 
HETATM   30  C           1     -20.614 -10.067  -1.190  0.00  0.00     0.038 A 
HETATM   31  C           1     -21.500 -11.088  -1.535  0.00  0.00     0.081 A 
HETATM   32  C           1     -22.048 -11.131  -2.817  0.00  0.00     0.038 A 
HETATM   33  C           1     -21.713 -10.153  -3.753  0.00  0.00     0.010 A 
BRANCH  31  34
HETATM   34  O           1     -21.825 -12.038  -0.626  0.00  0.00    -0.247 OA
BRANCH  34  35
HETATM   35  P           1     -23.358 -12.113  -0.123  0.00  0.00     0.411 P 
HETATM   36  O           1     -23.913 -10.745  -0.025  0.00  0.00    -0.624 OA
HETATM   37  O           1     -23.410 -12.764   1.205  0.00  0.00    -0.624 OA
BRANCH  35  38
HETATM   38  O           1     -24.228 -12.972  -1.179  0.00  0.00    -0.300 OA
HETATM   39  H           1     -24.403 -12.380  -1.890  0.00  0.00     0.223 HD
ENDBRANCH  35  38
ENDBRANCH  34  35
ENDBRANCH  31  34
ENDBRANCH  27  28
ENDBRANCH  23  27
ENDBRANCH   1  23
TORSDOF 14
ENDMDL
MODEL 2
REMARK VINA RESULT:      -8.5      3.873      5.020
REMARK  14 active torsions:
REMARK  status: ('A' for Active; 'I' for Inactive)
REMARK    1  A    between atoms: C_2  and  C_4 
REMARK    2  A    between atoms: C_4  and  C_5 
REMARK    3  A    between atoms: C_4  and  N_17 
REMARK    4  A    between atoms: C_5  and  C_6 
REMARK    5  A    between atoms: C_9  and  O_10 
REMARK    6  A    between atoms: O_10  and  P_11 
REMARK    7  A    between atoms: P_11  and  O_13 
REMARK       I    between atoms: N_17  and  C_18 
REMARK    8  A    between atoms: C_18  and  C_19 
REMARK    9  A    between atoms: C_19  and  C_20 
REMARK   10  A    between atoms: C_19  and  N_32 
REMARK   11  A    between atoms: C_20  and  C_21 
REMARK   12  A    between atoms: C_24  and  O_25 
REMARK   13  A    between atoms: O_25  and  P_26 
REMARK   14  A    between atoms: P_26  and  O_27 
ROOT
HETATM    1  N           1     -20.877  -6.944  -4.106  0.00  0.00    -0.344 N 
HETATM    2  C           1     -21.644  -6.237  -4.993  0.00  0.00     0.249 C 
HETATM    3  O           1     -22.827  -6.466  -5.085  0.00  0.00    -0.271 OA
HETATM    4  H           1     -20.757  -6.607  -3.160  0.00  0.00     0.163 HD
ENDROOT
BRANCH   2   5
HETATM    5  C           1     -21.013  -5.171  -5.856  0.00  0.00     0.278 C 
BRANCH   5   6
HETATM    6  C           1     -20.544  -5.790  -7.166  0.00  0.00     0.081 C 
BRANCH   6   7
HETATM    7  C           1     -21.079  -4.992  -8.314  0.00  0.00    -0.056 A 
HETATM    8  C           1     -22.366  -4.458  -8.252  0.00  0.00     0.010 A 
HETATM    9  C           1     -22.865  -3.714  -9.321  0.00  0.00     0.038 A 
HETATM   10  C           1     -22.077  -3.505 -10.453  0.00  0.00     0.081 A 
HETATM   11  C           1     -20.789  -4.039 -10.515  0.00  0.00     0.038 A 
HETATM   12  C           1     -20.291  -4.782  -9.445  0.00  0.00     0.010 A 
BRANCH  10  13
HETATM   13  O           1     -22.561  -2.783 -11.492  0.00  0.00    -0.247 OA
BRANCH  13  14
HETATM   14  P           1     -23.778  -3.408 -12.349  0.00  0.00     0.411 P 
HETATM   15  O           1     -25.063  -3.076 -11.696  0.00  0.00    -0.624 OA
HETATM   16  O           1     -23.757  -2.845 -13.718  0.00  0.00    -0.624 OA
BRANCH  14  17
HETATM   17  O           1     -23.614  -5.013 -12.426  0.00  0.00    -0.300 OA
HETATM   18  H           1     -22.829  -5.202 -11.942  0.00  0.00     0.223 HD
ENDBRANCH  14  17
ENDBRANCH  13  14
ENDBRANCH  10  13
ENDBRANCH   6   7
ENDBRANCH   5   6
BRANCH   5  19
HETATM   19  N           1     -19.838  -4.578  -5.135  0.00  0.00    -0.066 N 
HETATM   20  H           1     -19.805  -3.549  -5.311  0.00  0.00     0.275 HD
HETATM   21  H           1     -19.935  -4.752  -4.110  0.00  0.00     0.275 HD
HETATM   22  H           1     -18.956  -5.019  -5.483  0.00  0.00     0.275 HD
ENDBRANCH   5  19
ENDBRANCH   2   5
BRANCH   1  23
HETATM   23  C           1     -20.236  -8.176  -4.524  0.00  0.00     0.189 C 
BRANCH  23  24
HETATM   24  C           1     -21.288  -9.177  -4.931  0.00  0.00     0.197 C 
HETATM   25  O           1     -22.087  -9.624  -4.080  0.00  0.00    -0.646 OA
HETATM   26  O           1     -21.361  -9.560  -6.119  0.00  0.00    -0.646 OA
ENDBRANCH  23  24
BRANCH  23  27
HETATM   27  C           1     -19.417  -8.739  -3.370  0.00  0.00     0.074 C 
BRANCH  27  28
HETATM   28  C           1     -18.135  -9.305  -3.896  0.00  0.00    -0.056 A 
HETATM   29  C           1     -17.115  -9.660  -3.014  0.00  0.00     0.010 A 
HETATM   30  C           1     -15.920 -10.188  -3.506  0.00  0.00     0.038 A 
HETATM   31  C           1     -15.746 -10.359  -4.879  0.00  0.00     0.081 A 
HETATM   32  C           1     -16.767 -10.002  -5.761  0.00  0.00     0.038 A 
HETATM   33  C           1     -17.961  -9.475  -5.270  0.00  0.00     0.010 A 
BRANCH  31  34
HETATM   34  O           1     -14.586 -10.870  -5.356  0.00  0.00    -0.247 OA
BRANCH  34  35
HETATM   35  P           1     -14.323 -12.453  -5.175  0.00  0.00     0.411 P 
HETATM   36  O           1     -15.612 -13.178  -5.237  0.00  0.00    -0.624 OA
HETATM   37  O           1     -13.682 -12.700  -3.864  0.00  0.00    -0.624 OA
BRANCH  35  38
HETATM   38  O           1     -13.355 -12.977  -6.357  0.00  0.00    -0.300 OA
HETATM   39  H           1     -12.481 -12.846  -6.032  0.00  0.00     0.223 HD
ENDBRANCH  35  38
ENDBRANCH  34  35
ENDBRANCH  31  34
ENDBRANCH  27  28
ENDBRANCH  23  27
ENDBRANCH   1  23
TORSDOF 14
ENDMDL
MODEL 3
REMARK VINA RESULT:      -8.4      1.634      2.597
REMARK  14 active torsions:
REMARK  status: ('A' for Active; 'I' for Inactive)
REMARK    1  A    between atoms: C_2  and  C_4 
REMARK    2  A    between atoms: C_4  and  C_5 
REMARK    3  A    between atoms: C_4  and  N_17 
REMARK    4  A    between atoms: C_5  and  C_6 
REMARK    5  A    between atoms: C_9  and  O_10 
REMARK    6  A    between atoms: O_10  and  P_11 
REMARK    7  A    between atoms: P_11  and  O_13 
REMARK       I    between atoms: N_17  and  C_18 
REMARK    8  A    between atoms: C_18  and  C_19 
REMARK    9  A    between atoms: C_19  and  C_20 
REMARK   10  A    between atoms: C_19  and  N_32 
REMARK   11  A    between atoms: C_20  and  C_21 
REMARK   12  A    between atoms: C_24  and  O_25 
REMARK   13  A    between atoms: O_25  and  P_26 
REMARK   14  A    between atoms: P_26  and  O_27 
ROOT
HETATM    1  N           1     -19.733  -7.019  -6.281  0.00  0.00    -0.344 N 
HETATM    2  C           1     -20.271  -5.767  -6.138  0.00  0.00     0.249 C 
HETATM    3  O           1     -19.606  -4.874  -5.670  0.00  0.00    -0.271 OA
HETATM    4  H           1     -19.253  -7.269  -7.136  0.00  0.00     0.163 HD
ENDROOT
BRANCH   2   5
HETATM    5  C           1     -21.694  -5.504  -6.568  0.00  0.00     0.278 C 
BRANCH   5   6
HETATM    6  C           1     -21.796  -4.101  -7.151  0.00  0.00     0.081 C 
BRANCH   6   7
HETATM    7  C           1     -22.273  -4.183  -8.568  0.00  0.00    -0.056 A 
HETATM    8  C           1     -23.637  -4.110  -8.850  0.00  0.00     0.010 A 
HETATM    9  C           1     -24.082  -4.186 -10.170  0.00  0.00     0.038 A 
HETATM   10  C           1     -23.162  -4.337 -11.207  0.00  0.00     0.081 A 
HETATM   11  C           1     -21.798  -4.409 -10.926  0.00  0.00     0.038 A 
HETATM   12  C           1     -21.354  -4.333  -9.606  0.00  0.00     0.010 A 
BRANCH  10  13
HETATM   13  O           1     -23.594  -4.411 -12.490  0.00  0.00    -0.247 OA
BRANCH  13  14
HETATM   14  P           1     -24.039  -3.042 -13.221  0.00  0.00     0.411 P 
HETATM   15  O           1     -23.837  -3.175 -14.681  0.00  0.00    -0.624 OA
HETATM   16  O           1     -25.467  -2.775 -12.941  0.00  0.00    -0.624 OA
BRANCH  14  17
HETATM   17  O           1     -23.144  -1.818 -12.665  0.00  0.00    -0.300 OA
HETATM   18  H           1     -22.545  -2.211 -12.054  0.00  0.00     0.223 HD
ENDBRANCH  14  17
ENDBRANCH  13  14
ENDBRANCH  10  13
ENDBRANCH   6   7
ENDBRANCH   5   6
BRANCH   5  19
HETATM   19  N           1     -22.602  -5.619  -5.380  0.00  0.00    -0.066 N 
HETATM   20  H           1     -22.789  -4.668  -4.990  0.00  0.00     0.275 HD
HETATM   21  H           1     -23.504  -6.058  -5.673  0.00  0.00     0.275 HD
HETATM   22  H           1     -22.146  -6.211  -4.648  0.00  0.00     0.275 HD
ENDBRANCH   5  19
ENDBRANCH   2   5
BRANCH   1  23
HETATM   23  C           1     -19.852  -7.985  -5.206  0.00  0.00     0.189 C 
BRANCH  23  24
HETATM   24  C           1     -18.718  -8.976  -5.293  0.00  0.00     0.197 C 
HETATM   25  O           1     -18.223  -9.263  -6.405  0.00  0.00    -0.646 OA
HETATM   26  O           1     -18.273  -9.510  -4.255  0.00  0.00    -0.646 OA
ENDBRANCH  23  24
BRANCH  23  27
HETATM   27  C           1     -21.181  -8.720  -5.330  0.00  0.00     0.074 C 
BRANCH  27  28
HETATM   28  C           1     -21.526  -9.351  -4.017  0.00  0.00    -0.056 A 
HETATM   29  C           1     -22.000 -10.662  -3.976  0.00  0.00     0.010 A 
HETATM   30  C           1     -22.322 -11.250  -2.752  0.00  0.00     0.038 A 
HETATM   31  C           1     -22.169 -10.525  -1.569  0.00  0.00     0.081 A 
HETATM   32  C           1     -21.696  -9.214  -1.611  0.00  0.00     0.038 A 
HETATM   33  C           1     -21.374  -8.627  -2.834  0.00  0.00     0.010 A 
BRANCH  31  34
HETATM   34  O           1     -22.483 -11.096  -0.381  0.00  0.00    -0.247 OA
BRANCH  34  35
HETATM   35  P           1     -21.283 -11.723   0.499  0.00  0.00     0.411 P 
HETATM   36  O           1     -21.813 -12.806   1.358  0.00  0.00    -0.624 OA
HETATM   37  O           1     -20.689 -10.666   1.348  0.00  0.00    -0.624 OA
BRANCH  35  38
HETATM   38  O           1     -20.152 -12.323  -0.486  0.00  0.00    -0.300 OA
HETATM   39  H           1     -20.422 -13.209  -0.656  0.00  0.00     0.223 HD
ENDBRANCH  35  38
ENDBRANCH  34  35
ENDBRANCH  31  34
ENDBRANCH  27  28
ENDBRANCH  23  27
ENDBRANCH   1  23
TORSDOF 14
ENDMDL
MODEL 4
REMARK VINA RESULT:      -8.3      3.036      4.164
REMARK  14 active torsions:
REMARK  status: ('A' for Active; 'I' for Inactive)
REMARK    1  A    between atoms: C_2  and  C_4 
REMARK    2  A    between atoms: C_4  and  C_5 
REMARK    3  A    between atoms: C_4  and  N_17 
REMARK    4  A    between atoms: C_5  and  C_6 
REMARK    5  A    between atoms: C_9  and  O_10 
REMARK    6  A    between atoms: O_10  and  P_11 
REMARK    7  A    between atoms: P_11  and  O_13 
REMARK       I    between atoms: N_17  and  C_18 
REMARK    8  A    between atoms: C_18  and  C_19 
REMARK    9  A    between atoms: C_19  and  C_20 
REMARK   10  A    between atoms: C_19  and  N_32 
REMARK   11  A    between atoms: C_20  and  C_21 
REMARK   12  A    between atoms: C_24  and  O_25 
REMARK   13  A    between atoms: O_25  and  P_26 
REMARK   14  A    between atoms: P_26  and  O_27 
ROOT
HETATM    1  N           1     -21.327  -6.348  -3.077  0.00  0.00    -0.344 N 
HETATM    2  C           1     -21.647  -6.277  -4.407  0.00  0.00     0.249 C 
HETATM    3  O           1     -22.800  -6.149  -4.745  0.00  0.00    -0.271 OA
HETATM    4  H           1     -21.120  -5.503  -2.560  0.00  0.00     0.163 HD
ENDROOT
BRANCH   2   5
HETATM    5  C           1     -20.559  -6.356  -5.450  0.00  0.00     0.278 C 
BRANCH   5   6
HETATM    6  C           1     -20.098  -4.950  -5.810  0.00  0.00     0.081 C 
BRANCH   6   7
HETATM    7  C           1     -20.675  -4.560  -7.136  0.00  0.00    -0.056 A 
HETATM    8  C           1     -19.950  -4.787  -8.306  0.00  0.00     0.010 A 
HETATM    9  C           1     -20.487  -4.425  -9.541  0.00  0.00     0.038 A 
HETATM   10  C           1     -21.749  -3.835  -9.606  0.00  0.00     0.081 A 
HETATM   11  C           1     -22.475  -3.609  -8.436  0.00  0.00     0.038 A 
HETATM   12  C           1     -21.937  -3.971  -7.201  0.00  0.00     0.010 A 
BRANCH  10  13
HETATM   13  O           1     -22.272  -3.483 -10.805  0.00  0.00    -0.247 OA
BRANCH  13  14
HETATM   14  P           1     -23.678  -4.145 -11.245  0.00  0.00     0.411 P 
HETATM   15  O           1     -23.875  -5.415 -10.512  0.00  0.00    -0.624 OA
HETATM   16  O           1     -24.782  -3.213 -10.926  0.00  0.00    -0.624 OA
BRANCH  14  17
HETATM   17  O           1     -23.663  -4.438 -12.833  0.00  0.00    -0.300 OA
HETATM   18  H           1     -23.430  -5.346 -12.911  0.00  0.00     0.223 HD
ENDBRANCH  14  17
ENDBRANCH  13  14
ENDBRANCH  10  13
ENDBRANCH   6   7
ENDBRANCH   5   6
BRANCH   5  19
HETATM   19  N           1     -21.093  -7.036  -6.676  0.00  0.00    -0.066 N 
HETATM   20  H           1     -21.545  -7.938  -6.405  0.00  0.00     0.275 HD
HETATM   21  H           1     -21.797  -6.418  -7.138  0.00  0.00     0.275 HD
HETATM   22  H           1     -20.306  -7.227  -7.339  0.00  0.00     0.275 HD
ENDBRANCH   5  19
ENDBRANCH   2   5
BRANCH   1  23
HETATM   23  C           1     -21.284  -7.636  -2.411  0.00  0.00     0.189 C 
BRANCH  23  24
HETATM   24  C           1     -21.892  -7.510  -1.036  0.00  0.00     0.197 C 
HETATM   25  O           1     -21.493  -8.244  -0.106  0.00  0.00    -0.646 OA
HETATM   26  O           1     -22.796  -6.672  -0.826  0.00  0.00    -0.646 OA
ENDBRANCH  23  24
BRANCH  23  27
HETATM   27  C           1     -19.837  -8.095  -2.287  0.00  0.00     0.074 C 
BRANCH  27  28
HETATM   28  C           1     -19.606  -9.266  -3.191  0.00  0.00    -0.056 A 
HETATM   29  C           1     -20.333 -10.442  -3.009  0.00  0.00     0.010 A 
HETATM   30  C           1     -20.117 -11.533  -3.852  0.00  0.00     0.038 A 
HETATM   31  C           1     -19.174 -11.447  -4.876  0.00  0.00     0.081 A 
HETATM   32  C           1     -18.446 -10.270  -5.056  0.00  0.00     0.038 A 
HETATM   33  C           1     -18.662  -9.180  -4.214  0.00  0.00     0.010 A 
BRANCH  31  34
HETATM   34  O           1     -18.963 -12.507  -5.693  0.00  0.00    -0.247 OA
BRANCH  34  35
HETATM   35  P           1     -19.706 -12.517  -7.127  0.00  0.00     0.411 P 
HETATM   36  O           1     -20.021 -13.911  -7.511  0.00  0.00    -0.624 OA
HETATM   37  O           1     -18.818 -11.914  -8.147  0.00  0.00    -0.624 OA
BRANCH  35  38
HETATM   38  O           1     -21.073 -11.663  -7.030  0.00  0.00    -0.300 OA
HETATM   39  H           1     -21.201 -11.510  -6.110  0.00  0.00     0.223 HD
ENDBRANCH  35  38
ENDBRANCH  34  35
ENDBRANCH  31  34
ENDBRANCH  27  28
ENDBRANCH  23  27
ENDBRANCH   1  23
TORSDOF 14
ENDMDL
MODEL 5
REMARK VINA RESULT:      -8.3      1.267     11.276
REMARK  14 active torsions:
REMARK  status: ('A' for Active; 'I' for Inactive)
REMARK    1  A    between atoms: C_2  and  C_4 
REMARK    2  A    between atoms: C_4  and  C_5 
REMARK    3  A    between atoms: C_4  and  N_17 
REMARK    4  A    between atoms: C_5  and  C_6 
REMARK    5  A    between atoms: C_9  and  O_10 
REMARK    6  A    between atoms: O_10  and  P_11 
REMARK    7  A    between atoms: P_11  and  O_13 
REMARK       I    between atoms: N_17  and  C_18 
REMARK    8  A    between atoms: C_18  and  C_19 
REMARK    9  A    between atoms: C_19  and  C_20 
REMARK   10  A    between atoms: C_19  and  N_32 
REMARK   11  A    between atoms: C_20  and  C_21 
REMARK   12  A    between atoms: C_24  and  O_25 
REMARK   13  A    between atoms: O_25  and  P_26 
REMARK   14  A    between atoms: P_26  and  O_27 
ROOT
HETATM    1  N           1     -22.277  -5.801  -5.399  0.00  0.00    -0.344 N 
HETATM    2  C           1     -21.651  -6.487  -4.392  0.00  0.00     0.249 C 
HETATM    3  O           1     -21.040  -5.885  -3.540  0.00  0.00    -0.271 OA
HETATM    4  H           1     -23.235  -5.496  -5.285  0.00  0.00     0.163 HD
ENDROOT
BRANCH   2   5
HETATM    5  C           1     -21.726  -7.994  -4.345  0.00  0.00     0.278 C 
BRANCH   5   6
HETATM    6  C           1     -20.813  -8.513  -3.243  0.00  0.00     0.081 C 
BRANCH   6   7
HETATM    7  C           1     -21.604  -9.368  -2.302  0.00  0.00    -0.056 A 
HETATM    8  C           1     -21.627  -9.068  -0.940  0.00  0.00     0.010 A 
HETATM    9  C           1     -22.363  -9.863  -0.063  0.00  0.00     0.038 A 
HETATM   10  C           1     -23.077 -10.960  -0.548  0.00  0.00     0.081 A 
HETATM   11  C           1     -23.055 -11.259  -1.910  0.00  0.00     0.038 A 
HETATM   12  C           1     -22.317 -10.463  -2.787  0.00  0.00     0.010 A 
BRANCH  10  13
HETATM   13  O           1     -23.792 -11.733   0.304  0.00  0.00    -0.247 OA
BRANCH  13  14
HETATM   14  P           1     -23.182 -13.168   0.722  0.00  0.00     0.411 P 
HETATM   15  O           1     -23.632 -13.517   2.088  0.00  0.00    -0.624 OA
HETATM   16  O           1     -23.648 -14.199  -0.231  0.00  0.00    -0.624 OA
BRANCH  14  17
HETATM   17  O           1     -21.568 -13.097   0.691  0.00  0.00    -0.300 OA
HETATM   18  H           1     -21.322 -12.761   1.535  0.00  0.00     0.223 HD
ENDBRANCH  14  17
ENDBRANCH  13  14
ENDBRANCH  10  13
ENDBRANCH   6   7
ENDBRANCH   5   6
BRANCH   5  19
HETATM   19  N           1     -21.287  -8.556  -5.665  0.00  0.00    -0.066 N 
HETATM   20  H           1     -20.247  -8.652  -5.674  0.00  0.00     0.275 HD
HETATM   21  H           1     -21.726  -9.493  -5.807  0.00  0.00     0.275 HD
HETATM   22  H           1     -21.583  -7.911  -6.434  0.00  0.00     0.275 HD
ENDBRANCH   5  19
ENDBRANCH   2   5
BRANCH   1  23
HETATM   23  C           1     -21.565  -5.512  -6.629  0.00  0.00     0.189 C 
BRANCH  23  24
HETATM   24  C           1     -20.079  -5.564  -6.374  0.00  0.00     0.197 C 
HETATM   25  O           1     -19.496  -4.577  -5.875  0.00  0.00    -0.646 OA
HETATM   26  O           1     -19.431  -6.593  -6.661  0.00  0.00    -0.646 OA
ENDBRANCH  23  24
BRANCH  23  27
HETATM   27  C           1     -21.948  -4.122  -7.122  0.00  0.00     0.074 C 
BRANCH  27  28
HETATM   28  C           1     -22.421  -4.209  -8.540  0.00  0.00    -0.056 A 
HETATM   29  C           1     -21.506  -4.438  -9.567  0.00  0.00     0.010 A 
HETATM   30  C           1     -21.947  -4.518 -10.889  0.00  0.00     0.038 A 
HETATM   31  C           1     -23.303  -4.369 -11.182  0.00  0.00     0.081 A 
HETATM   32  C           1     -24.217  -4.140 -10.153  0.00  0.00     0.038 A 
HETATM   33  C           1     -23.776  -4.059  -8.833  0.00  0.00     0.010 A 
BRANCH  31  34
HETATM   34  O           1     -23.731  -4.446 -12.465  0.00  0.00    -0.247 OA
BRANCH  34  35
HETATM   35  P           1     -23.865  -3.072 -13.303  0.00  0.00     0.411 P 
HETATM   36  O           1     -22.872  -2.093 -12.808  0.00  0.00    -0.624 OA
HETATM   37  O           1     -25.228  -2.522 -13.133  0.00  0.00    -0.624 OA
BRANCH  35  38
HETATM   38  O           1     -23.594  -3.369 -14.868  0.00  0.00    -0.300 OA
HETATM   39  H           1     -22.657  -3.388 -14.953  0.00  0.00     0.223 HD
ENDBRANCH  35  38
ENDBRANCH  34  35
ENDBRANCH  31  34
ENDBRANCH  27  28
ENDBRANCH  23  27
ENDBRANCH   1  23
TORSDOF 14
ENDMDL
MODEL 6
REMARK VINA RESULT:      -8.2      3.561      5.150
REMARK  14 active torsions:
REMARK  status: ('A' for Active; 'I' for Inactive)
REMARK    1  A    between atoms: C_2  and  C_4 
REMARK    2  A    between atoms: C_4  and  C_5 
REMARK    3  A    between atoms: C_4  and  N_17 
REMARK    4  A    between atoms: C_5  and  C_6 
REMARK    5  A    between atoms: C_9  and  O_10 
REMARK    6  A    between atoms: O_10  and  P_11 
REMARK    7  A    between atoms: P_11  and  O_13 
REMARK       I    between atoms: N_17  and  C_18 
REMARK    8  A    between atoms: C_18  and  C_19 
REMARK    9  A    between atoms: C_19  and  C_20 
REMARK   10  A    between atoms: C_19  and  N_32 
REMARK   11  A    between atoms: C_20  and  C_21 
REMARK   12  A    between atoms: C_24  and  O_25 
REMARK   13  A    between atoms: O_25  and  P_26 
REMARK   14  A    between atoms: P_26  and  O_27 
ROOT
HETATM    1  N           1     -20.771  -7.096  -3.201  0.00  0.00    -0.344 N 
HETATM    2  C           1     -21.276  -6.621  -4.382  0.00  0.00     0.249 C 
HETATM    3  O           1     -22.462  -6.416  -4.493  0.00  0.00    -0.271 OA
HETATM    4  H           1     -20.469  -6.449  -2.483  0.00  0.00     0.163 HD
ENDROOT
BRANCH   2   5
HETATM    5  C           1     -20.351  -6.353  -5.545  0.00  0.00     0.278 C 
BRANCH   5   6
HETATM    6  C           1     -20.209  -4.850  -5.743  0.00  0.00     0.081 C 
BRANCH   6   7
HETATM    7  C           1     -20.767  -4.468  -7.080  0.00  0.00    -0.056 A 
HETATM    8  C           1     -22.096  -4.059  -7.190  0.00  0.00     0.010 A 
HETATM    9  C           1     -22.616  -3.703  -8.433  0.00  0.00     0.038 A 
HETATM   10  C           1     -21.807  -3.758  -9.568  0.00  0.00     0.081 A 
HETATM   11  C           1     -20.478  -4.167  -9.459  0.00  0.00     0.038 A 
HETATM   12  C           1     -19.958  -4.522  -8.214  0.00  0.00     0.010 A 
BRANCH  10  13
HETATM   13  O           1     -22.312  -3.412 -10.778  0.00  0.00    -0.247 OA
BRANCH  13  14
HETATM   14  P           1     -23.684  -4.116 -11.256  0.00  0.00     0.411 P 
HETATM   15  O           1     -23.840  -5.414 -10.564  0.00  0.00    -0.624 OA
HETATM   16  O           1     -24.830  -3.238 -10.925  0.00  0.00    -0.624 OA
BRANCH  14  17
HETATM   17  O           1     -23.638  -4.360 -12.852  0.00  0.00    -0.300 OA
HETATM   18  H           1     -24.525  -4.243 -13.143  0.00  0.00     0.223 HD
ENDBRANCH  14  17
ENDBRANCH  13  14
ENDBRANCH  10  13
ENDBRANCH   6   7
ENDBRANCH   5   6
BRANCH   5  19
HETATM   19  N           1     -20.922  -6.969  -6.788  0.00  0.00    -0.066 N 
HETATM   20  H           1     -21.156  -6.217  -7.474  0.00  0.00     0.275 HD
HETATM   21  H           1     -20.219  -7.618  -7.208  0.00  0.00     0.275 HD
HETATM   22  H           1     -21.789  -7.502  -6.546  0.00  0.00     0.275 HD
ENDBRANCH   5  19
ENDBRANCH   2   5
BRANCH   1  23
HETATM   23  C           1     -20.669  -8.525  -2.979  0.00  0.00     0.189 C 
BRANCH  23  24
HETATM   24  C           1     -21.821  -8.984  -2.120  0.00  0.00     0.197 C 
HETATM   25  O           1     -22.364 -10.088  -2.340  0.00  0.00    -0.646 OA
HETATM   26  O           1     -22.233  -8.260  -1.188  0.00  0.00    -0.646 OA
ENDBRANCH  23  24
BRANCH  23  27
HETATM   27  C           1     -19.354  -8.837  -2.276  0.00  0.00     0.074 C 
BRANCH  27  28
HETATM   28  C           1     -18.344  -9.288  -3.285  0.00  0.00    -0.056 A 
HETATM   29  C           1     -18.740  -9.568  -4.592  0.00  0.00     0.010 A 
HETATM   30  C           1     -17.797  -9.989  -5.531  0.00  0.00     0.038 A 
HETATM   31  C           1     -16.459 -10.129  -5.162  0.00  0.00     0.081 A 
HETATM   32  C           1     -16.064  -9.850  -3.854  0.00  0.00     0.038 A 
HETATM   33  C           1     -17.006  -9.429  -2.915  0.00  0.00     0.010 A 
BRANCH  31  34
HETATM   34  O           1     -15.545 -10.539  -6.074  0.00  0.00    -0.247 OA
BRANCH  34  35
HETATM   35  P           1     -15.377 -12.126  -6.319  0.00  0.00     0.411 P 
HETATM   36  O           1     -13.985 -12.418  -6.727  0.00  0.00    -0.624 OA
HETATM   37  O           1     -16.305 -12.561  -7.387  0.00  0.00    -0.624 OA
BRANCH  35  38
HETATM   38  O           1     -15.715 -12.919  -4.954  0.00  0.00    -0.300 OA
HETATM   39  H           1     -15.180 -12.511  -4.296  0.00  0.00     0.223 HD
ENDBRANCH  35  38
ENDBRANCH  34  35
ENDBRANCH  31  34
ENDBRANCH  27  28
ENDBRANCH  23  27
ENDBRANCH   1  23
TORSDOF 14
ENDMDL
MODEL 7
REMARK VINA RESULT:      -8.1      3.213      4.180
REMARK  14 active torsions:
REMARK  status: ('A' for Active; 'I' for Inactive)
REMARK    1  A    between atoms: C_2  and  C_4 
REMARK    2  A    between atoms: C_4  and  C_5 
REMARK    3  A    between atoms: C_4  and  N_17 
REMARK    4  A    between atoms: C_5  and  C_6 
REMARK    5  A    between atoms: C_9  and  O_10 
REMARK    6  A    between atoms: O_10  and  P_11 
REMARK    7  A    between atoms: P_11  and  O_13 
REMARK       I    between atoms: N_17  and  C_18 
REMARK    8  A    between atoms: C_18  and  C_19 
REMARK    9  A    between atoms: C_19  and  C_20 
REMARK   10  A    between atoms: C_19  and  N_32 
REMARK   11  A    between atoms: C_20  and  C_21 
REMARK   12  A    between atoms: C_24  and  O_25 
REMARK   13  A    between atoms: O_25  and  P_26 
REMARK   14  A    between atoms: P_26  and  O_27 
ROOT
HETATM    1  N           1     -21.278  -7.252  -6.397  0.00  0.00    -0.344 N 
HETATM    2  C           1     -20.337  -6.318  -6.736  0.00  0.00     0.249 C 
HETATM    3  O           1     -19.260  -6.670  -7.159  0.00  0.00    -0.271 OA
HETATM    4  H           1     -21.940  -7.579  -7.089  0.00  0.00     0.163 HD
ENDROOT
BRANCH   2   5
HETATM    5  C           1     -20.644  -4.847  -6.585  0.00  0.00     0.278 C 
BRANCH   5   6
HETATM    6  C           1     -20.079  -4.086  -7.777  0.00  0.00     0.081 C 
BRANCH   6   7
HETATM    7  C           1     -21.011  -4.220  -8.941  0.00  0.00    -0.056 A 
HETATM    8  C           1     -22.390  -4.229  -8.734  0.00  0.00     0.010 A 
HETATM    9  C           1     -23.258  -4.354  -9.818  0.00  0.00     0.038 A 
HETATM   10  C           1     -22.747  -4.470 -11.110  0.00  0.00     0.081 A 
HETATM   11  C           1     -21.367  -4.459 -11.318  0.00  0.00     0.038 A 
HETATM   12  C           1     -20.500  -4.335 -10.233  0.00  0.00     0.010 A 
BRANCH  10  13
HETATM   13  O           1     -23.590  -4.591 -12.164  0.00  0.00    -0.247 OA
BRANCH  13  14
HETATM   14  P           1     -23.949  -3.260 -13.006  0.00  0.00     0.411 P 
HETATM   15  O           1     -25.347  -2.863 -12.727  0.00  0.00    -0.624 OA
HETATM   16  O           1     -23.035  -2.165 -12.611  0.00  0.00    -0.624 OA
BRANCH  14  17
HETATM   17  O           1     -23.780  -3.559 -14.584  0.00  0.00    -0.300 OA
HETATM   18  H           1     -23.497  -4.455 -14.634  0.00  0.00     0.223 HD
ENDBRANCH  14  17
ENDBRANCH  13  14
ENDBRANCH  10  13
ENDBRANCH   6   7
ENDBRANCH   5   6
BRANCH   5  19
HETATM   19  N           1     -20.018  -4.335  -5.322  0.00  0.00    -0.066 N 
HETATM   20  H           1     -20.528  -4.724  -4.497  0.00  0.00     0.275 HD
HETATM   21  H           1     -19.017  -4.632  -5.284  0.00  0.00     0.275 HD
HETATM   22  H           1     -20.074  -3.291  -5.304  0.00  0.00     0.275 HD
ENDBRANCH   5  19
ENDBRANCH   2   5
BRANCH   1  23
HETATM   23  C           1     -21.326  -7.774  -5.044  0.00  0.00     0.189 C 
BRANCH  23  24
HETATM   24  C           1     -21.984  -6.762  -4.139  0.00  0.00     0.197 C 
HETATM   25  O           1     -21.411  -6.395  -3.091  0.00  0.00    -0.646 OA
HETATM   26  O           1     -23.102  -6.290  -4.437  0.00  0.00    -0.646 OA
ENDBRANCH  23  24
BRANCH  23  27
HETATM   27  C           1     -19.910  -8.048  -4.556  0.00  0.00     0.074 C 
BRANCH  27  28
HETATM   28  C           1     -19.490  -9.420  -4.985  0.00  0.00    -0.056 A 
HETATM   29  C           1     -20.416 -10.462  -4.991  0.00  0.00     0.010 A 
HETATM   30  C           1     -20.025 -11.741  -5.391  0.00  0.00     0.038 A 
HETATM   31  C           1     -18.708 -11.975  -5.786  0.00  0.00     0.081 A 
HETATM   32  C           1     -17.782 -10.931  -5.779  0.00  0.00     0.038 A 
HETATM   33  C           1     -18.173  -9.654  -5.378  0.00  0.00     0.010 A 
BRANCH  31  34
HETATM   34  O           1     -18.327 -13.216  -6.173  0.00  0.00    -0.247 OA
BRANCH  34  35
HETATM   35  P           1     -18.638 -13.664  -7.694  0.00  0.00     0.411 P 
HETATM   36  O           1     -19.878 -14.470  -7.728  0.00  0.00    -0.624 OA
HETATM   37  O           1     -17.510 -14.471  -8.210  0.00  0.00    -0.624 OA
BRANCH  35  38
HETATM   38  O           1     -18.826 -12.349  -8.613  0.00  0.00    -0.300 OA
HETATM   39  H           1     -19.521 -11.863  -8.204  0.00  0.00     0.223 HD
ENDBRANCH  35  38
ENDBRANCH  34  35
ENDBRANCH  31  34
ENDBRANCH  27  28
ENDBRANCH  23  27
ENDBRANCH   1  23
TORSDOF 14
ENDMDL
MODEL 8
REMARK VINA RESULT:      -8.0      1.907     11.070
REMARK  14 active torsions:
REMARK  status: ('A' for Active; 'I' for Inactive)
REMARK    1  A    between atoms: C_2  and  C_4 
REMARK    2  A    between atoms: C_4  and  C_5 
REMARK    3  A    between atoms: C_4  and  N_17 
REMARK    4  A    between atoms: C_5  and  C_6 
REMARK    5  A    between atoms: C_9  and  O_10 
REMARK    6  A    between atoms: O_10  and  P_11 
REMARK    7  A    between atoms: P_11  and  O_13 
REMARK       I    between atoms: N_17  and  C_18 
REMARK    8  A    between atoms: C_18  and  C_19 
REMARK    9  A    between atoms: C_19  and  C_20 
REMARK   10  A    between atoms: C_19  and  N_32 
REMARK   11  A    between atoms: C_20  and  C_21 
REMARK   12  A    between atoms: C_24  and  O_25 
REMARK   13  A    between atoms: O_25  and  P_26 
REMARK   14  A    between atoms: P_26  and  O_27 
ROOT
HETATM    1  N           1     -22.382  -6.553  -4.253  0.00  0.00    -0.344 N 
HETATM    2  C           1     -21.615  -6.668  -3.124  0.00  0.00     0.249 C 
HETATM    3  O           1     -21.126  -5.683  -2.623  0.00  0.00    -0.271 OA
HETATM    4  H           1     -23.380  -6.407  -4.174  0.00  0.00     0.163 HD
ENDROOT
BRANCH   2   5
HETATM    5  C           1     -21.382  -8.025  -2.505  0.00  0.00     0.278 C 
BRANCH   5   6
HETATM    6  C           1     -21.629  -7.947  -1.004  0.00  0.00     0.081 C 
BRANCH   6   7
HETATM    7  C           1     -21.945  -9.313  -0.480  0.00  0.00    -0.056 A 
HETATM    8  C           1     -23.223  -9.846  -0.649  0.00  0.00     0.010 A 
HETATM    9  C           1     -23.519 -11.119  -0.162  0.00  0.00     0.038 A 
HETATM   10  C           1     -22.536 -11.858   0.497  0.00  0.00     0.081 A 
HETATM   11  C           1     -21.258 -11.326   0.666  0.00  0.00     0.038 A 
HETATM   12  C           1     -20.963 -10.053   0.177  0.00  0.00     0.010 A 
BRANCH  10  13
HETATM   13  O           1     -22.823 -13.095   0.971  0.00  0.00    -0.247 OA
BRANCH  13  14
HETATM   14  P           1     -22.850 -14.322  -0.078  0.00  0.00     0.411 P 
HETATM   15  O           1     -22.059 -13.965  -1.275  0.00  0.00    -0.624 OA
HETATM   16  O           1     -22.270 -15.527   0.557  0.00  0.00    -0.624 OA
BRANCH  14  17
HETATM   17  O           1     -24.376 -14.626  -0.513  0.00  0.00    -0.300 OA
HETATM   18  H           1     -24.359 -14.662  -1.453  0.00  0.00     0.223 HD
ENDBRANCH  14  17
ENDBRANCH  13  14
ENDBRANCH  10  13
ENDBRANCH   6   7
ENDBRANCH   5   6
BRANCH   5  19
HETATM   19  N           1     -19.966  -8.451  -2.758  0.00  0.00    -0.066 N 
HETATM   20  H           1     -19.543  -7.839  -3.491  0.00  0.00     0.275 HD
HETATM   21  H           1     -19.415  -8.368  -1.874  0.00  0.00     0.275 HD
HETATM   22  H           1     -19.954  -9.444  -3.085  0.00  0.00     0.275 HD
ENDBRANCH   5  19
ENDBRANCH   2   5
BRANCH   1  23
HETATM   23  C           1     -21.762  -6.640  -5.561  0.00  0.00     0.189 C 
BRANCH  23  24
HETATM   24  C           1     -20.893  -7.872  -5.624  0.00  0.00     0.197 C 
HETATM   25  O           1     -21.417  -9.007  -5.621  0.00  0.00    -0.646 OA
HETATM   26  O           1     -19.650  -7.758  -5.679  0.00  0.00    -0.646 OA
ENDBRANCH  23  24
BRANCH  23  27
HETATM   27  C           1     -20.908  -5.402  -5.803  0.00  0.00     0.074 C 
BRANCH  27  28
HETATM   28  C           1     -21.214  -4.841  -7.157  0.00  0.00    -0.056 A 
HETATM   29  C           1     -22.448  -4.239  -7.399  0.00  0.00     0.010 A 
HETATM   30  C           1     -22.733  -3.717  -8.662  0.00  0.00     0.038 A 
HETATM   31  C           1     -21.782  -3.796  -9.680  0.00  0.00     0.081 A 
HETATM   32  C           1     -20.548  -4.399  -9.436  0.00  0.00     0.038 A 
HETATM   33  C           1     -20.264  -4.921  -8.174  0.00  0.00     0.010 A 
BRANCH  31  34
HETATM   34  O           1     -22.059  -3.289 -10.905  0.00  0.00    -0.247 OA
BRANCH  34  35
HETATM   35  P           1     -23.379  -3.824 -11.667  0.00  0.00     0.411 P 
HETATM   36  O           1     -24.536  -2.974 -11.306  0.00  0.00    -0.624 OA
HETATM   37  O           1     -23.649  -5.222 -11.263  0.00  0.00    -0.624 OA
BRANCH  35  38
HETATM   38  O           1     -23.142  -3.759 -13.263  0.00  0.00    -0.300 OA
HETATM   39  H           1     -23.998  -3.857 -13.641  0.00  0.00     0.223 HD
ENDBRANCH  35  38
ENDBRANCH  34  35
ENDBRANCH  31  34
ENDBRANCH  27  28
ENDBRANCH  23  27
ENDBRANCH   1  23
TORSDOF 14
ENDMDL
MODEL 9
REMARK VINA RESULT:      -7.9      3.433     10.489
REMARK  14 active torsions:
REMARK  status: ('A' for Active; 'I' for Inactive)
REMARK    1  A    between atoms: C_2  and  C_4 
REMARK    2  A    between atoms: C_4  and  C_5 
REMARK    3  A    between atoms: C_4  and  N_17 
REMARK    4  A    between atoms: C_5  and  C_6 
REMARK    5  A    between atoms: C_9  and  O_10 
REMARK    6  A    between atoms: O_10  and  P_11 
REMARK    7  A    between atoms: P_11  and  O_13 
REMARK       I    between atoms: N_17  and  C_18 
REMARK    8  A    between atoms: C_18  and  C_19 
REMARK    9  A    between atoms: C_19  and  C_20 
REMARK   10  A    between atoms: C_19  and  N_32 
REMARK   11  A    between atoms: C_20  and  C_21 
REMARK   12  A    between atoms: C_24  and  O_25 
REMARK   13  A    between atoms: O_25  and  P_26 
REMARK   14  A    between atoms: P_26  and  O_27 
ROOT
HETATM    1  N           1     -21.181  -6.917  -6.625  0.00  0.00    -0.344 N 
HETATM    2  C           1     -21.620  -6.998  -5.330  0.00  0.00     0.249 C 
HETATM    3  O           1     -22.803  -6.962  -5.089  0.00  0.00    -0.271 OA
HETATM    4  H           1     -21.060  -7.759  -7.172  0.00  0.00     0.163 HD
ENDROOT
BRANCH   2   5
HETATM    5  C           1     -20.624  -7.134  -4.204  0.00  0.00     0.278 C 
BRANCH   5   6
HETATM    6  C           1     -20.471  -8.604  -3.836  0.00  0.00     0.081 C 
BRANCH   6   7
HETATM    7  C           1     -19.080  -9.056  -4.156  0.00  0.00    -0.056 A 
HETATM    8  C           1     -18.159  -9.259  -3.128  0.00  0.00     0.010 A 
HETATM    9  C           1     -16.864  -9.680  -3.425  0.00  0.00     0.038 A 
HETATM   10  C           1     -16.488  -9.898  -4.751  0.00  0.00     0.081 A 
HETATM   11  C           1     -17.410  -9.696  -5.779  0.00  0.00     0.038 A 
HETATM   12  C           1     -18.705  -9.275  -5.481  0.00  0.00     0.010 A 
BRANCH  10  13
HETATM   13  O           1     -15.230 -10.308  -5.040  0.00  0.00    -0.247 OA
BRANCH  13  14
HETATM   14  P           1     -15.015 -11.845  -5.487  0.00  0.00     0.411 P 
HETATM   15  O           1     -15.113 -11.948  -6.959  0.00  0.00    -0.624 OA
HETATM   16  O           1     -13.680 -12.305  -5.045  0.00  0.00    -0.624 OA
BRANCH  14  17
HETATM   17  O           1     -16.154 -12.767  -4.807  0.00  0.00    -0.300 OA
HETATM   18  H           1     -16.469 -13.318  -5.502  0.00  0.00     0.223 HD
ENDBRANCH  14  17
ENDBRANCH  13  14
ENDBRANCH  10  13
ENDBRANCH   6   7
ENDBRANCH   5   6
BRANCH   5  19
HETATM   19  N           1     -21.115  -6.368  -3.010  0.00  0.00    -0.066 N 
HETATM   20  H           1     -20.298  -5.997  -2.475  0.00  0.00     0.275 HD
HETATM   21  H           1     -21.713  -5.574  -3.329  0.00  0.00     0.275 HD
HETATM   22  H           1     -21.674  -7.003  -2.395  0.00  0.00     0.275 HD
ENDBRANCH   5  19
ENDBRANCH   2   5
BRANCH   1  23
HETATM   23  C           1     -20.890  -5.623  -7.211  0.00  0.00     0.189 C 
BRANCH  23  24
HETATM   24  C           1     -19.845  -4.919  -6.382  0.00  0.00     0.197 C 
HETATM   25  O           1     -18.662  -4.866  -6.782  0.00  0.00    -0.646 OA
HETATM   26  O           1     -20.161  -4.390  -5.295  0.00  0.00    -0.646 OA
ENDBRANCH  23  24
BRANCH  23  27
HETATM   27  C           1     -22.161  -4.784  -7.246  0.00  0.00     0.074 C 
BRANCH  27  28
HETATM   28  C           1     -22.329  -4.188  -8.609  0.00  0.00    -0.056 A 
HETATM   29  C           1     -23.576  -3.714  -9.014  0.00  0.00     0.010 A 
HETATM   30  C           1     -23.732  -3.159 -10.285  0.00  0.00     0.038 A 
HETATM   31  C           1     -22.640  -3.077 -11.149  0.00  0.00     0.081 A 
HETATM   32  C           1     -21.393  -3.552 -10.743  0.00  0.00     0.038 A 
HETATM   33  C           1     -21.237  -4.107  -9.473  0.00  0.00     0.010 A 
BRANCH  31  34
HETATM   34  O           1     -22.792  -2.539 -12.383  0.00  0.00    -0.247 OA
BRANCH  34  35
HETATM   35  P           1     -23.897  -3.190 -13.364  0.00  0.00     0.411 P 
HETATM   36  O           1     -23.544  -2.897 -14.771  0.00  0.00    -0.624 OA
HETATM   37  O           1     -25.227  -2.616 -13.060  0.00  0.00    -0.624 OA
BRANCH  35  38
HETATM   38  O           1     -23.936  -4.790 -13.142  0.00  0.00    -0.300 OA
HETATM   39  H           1     -24.100  -4.904 -12.222  0.00  0.00     0.223 HD
ENDBRANCH  35  38
ENDBRANCH  34  35
ENDBRANCH  31  34
ENDBRANCH  27  28
ENDBRANCH  23  27
ENDBRANCH   1  23
TORSDOF 14
ENDMDL
