MODEL 1
REMARK VINA RESULT:      -7.6      0.000      0.000
REMARK  13 active torsions:
REMARK  status: ('A' for Active; 'I' for Inactive)
REMARK    1  A    between atoms: N_1  and  C_2 
REMARK    2  A    between atoms: C_2  and  C_3 
REMARK    3  A    between atoms: C_3  and  C_4 
REMARK    4  A    between atoms: C_4  and  C_5 
REMARK    5  A    between atoms: C_5  and  C_6 
REMARK    6  A    between atoms: C_5  and  N_9 
REMARK       I    between atoms: N_9  and  C_10 
REMARK    7  A    between atoms: C_10  and  C_11 
REMARK    8  A    between atoms: C_11  and  C_12 
REMARK    9  A    between atoms: C_11  and  N_24 
REMARK   10  A    between atoms: C_12  and  C_13 
REMARK   11  A    between atoms: C_16  and  O_17 
REMARK   12  A    between atoms: O_17  and  P_18 
REMARK   13  A    between atoms: P_18  and  O_19 
ROOT
HETATM    1  C           1     -20.963  -4.871  -6.389  0.00  0.00     0.278 C 
ENDROOT
BRANCH   1   2
HETATM    2  C           1     -21.690  -5.819  -5.466  0.00  0.00     0.249 C 
HETATM    3  N           1     -20.983  -6.618  -4.610  0.00  0.00    -0.345 N 
HETATM    4  H           1     -19.972  -6.574  -4.595  0.00  0.00     0.163 HD
HETATM    5  O           1     -22.897  -5.870  -5.484  0.00  0.00    -0.271 OA
BRANCH   3   6
HETATM    6  C           1     -21.682  -7.529  -3.725  0.00  0.00     0.185 C 
BRANCH   6   7
HETATM    7  C           1     -20.989  -8.885  -3.739  0.00  0.00     0.038 C 
BRANCH   7   8
HETATM    8  C           1     -19.609  -8.743  -4.367  0.00  0.00     0.030 C 
BRANCH   8   9
HETATM    9  C           1     -18.553  -9.257  -3.396  0.00  0.00     0.230 C 
BRANCH   9  10
HETATM   10  N           1     -19.225  -9.919  -2.230  0.00  0.00    -0.079 N 
HETATM   11  H           1     -20.029 -10.493  -2.572  0.00  0.00     0.274 HD
HETATM   12  H           1     -18.541 -10.537  -1.740  0.00  0.00     0.274 HD
HETATM   13  H           1     -19.574  -9.190  -1.569  0.00  0.00     0.274 HD
ENDBRANCH   9  10
ENDBRANCH   8   9
ENDBRANCH   7   8
ENDBRANCH   6   7
BRANCH   6  14
HETATM   14  C           1     -21.669  -6.974  -2.322  0.00  0.00     0.196 C 
HETATM   15  O           1     -22.264  -5.904  -2.066  0.00  0.00    -0.646 OA
HETATM   16  O           1     -21.064  -7.584  -1.414  0.00  0.00    -0.646 OA
ENDBRANCH   6  14
ENDBRANCH   3   6
ENDBRANCH   1   2
BRANCH   1  17
HETATM   17  C           1     -20.686  -5.564  -7.716  0.00  0.00     0.081 C 
BRANCH  17  18
HETATM   18  C           1     -21.264  -4.753  -8.834  0.00  0.00    -0.056 A 
HETATM   19  C           1     -20.475  -4.422  -9.934  0.00  0.00     0.010 A 
HETATM   20  C           1     -21.014  -3.666 -10.977  0.00  0.00     0.038 A 
HETATM   21  C           1     -22.341  -3.242 -10.917  0.00  0.00     0.081 A 
HETATM   22  C           1     -23.130  -3.575  -9.816  0.00  0.00     0.038 A 
HETATM   23  C           1     -22.592  -4.330  -8.774  0.00  0.00     0.010 A 
BRANCH  21  24
HETATM   24  O           1     -22.864  -2.509 -11.929  0.00  0.00    -0.247 OA
BRANCH  24  25
HETATM   25  P           1     -23.895  -3.235 -12.938  0.00  0.00     0.411 P 
HETATM   26  O           1     -25.282  -2.882 -12.563  0.00  0.00    -0.624 OA
HETATM   27  O           1     -23.628  -2.786 -14.323  0.00  0.00    -0.624 OA
BRANCH  25  28
HETATM   28  O           1     -23.703  -4.835 -12.844  0.00  0.00    -0.300 OA
HETATM   29  H           1     -24.578  -5.185 -12.826  0.00  0.00     0.223 HD
ENDBRANCH  25  28
ENDBRANCH  24  25
ENDBRANCH  21  24
ENDBRANCH  17  18
ENDBRANCH   1  17
BRANCH   1  30
HETATM   30  N           1     -19.665  -4.459  -5.759  0.00  0.00    -0.066 N 
HETATM   31  H           1     -19.595  -4.873  -4.803  0.00  0.00     0.275 HD
HETATM   32  H           1     -18.871  -4.800  -6.345  0.00  0.00     0.275 HD
HETATM   33  H           1     -19.628  -3.417  -5.691  0.00  0.00     0.275 HD
ENDBRANCH   1  30
TORSDOF 13
ENDMDL
MODEL 2
REMARK VINA RESULT:      -7.2      1.826      2.601
REMARK  13 active torsions:
REMARK  status: ('A' for Active; 'I' for Inactive)
REMARK    1  A    between atoms: N_1  and  C_2 
REMARK    2  A    between atoms: C_2  and  C_3 
REMARK    3  A    between atoms: C_3  and  C_4 
REMARK    4  A    between atoms: C_4  and  C_5 
REMARK    5  A    between atoms: C_5  and  C_6 
REMARK    6  A    between atoms: C_5  and  N_9 
REMARK       I    between atoms: N_9  and  C_10 
REMARK    7  A    between atoms: C_10  and  C_11 
REMARK    8  A    between atoms: C_11  and  C_12 
REMARK    9  A    between atoms: C_11  and  N_24 
REMARK   10  A    between atoms: C_12  and  C_13 
REMARK   11  A    between atoms: C_16  and  O_17 
REMARK   12  A    between atoms: O_17  and  P_18 
REMARK   13  A    between atoms: P_18  and  O_19 
ROOT
HETATM    1  C           1     -20.784  -5.809  -6.279  0.00  0.00     0.278 C 
ENDROOT
BRANCH   1   2
HETATM    2  C           1     -20.379  -7.071  -5.557  0.00  0.00     0.249 C 
HETATM    3  N           1     -20.964  -7.395  -4.362  0.00  0.00    -0.345 N 
HETATM    4  H           1     -21.668  -6.788  -3.963  0.00  0.00     0.163 HD
HETATM    5  O           1     -19.539  -7.796  -6.035  0.00  0.00    -0.271 OA
BRANCH   3   6
HETATM    6  C           1     -20.575  -8.607  -3.670  0.00  0.00     0.185 C 
BRANCH   6   7
HETATM    7  C           1     -20.648  -8.380  -2.166  0.00  0.00     0.038 C 
BRANCH   7   8
HETATM    8  C           1     -21.276  -7.020  -1.888  0.00  0.00     0.030 C 
BRANCH   8   9
HETATM    9  C           1     -22.324  -7.158  -0.791  0.00  0.00     0.230 C 
BRANCH   9  10
HETATM   10  N           1     -22.537  -8.610  -0.482  0.00  0.00    -0.079 N 
HETATM   11  H           1     -22.331  -9.181  -1.333  0.00  0.00     0.274 HD
HETATM   12  H           1     -21.897  -8.898   0.292  0.00  0.00     0.274 HD
HETATM   13  H           1     -23.528  -8.763  -0.191  0.00  0.00     0.274 HD
ENDBRANCH   9  10
ENDBRANCH   8   9
ENDBRANCH   7   8
ENDBRANCH   6   7
BRANCH   6  14
HETATM   14  C           1     -21.509  -9.728  -4.053  0.00  0.00     0.196 C 
HETATM   15  O           1     -22.481 -10.011  -3.320  0.00  0.00    -0.646 OA
HETATM   16  O           1     -21.311 -10.375  -5.105  0.00  0.00    -0.646 OA
ENDBRANCH   6  14
ENDBRANCH   3   6
ENDBRANCH   1   2
BRANCH   1  17
HETATM   17  C           1     -20.019  -5.705  -7.590  0.00  0.00     0.081 C 
BRANCH  17  18
HETATM   18  C           1     -20.811  -4.892  -8.568  0.00  0.00    -0.056 A 
HETATM   19  C           1     -22.147  -4.594  -8.305  0.00  0.00     0.010 A 
HETATM   20  C           1     -22.885  -3.837  -9.216  0.00  0.00     0.038 A 
HETATM   21  C           1     -22.285  -3.379 -10.389  0.00  0.00     0.081 A 
HETATM   22  C           1     -20.948  -3.677 -10.651  0.00  0.00     0.038 A 
HETATM   23  C           1     -20.210  -4.434  -9.741  0.00  0.00     0.010 A 
BRANCH  21  24
HETATM   24  O           1     -23.002  -2.643 -11.274  0.00  0.00    -0.247 OA
BRANCH  24  25
HETATM   25  P           1     -23.499  -3.364 -12.631  0.00  0.00     0.411 P 
HETATM   26  O           1     -23.833  -4.777 -12.344  0.00  0.00    -0.624 OA
HETATM   27  O           1     -24.700  -2.668 -13.146  0.00  0.00    -0.624 OA
BRANCH  25  28
HETATM   28  O           1     -22.324  -3.302 -13.736  0.00  0.00    -0.300 OA
HETATM   29  H           1     -22.745  -3.518 -14.551  0.00  0.00     0.223 HD
ENDBRANCH  25  28
ENDBRANCH  24  25
ENDBRANCH  21  24
ENDBRANCH  17  18
ENDBRANCH   1  17
BRANCH   1  30
HETATM   30  N           1     -20.468  -4.620  -5.420  0.00  0.00    -0.066 N 
HETATM   31  H           1     -19.446  -4.606  -5.206  0.00  0.00     0.275 HD
HETATM   32  H           1     -20.729  -3.745  -5.927  0.00  0.00     0.275 HD
HETATM   33  H           1     -21.009  -4.682  -4.528  0.00  0.00     0.275 HD
ENDBRANCH   1  30
TORSDOF 13
ENDMDL
MODEL 3
REMARK VINA RESULT:      -7.1      3.878      9.530
REMARK  13 active torsions:
REMARK  status: ('A' for Active; 'I' for Inactive)
REMARK    1  A    between atoms: N_1  and  C_2 
REMARK    2  A    between atoms: C_2  and  C_3 
REMARK    3  A    between atoms: C_3  and  C_4 
REMARK    4  A    between atoms: C_4  and  C_5 
REMARK    5  A    between atoms: C_5  and  C_6 
REMARK    6  A    between atoms: C_5  and  N_9 
REMARK       I    between atoms: N_9  and  C_10 
REMARK    7  A    between atoms: C_10  and  C_11 
REMARK    8  A    between atoms: C_11  and  C_12 
REMARK    9  A    between atoms: C_11  and  N_24 
REMARK   10  A    between atoms: C_12  and  C_13 
REMARK   11  A    between atoms: C_16  and  O_17 
REMARK   12  A    between atoms: O_17  and  P_18 
REMARK   13  A    between atoms: P_18  and  O_19 
ROOT
HETATM    1  C           1     -21.170  -5.550  -6.473  0.00  0.00     0.278 C 
ENDROOT
BRANCH   1   2
HETATM    2  C           1     -21.619  -4.503  -7.463  0.00  0.00     0.249 C 
HETATM    3  N           1     -22.228  -4.880  -8.629  0.00  0.00    -0.345 N 
HETATM    4  H           1     -22.378  -5.861  -8.828  0.00  0.00     0.163 HD
HETATM    5  O           1     -21.440  -3.332  -7.226  0.00  0.00    -0.271 OA
BRANCH   3   6
HETATM    6  C           1     -22.658  -3.875  -9.580  0.00  0.00     0.185 C 
BRANCH   6   7
HETATM    7  C           1     -22.040  -4.164 -10.941  0.00  0.00     0.038 C 
BRANCH   7   8
HETATM    8  C           1     -21.931  -2.868 -11.736  0.00  0.00     0.030 C 
BRANCH   8   9
HETATM    9  C           1     -22.748  -2.987 -13.016  0.00  0.00     0.230 C 
BRANCH   9  10
HETATM   10  N           1     -24.129  -2.450 -12.781  0.00  0.00    -0.079 N 
HETATM   11  H           1     -24.610  -2.312 -13.698  0.00  0.00     0.274 HD
HETATM   12  H           1     -24.672  -3.129 -12.201  0.00  0.00     0.274 HD
HETATM   13  H           1     -24.066  -1.535 -12.280  0.00  0.00     0.274 HD
ENDBRANCH   9  10
ENDBRANCH   8   9
ENDBRANCH   7   8
ENDBRANCH   6   7
BRANCH   6  14
HETATM   14  C           1     -24.162  -3.903  -9.696  0.00  0.00     0.196 C 
HETATM   15  O           1     -24.819  -2.844  -9.588  0.00  0.00    -0.646 OA
HETATM   16  O           1     -24.754  -4.986  -9.900  0.00  0.00    -0.646 OA
ENDBRANCH   6  14
ENDBRANCH   3   6
ENDBRANCH   1   2
BRANCH   1  17
HETATM   17  C           1     -22.336  -5.931  -5.572  0.00  0.00     0.081 C 
BRANCH  17  18
HETATM   18  C           1     -21.840  -6.784  -4.445  0.00  0.00    -0.056 A 
HETATM   19  C           1     -21.756  -6.256  -3.157  0.00  0.00     0.010 A 
HETATM   20  C           1     -21.293  -7.051  -2.107  0.00  0.00     0.038 A 
HETATM   21  C           1     -20.914  -8.371  -2.346  0.00  0.00     0.081 A 
HETATM   22  C           1     -20.998  -8.898  -3.635  0.00  0.00     0.038 A 
HETATM   23  C           1     -21.461  -8.104  -4.685  0.00  0.00     0.010 A 
BRANCH  21  24
HETATM   24  O           1     -20.465  -9.142  -1.326  0.00  0.00    -0.247 OA
BRANCH  24  25
HETATM   25  P           1     -21.502  -9.519  -0.147  0.00  0.00     0.411 P 
HETATM   26  O           1     -22.864  -9.646  -0.712  0.00  0.00    -0.624 OA
HETATM   27  O           1     -21.101 -10.803   0.470  0.00  0.00    -0.624 OA
BRANCH  25  28
HETATM   28  O           1     -21.490  -8.356   0.973  0.00  0.00    -0.300 OA
HETATM   29  H           1     -22.240  -7.821   0.777  0.00  0.00     0.223 HD
ENDBRANCH  25  28
ENDBRANCH  24  25
ENDBRANCH  21  24
ENDBRANCH  17  18
ENDBRANCH   1  17
BRANCH   1  30
HETATM   30  N           1     -20.052  -4.999  -5.637  0.00  0.00    -0.066 N 
HETATM   31  H           1     -19.910  -5.608  -4.800  0.00  0.00     0.275 HD
HETATM   32  H           1     -19.174  -4.976  -6.203  0.00  0.00     0.275 HD
HETATM   33  H           1     -20.294  -4.032  -5.327  0.00  0.00     0.275 HD
ENDBRANCH   1  30
TORSDOF 13
ENDMDL
MODEL 4
REMARK VINA RESULT:      -6.6      2.270      3.077
REMARK  13 active torsions:
REMARK  status: ('A' for Active; 'I' for Inactive)
REMARK    1  A    between atoms: N_1  and  C_2 
REMARK    2  A    between atoms: C_2  and  C_3 
REMARK    3  A    between atoms: C_3  and  C_4 
REMARK    4  A    between atoms: C_4  and  C_5 
REMARK    5  A    between atoms: C_5  and  C_6 
REMARK    6  A    between atoms: C_5  and  N_9 
REMARK       I    between atoms: N_9  and  C_10 
REMARK    7  A    between atoms: C_10  and  C_11 
REMARK    8  A    between atoms: C_11  and  C_12 
REMARK    9  A    between atoms: C_11  and  N_24 
REMARK   10  A    between atoms: C_12  and  C_13 
REMARK   11  A    between atoms: C_16  and  O_17 
REMARK   12  A    between atoms: O_17  and  P_18 
REMARK   13  A    between atoms: P_18  and  O_19 
ROOT
HETATM    1  C           1     -21.349  -6.197  -5.469  0.00  0.00     0.278 C 
ENDROOT
BRANCH   1   2
HETATM    2  C           1     -20.491  -7.436  -5.542  0.00  0.00     0.249 C 
HETATM    3  N           1     -20.729  -8.485  -4.695  0.00  0.00    -0.345 N 
HETATM    4  H           1     -21.480  -8.429  -4.019  0.00  0.00     0.163 HD
HETATM    5  O           1     -19.594  -7.502  -6.349  0.00  0.00    -0.271 OA
BRANCH   3   6
HETATM    6  C           1     -19.904  -9.674  -4.765  0.00  0.00     0.185 C 
BRANCH   6   7
HETATM    7  C           1     -19.411 -10.034  -3.370  0.00  0.00     0.038 C 
BRANCH   7   8
HETATM    8  C           1     -18.019  -9.450  -3.156  0.00  0.00     0.030 C 
BRANCH   8   9
HETATM    9  C           1     -17.121  -9.837  -4.324  0.00  0.00     0.230 C 
BRANCH   9  10
HETATM   10  N           1     -16.004 -10.708  -3.830  0.00  0.00    -0.079 N 
HETATM   11  H           1     -15.593 -10.289  -2.965  0.00  0.00     0.274 HD
HETATM   12  H           1     -16.376 -11.660  -3.612  0.00  0.00     0.274 HD
HETATM   13  H           1     -15.267 -10.781  -4.567  0.00  0.00     0.274 HD
ENDBRANCH   9  10
ENDBRANCH   8   9
ENDBRANCH   7   8
ENDBRANCH   6   7
BRANCH   6  14
HETATM   14  C           1     -20.716 -10.818  -5.320  0.00  0.00     0.196 C 
HETATM   15  O           1     -21.360 -11.561  -4.547  0.00  0.00    -0.646 OA
HETATM   16  O           1     -20.745 -11.024  -6.553  0.00  0.00    -0.646 OA
ENDBRANCH   6  14
ENDBRANCH   3   6
ENDBRANCH   1   2
BRANCH   1  17
HETATM   17  C           1     -20.538  -4.989  -5.916  0.00  0.00     0.081 C 
BRANCH  17  18
HETATM   18  C           1     -21.014  -4.537  -7.263  0.00  0.00    -0.056 A 
HETATM   19  C           1     -22.321  -4.081  -7.422  0.00  0.00     0.010 A 
HETATM   20  C           1     -22.765  -3.660  -8.677  0.00  0.00     0.038 A 
HETATM   21  C           1     -21.900  -3.698  -9.771  0.00  0.00     0.081 A 
HETATM   22  C           1     -20.592  -4.154  -9.610  0.00  0.00     0.038 A 
HETATM   23  C           1     -20.148  -4.575  -8.356  0.00  0.00     0.010 A 
BRANCH  21  24
HETATM   24  O           1     -22.330  -3.289 -10.989  0.00  0.00    -0.247 OA
BRANCH  24  25
HETATM   25  P           1     -23.664  -3.973 -11.590  0.00  0.00     0.411 P 
HETATM   26  O           1     -23.799  -5.345 -11.052  0.00  0.00    -0.624 OA
HETATM   27  O           1     -24.847  -3.172 -11.201  0.00  0.00    -0.624 OA
BRANCH  25  28
HETATM   28  O           1     -23.561  -4.034 -13.199  0.00  0.00    -0.300 OA
HETATM   29  H           1     -22.644  -4.159 -13.380  0.00  0.00     0.223 HD
ENDBRANCH  25  28
ENDBRANCH  24  25
ENDBRANCH  21  24
ENDBRANCH  17  18
ENDBRANCH   1  17
BRANCH   1  30
HETATM   30  N           1     -21.813  -5.993  -4.057  0.00  0.00    -0.066 N 
HETATM   31  H           1     -22.856  -5.924  -4.039  0.00  0.00     0.275 HD
HETATM   32  H           1     -21.509  -6.802  -3.471  0.00  0.00     0.275 HD
HETATM   33  H           1     -21.400  -5.111  -3.679  0.00  0.00     0.275 HD
ENDBRANCH   1  30
TORSDOF 13
ENDMDL
MODEL 5
REMARK VINA RESULT:      -6.5      2.308      3.184
REMARK  13 active torsions:
REMARK  status: ('A' for Active; 'I' for Inactive)
REMARK    1  A    between atoms: N_1  and  C_2 
REMARK    2  A    between atoms: C_2  and  C_3 
REMARK    3  A    between atoms: C_3  and  C_4 
REMARK    4  A    between atoms: C_4  and  C_5 
REMARK    5  A    between atoms: C_5  and  C_6 
REMARK    6  A    between atoms: C_5  and  N_9 
REMARK       I    between atoms: N_9  and  C_10 
REMARK    7  A    between atoms: C_10  and  C_11 
REMARK    8  A    between atoms: C_11  and  C_12 
REMARK    9  A    between atoms: C_11  and  N_24 
REMARK   10  A    between atoms: C_12  and  C_13 
REMARK   11  A    between atoms: C_16  and  O_17 
REMARK   12  A    between atoms: O_17  and  P_18 
REMARK   13  A    between atoms: P_18  and  O_19 
ROOT
HETATM    1  C           1     -21.501  -6.716  -5.245  0.00  0.00     0.278 C 
ENDROOT
BRANCH   1   2
HETATM    2  C           1     -21.089  -8.118  -4.866  0.00  0.00     0.249 C 
HETATM    3  N           1     -21.477  -8.645  -3.664  0.00  0.00    -0.345 N 
HETATM    4  H           1     -22.041  -8.094  -3.028  0.00  0.00     0.163 HD
HETATM    5  O           1     -20.417  -8.775  -5.625  0.00  0.00    -0.271 OA
BRANCH   3   6
HETATM    6  C           1     -21.081  -9.991  -3.300  0.00  0.00     0.185 C 
BRANCH   6   7
HETATM    7  C           1     -20.753 -10.041  -1.814  0.00  0.00     0.038 C 
BRANCH   7   8
HETATM    8  C           1     -21.073  -8.694  -1.178  0.00  0.00     0.030 C 
BRANCH   8   9
HETATM    9  C           1     -21.195  -8.862   0.332  0.00  0.00     0.230 C 
BRANCH   9  10
HETATM   10  N           1     -20.945 -10.294   0.699  0.00  0.00    -0.079 N 
HETATM   11  H           1     -20.878 -10.381   1.738  0.00  0.00     0.274 HD
HETATM   12  H           1     -21.733 -10.885   0.350  0.00  0.00     0.274 HD
HETATM   13  H           1     -20.050 -10.614   0.264  0.00  0.00     0.274 HD
ENDBRANCH   9  10
ENDBRANCH   8   9
ENDBRANCH   7   8
ENDBRANCH   6   7
BRANCH   6  14
HETATM   14  C           1     -22.212 -10.945  -3.597  0.00  0.00     0.196 C 
HETATM   15  O           1     -23.128 -11.108  -2.762  0.00  0.00    -0.646 OA
HETATM   16  O           1     -22.232 -11.574  -4.677  0.00  0.00    -0.646 OA
ENDBRANCH   6  14
ENDBRANCH   3   6
ENDBRANCH   1   2
BRANCH   1  17
HETATM   17  C           1     -20.366  -6.038  -5.999  0.00  0.00     0.081 C 
BRANCH  17  18
HETATM   18  C           1     -20.921  -5.290  -7.172  0.00  0.00    -0.056 A 
HETATM   19  C           1     -22.191  -4.719  -7.096  0.00  0.00     0.010 A 
HETATM   20  C           1     -22.708  -4.022  -8.188  0.00  0.00     0.038 A 
HETATM   21  C           1     -21.955  -3.898  -9.356  0.00  0.00     0.081 A 
HETATM   22  C           1     -20.685  -4.469  -9.431  0.00  0.00     0.038 A 
HETATM   23  C           1     -20.168  -5.166  -8.339  0.00  0.00     0.010 A 
BRANCH  21  24
HETATM   24  O           1     -22.458  -3.221 -10.417  0.00  0.00    -0.247 OA
BRANCH  24  25
HETATM   25  P           1     -23.762  -3.826 -11.153  0.00  0.00     0.411 P 
HETATM   26  O           1     -23.702  -3.511 -12.598  0.00  0.00    -0.624 OA
HETATM   27  O           1     -23.794  -5.294 -10.969  0.00  0.00    -0.624 OA
BRANCH  25  28
HETATM   28  O           1     -25.093  -3.174 -10.514  0.00  0.00    -0.300 OA
HETATM   29  H           1     -25.059  -3.397  -9.599  0.00  0.00     0.223 HD
ENDBRANCH  25  28
ENDBRANCH  24  25
ENDBRANCH  21  24
ENDBRANCH  17  18
ENDBRANCH   1  17
BRANCH   1  30
HETATM   30  N           1     -21.813  -5.935  -4.002  0.00  0.00    -0.066 N 
HETATM   31  H           1     -22.208  -6.575  -3.278  0.00  0.00     0.275 HD
HETATM   32  H           1     -20.937  -5.496  -3.638  0.00  0.00     0.275 HD
HETATM   33  H           1     -22.511  -5.190  -4.226  0.00  0.00     0.275 HD
ENDBRANCH   1  30
TORSDOF 13
ENDMDL
MODEL 6
REMARK VINA RESULT:      -6.5      2.820      3.649
REMARK  13 active torsions:
REMARK  status: ('A' for Active; 'I' for Inactive)
REMARK    1  A    between atoms: N_1  and  C_2 
REMARK    2  A    between atoms: C_2  and  C_3 
REMARK    3  A    between atoms: C_3  and  C_4 
REMARK    4  A    between atoms: C_4  and  C_5 
REMARK    5  A    between atoms: C_5  and  C_6 
REMARK    6  A    between atoms: C_5  and  N_9 
REMARK       I    between atoms: N_9  and  C_10 
REMARK    7  A    between atoms: C_10  and  C_11 
REMARK    8  A    between atoms: C_11  and  C_12 
REMARK    9  A    between atoms: C_11  and  N_24 
REMARK   10  A    between atoms: C_12  and  C_13 
REMARK   11  A    between atoms: C_16  and  O_17 
REMARK   12  A    between atoms: O_17  and  P_18 
REMARK   13  A    between atoms: P_18  and  O_19 
ROOT
HETATM    1  C           1     -21.539  -6.692  -5.585  0.00  0.00     0.278 C 
ENDROOT
BRANCH   1   2
HETATM    2  C           1     -20.762  -7.775  -4.877  0.00  0.00     0.249 C 
HETATM    3  N           1     -20.351  -8.885  -5.565  0.00  0.00    -0.345 N 
HETATM    4  H           1     -20.568  -8.979  -6.549  0.00  0.00     0.163 HD
HETATM    5  O           1     -20.502  -7.662  -3.703  0.00  0.00    -0.271 OA
BRANCH   3   6
HETATM    6  C           1     -19.606  -9.925  -4.885  0.00  0.00     0.185 C 
BRANCH   6   7
HETATM    7  C           1     -20.348 -11.249  -5.011  0.00  0.00     0.038 C 
BRANCH   7   8
HETATM    8  C           1     -21.033 -11.319  -6.370  0.00  0.00     0.030 C 
BRANCH   8   9
HETATM    9  C           1     -20.526 -12.538  -7.132  0.00  0.00     0.230 C 
BRANCH   9  10
HETATM   10  N           1     -19.327 -12.156  -7.947  0.00  0.00    -0.079 N 
HETATM   11  H           1     -19.487 -12.418  -8.946  0.00  0.00     0.274 HD
HETATM   12  H           1     -19.174 -11.125  -7.878  0.00  0.00     0.274 HD
HETATM   13  H           1     -18.485 -12.659  -7.585  0.00  0.00     0.274 HD
ENDBRANCH   9  10
ENDBRANCH   8   9
ENDBRANCH   7   8
ENDBRANCH   6   7
BRANCH   6  14
HETATM   14  C           1     -18.239 -10.055  -5.510  0.00  0.00     0.196 C 
HETATM   15  O           1     -17.440 -10.922  -5.093  0.00  0.00    -0.646 OA
HETATM   16  O           1     -17.904  -9.296  -6.445  0.00  0.00    -0.646 OA
ENDBRANCH   6  14
ENDBRANCH   3   6
ENDBRANCH   1   2
BRANCH   1  17
HETATM   17  C           1     -20.609  -5.534  -5.920  0.00  0.00     0.081 C 
BRANCH  17  18
HETATM   18  C           1     -21.005  -4.938  -7.235  0.00  0.00    -0.056 A 
HETATM   19  C           1     -22.194  -4.217  -7.342  0.00  0.00     0.010 A 
HETATM   20  C           1     -22.564  -3.661  -8.568  0.00  0.00     0.038 A 
HETATM   21  C           1     -21.745  -3.829  -9.685  0.00  0.00     0.081 A 
HETATM   22  C           1     -20.556  -4.550  -9.576  0.00  0.00     0.038 A 
HETATM   23  C           1     -20.186  -5.106  -8.352  0.00  0.00     0.010 A 
BRANCH  21  24
HETATM   24  O           1     -22.104  -3.289 -10.875  0.00  0.00    -0.247 OA
BRANCH  24  25
HETATM   25  P           1     -23.430  -3.862 -11.597  0.00  0.00     0.411 P 
HETATM   26  O           1     -23.694  -5.238 -11.121  0.00  0.00    -0.624 OA
HETATM   27  O           1     -24.584  -2.995 -11.268  0.00  0.00    -0.624 OA
BRANCH  25  28
HETATM   28  O           1     -23.208  -3.879 -13.196  0.00  0.00    -0.300 OA
HETATM   29  H           1     -23.672  -4.642 -13.499  0.00  0.00     0.223 HD
ENDBRANCH  25  28
ENDBRANCH  24  25
ENDBRANCH  21  24
ENDBRANCH  17  18
ENDBRANCH   1  17
BRANCH   1  30
HETATM   30  N           1     -22.642  -6.205  -4.693  0.00  0.00    -0.066 N 
HETATM   31  H           1     -23.153  -5.425  -5.164  0.00  0.00     0.275 HD
HETATM   32  H           1     -23.305  -6.989  -4.500  0.00  0.00     0.275 HD
HETATM   33  H           1     -22.236  -5.861  -3.794  0.00  0.00     0.275 HD
ENDBRANCH   1  30
TORSDOF 13
ENDMDL
MODEL 7
REMARK VINA RESULT:      -6.5      2.316      3.401
REMARK  13 active torsions:
REMARK  status: ('A' for Active; 'I' for Inactive)
REMARK    1  A    between atoms: N_1  and  C_2 
REMARK    2  A    between atoms: C_2  and  C_3 
REMARK    3  A    between atoms: C_3  and  C_4 
REMARK    4  A    between atoms: C_4  and  C_5 
REMARK    5  A    between atoms: C_5  and  C_6 
REMARK    6  A    between atoms: C_5  and  N_9 
REMARK       I    between atoms: N_9  and  C_10 
REMARK    7  A    between atoms: C_10  and  C_11 
REMARK    8  A    between atoms: C_11  and  C_12 
REMARK    9  A    between atoms: C_11  and  N_24 
REMARK   10  A    between atoms: C_12  and  C_13 
REMARK   11  A    between atoms: C_16  and  O_17 
REMARK   12  A    between atoms: O_17  and  P_18 
REMARK   13  A    between atoms: P_18  and  O_19 
ROOT
HETATM    1  C           1     -20.294  -7.525  -5.597  0.00  0.00     0.278 C 
ENDROOT
BRANCH   1   2
HETATM    2  C           1     -19.980  -8.229  -4.299  0.00  0.00     0.249 C 
HETATM    3  N           1     -20.902  -8.244  -3.287  0.00  0.00    -0.345 N 
HETATM    4  H           1     -21.794  -7.783  -3.409  0.00  0.00     0.163 HD
HETATM    5  O           1     -18.914  -8.779  -4.154  0.00  0.00    -0.271 OA
BRANCH   3   6
HETATM    6  C           1     -20.599  -8.919  -2.041  0.00  0.00     0.185 C 
BRANCH   6   7
HETATM    7  C           1     -20.826  -7.965  -0.877  0.00  0.00     0.038 C 
BRANCH   7   8
HETATM    8  C           1     -22.246  -7.414  -0.941  0.00  0.00     0.030 C 
BRANCH   8   9
HETATM    9  C           1     -22.921  -7.590   0.414  0.00  0.00     0.230 C 
BRANCH   9  10
HETATM   10  N           1     -23.762  -8.832   0.396  0.00  0.00    -0.079 N 
HETATM   11  H           1     -23.216  -9.628   0.795  0.00  0.00     0.274 HD
HETATM   12  H           1     -24.621  -8.677   0.970  0.00  0.00     0.274 HD
HETATM   13  H           1     -24.034  -9.054  -0.588  0.00  0.00     0.274 HD
ENDBRANCH   9  10
ENDBRANCH   8   9
ENDBRANCH   7   8
ENDBRANCH   6   7
BRANCH   6  14
HETATM   14  C           1     -21.501 -10.120  -1.888  0.00  0.00     0.196 C 
HETATM   15  O           1     -21.498 -10.772  -0.821  0.00  0.00    -0.646 OA
HETATM   16  O           1     -22.250 -10.463  -2.828  0.00  0.00    -0.646 OA
ENDBRANCH   6  14
ENDBRANCH   3   6
ENDBRANCH   1   2
BRANCH   1  17
HETATM   17  C           1     -20.628  -6.067  -5.317  0.00  0.00     0.081 C 
BRANCH  17  18
HETATM   18  C           1     -20.982  -5.380  -6.600  0.00  0.00    -0.056 A 
HETATM   19  C           1     -20.089  -5.401  -7.671  0.00  0.00     0.010 A 
HETATM   20  C           1     -20.419  -4.761  -8.866  0.00  0.00     0.038 A 
HETATM   21  C           1     -21.641  -4.100  -8.989  0.00  0.00     0.081 A 
HETATM   22  C           1     -22.534  -4.080  -7.917  0.00  0.00     0.038 A 
HETATM   23  C           1     -22.205  -4.719  -6.723  0.00  0.00     0.010 A 
BRANCH  21  24
HETATM   24  O           1     -21.961  -3.479 -10.150  0.00  0.00    -0.247 OA
BRANCH  24  25
HETATM   25  P           1     -23.264  -3.996 -10.953  0.00  0.00     0.411 P 
HETATM   26  O           1     -23.667  -5.322 -10.434  0.00  0.00    -0.624 OA
HETATM   27  O           1     -24.373  -3.034 -10.764  0.00  0.00    -0.624 OA
BRANCH  25  28
HETATM   28  O           1     -22.916  -4.116 -12.525  0.00  0.00    -0.300 OA
HETATM   29  H           1     -23.201  -4.979 -12.773  0.00  0.00     0.223 HD
ENDBRANCH  25  28
ENDBRANCH  24  25
ENDBRANCH  21  24
ENDBRANCH  17  18
ENDBRANCH   1  17
BRANCH   1  30
HETATM   30  N           1     -21.467  -8.191  -6.254  0.00  0.00    -0.066 N 
HETATM   31  H           1     -21.181  -9.131  -6.608  0.00  0.00     0.275 HD
HETATM   32  H           1     -22.238  -8.300  -5.559  0.00  0.00     0.275 HD
HETATM   33  H           1     -21.795  -7.604  -7.054  0.00  0.00     0.275 HD
ENDBRANCH   1  30
TORSDOF 13
ENDMDL
MODEL 8
REMARK VINA RESULT:      -6.4      1.835      2.667
REMARK  13 active torsions:
REMARK  status: ('A' for Active; 'I' for Inactive)
REMARK    1  A    between atoms: N_1  and  C_2 
REMARK    2  A    between atoms: C_2  and  C_3 
REMARK    3  A    between atoms: C_3  and  C_4 
REMARK    4  A    between atoms: C_4  and  C_5 
REMARK    5  A    between atoms: C_5  and  C_6 
REMARK    6  A    between atoms: C_5  and  N_9 
REMARK       I    between atoms: N_9  and  C_10 
REMARK    7  A    between atoms: C_10  and  C_11 
REMARK    8  A    between atoms: C_11  and  C_12 
REMARK    9  A    between atoms: C_11  and  N_24 
REMARK   10  A    between atoms: C_12  and  C_13 
REMARK   11  A    between atoms: C_16  and  O_17 
REMARK   12  A    between atoms: O_17  and  P_18 
REMARK   13  A    between atoms: P_18  and  O_19 
ROOT
HETATM    1  C           1     -20.408  -6.672  -5.441  0.00  0.00     0.278 C 
ENDROOT
BRANCH   1   2
HETATM    2  C           1     -21.164  -7.427  -4.375  0.00  0.00     0.249 C 
HETATM    3  N           1     -20.957  -7.137  -3.053  0.00  0.00    -0.345 N 
HETATM    4  H           1     -20.298  -6.415  -2.791  0.00  0.00     0.163 HD
HETATM    5  O           1     -21.951  -8.288  -4.688  0.00  0.00    -0.271 OA
BRANCH   3   6
HETATM    6  C           1     -21.683  -7.863  -2.030  0.00  0.00     0.185 C 
BRANCH   6   7
HETATM    7  C           1     -20.711  -8.715  -1.225  0.00  0.00     0.038 C 
BRANCH   7   8
HETATM    8  C           1     -20.818 -10.168  -1.673  0.00  0.00     0.030 C 
BRANCH   8   9
HETATM    9  C           1     -22.275 -10.502  -1.970  0.00  0.00     0.230 C 
BRANCH   9  10
HETATM   10  N           1     -22.392 -11.037  -3.367  0.00  0.00    -0.079 N 
HETATM   11  H           1     -23.208 -10.591  -3.844  0.00  0.00     0.274 HD
HETATM   12  H           1     -21.518 -10.818  -3.896  0.00  0.00     0.274 HD
HETATM   13  H           1     -22.530 -12.072  -3.333  0.00  0.00     0.274 HD
ENDBRANCH   9  10
ENDBRANCH   8   9
ENDBRANCH   7   8
ENDBRANCH   6   7
BRANCH   6  14
HETATM   14  C           1     -22.370  -6.884  -1.110  0.00  0.00     0.196 C 
HETATM   15  O           1     -23.052  -7.301  -0.149  0.00  0.00    -0.646 OA
HETATM   16  O           1     -22.259  -5.655  -1.310  0.00  0.00    -0.646 OA
ENDBRANCH   6  14
ENDBRANCH   3   6
ENDBRANCH   1   2
BRANCH   1  17
HETATM   17  C           1     -20.761  -5.193  -5.364  0.00  0.00     0.081 C 
BRANCH  17  18
HETATM   18  C           1     -21.188  -4.710  -6.716  0.00  0.00    -0.056 A 
HETATM   19  C           1     -22.541  -4.509  -6.988  0.00  0.00     0.010 A 
HETATM   20  C           1     -22.939  -4.059  -8.248  0.00  0.00     0.038 A 
HETATM   21  C           1     -21.984  -3.811  -9.234  0.00  0.00     0.081 A 
HETATM   22  C           1     -20.631  -4.012  -8.960  0.00  0.00     0.038 A 
HETATM   23  C           1     -20.233  -4.462  -7.701  0.00  0.00     0.010 A 
BRANCH  21  24
HETATM   24  O           1     -22.371  -3.374 -10.457  0.00  0.00    -0.247 OA
BRANCH  24  25
HETATM   25  P           1     -23.659  -4.071 -11.138  0.00  0.00     0.411 P 
HETATM   26  O           1     -23.819  -5.440 -10.601  0.00  0.00    -0.624 OA
HETATM   27  O           1     -24.869  -3.275 -10.831  0.00  0.00    -0.624 OA
BRANCH  25  28
HETATM   28  O           1     -23.451  -4.140 -12.737  0.00  0.00    -0.300 OA
HETATM   29  H           1     -22.586  -4.496 -12.856  0.00  0.00     0.223 HD
ENDBRANCH  25  28
ENDBRANCH  24  25
ENDBRANCH  21  24
ENDBRANCH  17  18
ENDBRANCH   1  17
BRANCH   1  30
HETATM   30  N           1     -20.784  -7.206  -6.792  0.00  0.00    -0.066 N 
HETATM   31  H           1     -19.931  -7.269  -7.392  0.00  0.00     0.275 HD
HETATM   32  H           1     -21.205  -8.156  -6.685  0.00  0.00     0.275 HD
HETATM   33  H           1     -21.477  -6.564  -7.239  0.00  0.00     0.275 HD
ENDBRANCH   1  30
TORSDOF 13
ENDMDL
MODEL 9
REMARK VINA RESULT:      -6.3      2.097      3.102
REMARK  13 active torsions:
REMARK  status: ('A' for Active; 'I' for Inactive)
REMARK    1  A    between atoms: N_1  and  C_2 
REMARK    2  A    between atoms: C_2  and  C_3 
REMARK    3  A    between atoms: C_3  and  C_4 
REMARK    4  A    between atoms: C_4  and  C_5 
REMARK    5  A    between atoms: C_5  and  C_6 
REMARK    6  A    between atoms: C_5  and  N_9 
REMARK       I    between atoms: N_9  and  C_10 
REMARK    7  A    between atoms: C_10  and  C_11 
REMARK    8  A    between atoms: C_11  and  C_12 
REMARK    9  A    between atoms: C_11  and  N_24 
REMARK   10  A    between atoms: C_12  and  C_13 
REMARK   11  A    between atoms: C_16  and  O_17 
REMARK   12  A    between atoms: O_17  and  P_18 
REMARK   13  A    between atoms: P_18  and  O_19 
ROOT
HETATM    1  C           1     -20.324  -6.843  -5.852  0.00  0.00     0.278 C 
ENDROOT
BRANCH   1   2
HETATM    2  C           1     -20.344  -7.377  -4.440  0.00  0.00     0.249 C 
HETATM    3  N           1     -19.754  -8.579  -4.154  0.00  0.00    -0.345 N 
HETATM    4  H           1     -19.304  -9.109  -4.889  0.00  0.00     0.163 HD
HETATM    5  O           1     -20.882  -6.744  -3.564  0.00  0.00    -0.271 OA
BRANCH   3   6
HETATM    6  C           1     -19.775  -9.091  -2.799  0.00  0.00     0.185 C 
BRANCH   6   7
HETATM    7  C           1     -20.900 -10.107  -2.656  0.00  0.00     0.038 C 
BRANCH   7   8
HETATM    8  C           1     -21.964  -9.558  -1.713  0.00  0.00     0.030 C 
BRANCH   8   9
HETATM    9  C           1     -21.328  -8.552  -0.761  0.00  0.00     0.230 C 
BRANCH   9  10
HETATM   10  N           1     -22.124  -7.280  -0.773  0.00  0.00    -0.079 N 
HETATM   11  H           1     -22.978  -7.409  -1.361  0.00  0.00     0.274 HD
HETATM   12  H           1     -22.407  -7.038   0.203  0.00  0.00     0.274 HD
HETATM   13  H           1     -21.541  -6.508  -1.169  0.00  0.00     0.274 HD
ENDBRANCH   9  10
ENDBRANCH   8   9
ENDBRANCH   7   8
ENDBRANCH   6   7
BRANCH   6  14
HETATM   14  C           1     -18.456  -9.758  -2.493  0.00  0.00     0.196 C 
HETATM   15  O           1     -18.427 -10.802  -1.804  0.00  0.00    -0.646 OA
HETATM   16  O           1     -17.392  -9.267  -2.927  0.00  0.00    -0.646 OA
ENDBRANCH   6  14
ENDBRANCH   3   6
ENDBRANCH   1   2
BRANCH   1  17
HETATM   17  C           1     -20.352  -5.321  -5.821  0.00  0.00     0.081 C 
BRANCH  17  18
HETATM   18  C           1     -20.873  -4.804  -7.126  0.00  0.00    -0.056 A 
HETATM   19  C           1     -22.123  -4.188  -7.182  0.00  0.00     0.010 A 
HETATM   20  C           1     -22.609  -3.706  -8.398  0.00  0.00     0.038 A 
HETATM   21  C           1     -21.844  -3.841  -9.557  0.00  0.00     0.081 A 
HETATM   22  C           1     -20.594  -4.457  -9.500  0.00  0.00     0.038 A 
HETATM   23  C           1     -20.108  -4.939  -8.284  0.00  0.00     0.010 A 
BRANCH  21  24
HETATM   24  O           1     -22.316  -3.372 -10.738  0.00  0.00    -0.247 OA
BRANCH  24  25
HETATM   25  P           1     -23.653  -4.048 -11.341  0.00  0.00     0.411 P 
HETATM   26  O           1     -23.850  -5.381 -10.729  0.00  0.00    -0.624 OA
HETATM   27  O           1     -24.819  -3.189 -11.038  0.00  0.00    -0.624 OA
BRANCH  25  28
HETATM   28  O           1     -23.502  -4.207 -12.940  0.00  0.00    -0.300 OA
HETATM   29  H           1     -23.924  -5.024 -13.145  0.00  0.00     0.223 HD
ENDBRANCH  25  28
ENDBRANCH  24  25
ENDBRANCH  21  24
ENDBRANCH  17  18
ENDBRANCH   1  17
BRANCH   1  30
HETATM   30  N           1     -21.525  -7.350  -6.595  0.00  0.00    -0.066 N 
HETATM   31  H           1     -21.393  -8.362  -6.821  0.00  0.00     0.275 HD
HETATM   32  H           1     -22.375  -7.234  -6.001  0.00  0.00     0.275 HD
HETATM   33  H           1     -21.639  -6.808  -7.481  0.00  0.00     0.275 HD
ENDBRANCH   1  30
TORSDOF 13
ENDMDL
