MODEL 1
REMARK VINA RESULT:      -6.2      0.000      0.000
REMARK  6 active torsions:
REMARK  status: ('A' for Active; 'I' for Inactive)
REMARK       I    between atoms: C_6  and  N_9 
REMARK    1  A    between atoms: C_6  and  C_10 
REMARK       I    between atoms: C_7  and  N_8 
REMARK    2  A    between atoms: C_7  and  C_15 
REMARK    3  A    between atoms: N_9  and  C_14 
REMARK    4  A    between atoms: C_10  and  N_16 
REMARK    5  A    between atoms: C_14  and  C_15 
REMARK    6  A    between atoms: C_14  and  C_18 
ROOT
HETATM    1  C           1     -22.281  -3.549 -11.246  0.00  0.00     0.194 C 
ENDROOT
BRANCH   1   2
HETATM    2  N           1     -22.117  -3.552 -12.686  0.00  0.00    -0.345 N 
HETATM    3  H           1     -21.395  -4.119 -13.112  0.00  0.00     0.163 HD
HETATM    4  C           1     -22.938  -2.787 -13.470  0.00  0.00     0.243 C 
HETATM    5  O           1     -23.800  -2.111 -12.961  0.00  0.00    -0.272 OA
BRANCH   4   6
HETATM    6  C           1     -22.767  -2.789 -14.969  0.00  0.00     0.332 C 
BRANCH   6   7
HETATM    7  N           1     -23.065  -1.422 -15.510  0.00  0.00    -0.071 N 
HETATM    8  H           1     -24.022  -1.130 -15.209  0.00  0.00     0.274 HD
HETATM    9  H           1     -22.361  -0.742 -15.143  0.00  0.00     0.274 HD
HETATM   10  H           1     -23.019  -1.442 -16.553  0.00  0.00     0.274 HD
ENDBRANCH   6   7
ENDBRANCH   4   6
ENDBRANCH   1   2
BRANCH   1  11
HETATM   11  C           1     -23.403  -4.504 -10.861  0.00  0.00     0.138 C 
BRANCH  11  12
HETATM   12  C           1     -24.325  -3.828  -9.876  0.00  0.00     0.217 C 
HETATM   13  O           1     -25.339  -3.299 -10.265  0.00  0.00    -0.274 OA
HETATM   14  N           1     -24.013  -3.814  -8.543  0.00  0.00    -0.370 N 
HETATM   15  H           1     -23.164  -4.258  -8.218  0.00  0.00     0.159 HD
HETATM   16  H           1     -24.632  -3.361  -7.884  0.00  0.00     0.159 HD
ENDBRANCH  11  12
ENDBRANCH   1  11
BRANCH   1  17
HETATM   17  C           1     -20.996  -3.993 -10.593  0.00  0.00     0.197 C 
HETATM   18  O           1     -20.004  -4.283 -11.297  0.00  0.00    -0.646 OA
HETATM   19  O           1     -20.921  -4.069  -9.347  0.00  0.00    -0.646 OA
ENDBRANCH   1  17
TORSDOF 6
ENDMDL
MODEL 2
REMARK VINA RESULT:      -5.9      1.675      3.088
REMARK  6 active torsions:
REMARK  status: ('A' for Active; 'I' for Inactive)
REMARK       I    between atoms: C_6  and  N_9 
REMARK    1  A    between atoms: C_6  and  C_10 
REMARK       I    between atoms: C_7  and  N_8 
REMARK    2  A    between atoms: C_7  and  C_15 
REMARK    3  A    between atoms: N_9  and  C_14 
REMARK    4  A    between atoms: C_10  and  N_16 
REMARK    5  A    between atoms: C_14  and  C_15 
REMARK    6  A    between atoms: C_14  and  C_18 
ROOT
HETATM    1  C           1     -22.940  -3.242 -12.183  0.00  0.00     0.194 C 
ENDROOT
BRANCH   1   2
HETATM    2  N           1     -23.547  -2.154 -12.924  0.00  0.00    -0.345 N 
HETATM    3  H           1     -24.060  -1.432 -12.434  0.00  0.00     0.163 HD
HETATM    4  C           1     -23.429  -2.104 -14.286  0.00  0.00     0.243 C 
HETATM    5  O           1     -22.817  -2.966 -14.871  0.00  0.00    -0.272 OA
BRANCH   4   6
HETATM    6  C           1     -24.062  -0.971 -15.057  0.00  0.00     0.332 C 
BRANCH   6   7
HETATM    7  N           1     -23.068  -0.414 -16.034  0.00  0.00    -0.071 N 
HETATM    8  H           1     -23.393  -0.606 -17.009  0.00  0.00     0.274 HD
HETATM    9  H           1     -22.982   0.618 -15.892  0.00  0.00     0.274 HD
HETATM   10  H           1     -22.139  -0.866 -15.883  0.00  0.00     0.274 HD
ENDBRANCH   6   7
ENDBRANCH   4   6
ENDBRANCH   1   2
BRANCH   1  11
HETATM   11  C           1     -21.815  -2.698 -11.313  0.00  0.00     0.138 C 
BRANCH  11  12
HETATM   12  C           1     -20.959  -3.840 -10.823  0.00  0.00     0.217 C 
HETATM   13  O           1     -20.097  -4.298 -11.535  0.00  0.00    -0.274 OA
HETATM   14  N           1     -21.159  -4.359  -9.572  0.00  0.00    -0.370 N 
HETATM   15  H           1     -21.881  -3.976  -8.975  0.00  0.00     0.159 HD
HETATM   16  H           1     -20.585  -5.125  -9.244  0.00  0.00     0.159 HD
ENDBRANCH  11  12
ENDBRANCH   1  11
BRANCH   1  17
HETATM   17  C           1     -23.981  -3.897 -11.309  0.00  0.00     0.197 C 
HETATM   18  O           1     -24.962  -3.237 -10.903  0.00  0.00    -0.646 OA
HETATM   19  O           1     -23.863  -5.101 -10.990  0.00  0.00    -0.646 OA
ENDBRANCH   1  17
TORSDOF 6
ENDMDL
MODEL 3
REMARK VINA RESULT:      -5.8      9.162     10.485
REMARK  6 active torsions:
REMARK  status: ('A' for Active; 'I' for Inactive)
REMARK       I    between atoms: C_6  and  N_9 
REMARK    1  A    between atoms: C_6  and  C_10 
REMARK       I    between atoms: C_7  and  N_8 
REMARK    2  A    between atoms: C_7  and  C_15 
REMARK    3  A    between atoms: N_9  and  C_14 
REMARK    4  A    between atoms: C_10  and  N_16 
REMARK    5  A    between atoms: C_14  and  C_15 
REMARK    6  A    between atoms: C_14  and  C_18 
ROOT
HETATM    1  C           1     -30.028  -6.910 -17.607  0.00  0.00     0.194 C 
ENDROOT
BRANCH   1   2
HETATM    2  N           1     -31.179  -6.296 -16.973  0.00  0.00    -0.345 N 
HETATM    3  H           1     -31.785  -6.850 -16.380  0.00  0.00     0.163 HD
HETATM    4  C           1     -31.448  -4.970 -17.178  0.00  0.00     0.243 C 
HETATM    5  O           1     -30.725  -4.310 -17.886  0.00  0.00    -0.272 OA
BRANCH   4   6
HETATM    6  C           1     -32.646  -4.333 -16.519  0.00  0.00     0.332 C 
BRANCH   6   7
HETATM    7  N           1     -33.167  -3.227 -17.389  0.00  0.00    -0.071 N 
HETATM    8  H           1     -33.301  -3.583 -18.362  0.00  0.00     0.274 HD
HETATM    9  H           1     -34.080  -2.888 -17.012  0.00  0.00     0.274 HD
HETATM   10  H           1     -32.481  -2.439 -17.400  0.00  0.00     0.274 HD
ENDBRANCH   6   7
ENDBRANCH   4   6
ENDBRANCH   1   2
BRANCH   1  11
HETATM   11  C           1     -29.222  -7.673 -16.564  0.00  0.00     0.138 C 
BRANCH  11  12
HETATM   12  C           1     -28.167  -6.767 -15.980  0.00  0.00     0.217 C 
HETATM   13  O           1     -28.488  -5.733 -15.445  0.00  0.00    -0.274 OA
HETATM   14  N           1     -26.845  -7.116 -16.056  0.00  0.00    -0.370 N 
HETATM   15  H           1     -26.576  -7.982 -16.505  0.00  0.00     0.159 HD
HETATM   16  H           1     -26.138  -6.508 -15.664  0.00  0.00     0.159 HD
ENDBRANCH  11  12
ENDBRANCH   1  11
BRANCH   1  17
HETATM   17  C           1     -30.493  -7.861 -18.680  0.00  0.00     0.197 C 
HETATM   18  O           1     -31.687  -7.851 -19.052  0.00  0.00    -0.646 OA
HETATM   19  O           1     -29.684  -8.661 -19.201  0.00  0.00    -0.646 OA
ENDBRANCH   1  17
TORSDOF 6
ENDMDL
MODEL 4
REMARK VINA RESULT:      -5.7      1.799      5.513
REMARK  6 active torsions:
REMARK  status: ('A' for Active; 'I' for Inactive)
REMARK       I    between atoms: C_6  and  N_9 
REMARK    1  A    between atoms: C_6  and  C_10 
REMARK       I    between atoms: C_7  and  N_8 
REMARK    2  A    between atoms: C_7  and  C_15 
REMARK    3  A    between atoms: N_9  and  C_14 
REMARK    4  A    between atoms: C_10  and  N_16 
REMARK    5  A    between atoms: C_14  and  C_15 
REMARK    6  A    between atoms: C_14  and  C_18 
ROOT
HETATM    1  C           1     -23.271  -3.635 -10.063  0.00  0.00     0.194 C 
ENDROOT
BRANCH   1   2
HETATM    2  N           1     -23.370  -4.354  -8.808  0.00  0.00    -0.345 N 
HETATM    3  H           1     -24.183  -4.924  -8.615  0.00  0.00     0.163 HD
HETATM    4  C           1     -22.364  -4.259  -7.884  0.00  0.00     0.243 C 
HETATM    5  O           1     -21.394  -3.578  -8.116  0.00  0.00    -0.272 OA
BRANCH   4   6
HETATM    6  C           1     -22.468  -5.007  -6.578  0.00  0.00     0.332 C 
BRANCH   6   7
HETATM    7  N           1     -23.909  -5.113  -6.174  0.00  0.00    -0.071 N 
HETATM    8  H           1     -24.512  -5.097  -7.028  0.00  0.00     0.274 HD
HETATM    9  H           1     -24.060  -6.008  -5.656  0.00  0.00     0.274 HD
HETATM   10  H           1     -24.159  -4.307  -5.558  0.00  0.00     0.274 HD
ENDBRANCH   6   7
ENDBRANCH   4   6
ENDBRANCH   1   2
BRANCH   1  11
HETATM   11  C           1     -22.594  -4.518 -11.103  0.00  0.00     0.138 C 
BRANCH  11  12
HETATM   12  C           1     -21.649  -3.686 -11.934  0.00  0.00     0.217 C 
HETATM   13  O           1     -20.617  -3.284 -11.454  0.00  0.00    -0.274 OA
HETATM   14  N           1     -21.962  -3.387 -13.233  0.00  0.00    -0.370 N 
HETATM   15  H           1     -22.827  -3.724 -13.636  0.00  0.00     0.159 HD
HETATM   16  H           1     -21.328  -2.829 -13.790  0.00  0.00     0.159 HD
ENDBRANCH  11  12
ENDBRANCH   1  11
BRANCH   1  17
HETATM   17  C           1     -24.653  -3.264 -10.541  0.00  0.00     0.197 C 
HETATM   18  O           1     -25.586  -3.137  -9.718  0.00  0.00    -0.646 OA
HETATM   19  O           1     -24.866  -3.081 -11.759  0.00  0.00    -0.646 OA
ENDBRANCH   1  17
TORSDOF 6
ENDMDL
MODEL 5
REMARK VINA RESULT:      -5.7     12.494     14.308
REMARK  6 active torsions:
REMARK  status: ('A' for Active; 'I' for Inactive)
REMARK       I    between atoms: C_6  and  N_9 
REMARK    1  A    between atoms: C_6  and  C_10 
REMARK       I    between atoms: C_7  and  N_8 
REMARK    2  A    between atoms: C_7  and  C_15 
REMARK    3  A    between atoms: N_9  and  C_14 
REMARK    4  A    between atoms: C_10  and  N_16 
REMARK    5  A    between atoms: C_14  and  C_15 
REMARK    6  A    between atoms: C_14  and  C_18 
ROOT
HETATM    1  C           1     -35.766  -0.592 -12.567  0.00  0.00     0.194 C 
ENDROOT
BRANCH   1   2
HETATM    2  N           1     -36.042   0.124 -11.337  0.00  0.00    -0.345 N 
HETATM    3  H           1     -35.346   0.745 -10.947  0.00  0.00     0.163 HD
HETATM    4  C           1     -37.244  -0.043 -10.703  0.00  0.00     0.243 C 
HETATM    5  O           1     -38.075  -0.785 -11.169  0.00  0.00    -0.272 OA
BRANCH   4   6
HETATM    6  C           1     -37.530   0.702  -9.422  0.00  0.00     0.332 C 
BRANCH   6   7
HETATM    7  N           1     -36.242   1.191  -8.828  0.00  0.00    -0.071 N 
HETATM    8  H           1     -35.881   0.484  -8.149  0.00  0.00     0.274 HD
HETATM    9  H           1     -35.540   1.335  -9.589  0.00  0.00     0.274 HD
HETATM   10  H           1     -36.407   2.095  -8.332  0.00  0.00     0.274 HD
ENDBRANCH   6   7
ENDBRANCH   4   6
ENDBRANCH   1   2
BRANCH   1  11
HETATM   11  C           1     -35.291   0.389 -13.630  0.00  0.00     0.138 C 
BRANCH  11  12
HETATM   12  C           1     -36.182   0.289 -14.844  0.00  0.00     0.217 C 
HETATM   13  O           1     -36.878  -0.686 -15.003  0.00  0.00    -0.274 OA
HETATM   14  N           1     -36.203   1.302 -15.765  0.00  0.00    -0.370 N 
HETATM   15  H           1     -35.620   2.118 -15.631  0.00  0.00     0.159 HD
HETATM   16  H           1     -36.801   1.234 -16.578  0.00  0.00     0.159 HD
ENDBRANCH  11  12
ENDBRANCH   1  11
BRANCH   1  17
HETATM   17  C           1     -34.694  -1.624 -12.319  0.00  0.00     0.197 C 
HETATM   18  O           1     -33.978  -1.548 -11.296  0.00  0.00    -0.646 OA
HETATM   19  O           1     -34.521  -2.556 -13.135  0.00  0.00    -0.646 OA
ENDBRANCH   1  17
TORSDOF 6
ENDMDL
MODEL 6
REMARK VINA RESULT:      -5.6     11.624     13.144
REMARK  6 active torsions:
REMARK  status: ('A' for Active; 'I' for Inactive)
REMARK       I    between atoms: C_6  and  N_9 
REMARK    1  A    between atoms: C_6  and  C_10 
REMARK       I    between atoms: C_7  and  N_8 
REMARK    2  A    between atoms: C_7  and  C_15 
REMARK    3  A    between atoms: N_9  and  C_14 
REMARK    4  A    between atoms: C_10  and  N_16 
REMARK    5  A    between atoms: C_14  and  C_15 
REMARK    6  A    between atoms: C_14  and  C_18 
ROOT
HETATM    1  C           1     -35.470  -1.700 -12.137  0.00  0.00     0.194 C 
ENDROOT
BRANCH   1   2
HETATM    2  N           1     -35.039  -0.538 -12.888  0.00  0.00    -0.345 N 
HETATM    3  H           1     -34.255   0.013 -12.563  0.00  0.00     0.163 HD
HETATM    4  C           1     -35.694  -0.184 -14.037  0.00  0.00     0.243 C 
HETATM    5  O           1     -36.630  -0.842 -14.425  0.00  0.00    -0.272 OA
BRANCH   4   6
HETATM    6  C           1     -35.247   1.027 -14.818  0.00  0.00     0.332 C 
BRANCH   6   7
HETATM    7  N           1     -36.322   1.423 -15.787  0.00  0.00    -0.071 N 
HETATM    8  H           1     -37.258   1.225 -15.368  0.00  0.00     0.274 HD
HETATM    9  H           1     -36.242   2.443 -15.998  0.00  0.00     0.274 HD
HETATM   10  H           1     -36.215   0.875 -16.670  0.00  0.00     0.274 HD
ENDBRANCH   6   7
ENDBRANCH   4   6
ENDBRANCH   1   2
BRANCH   1  11
HETATM   11  C           1     -34.249  -2.476 -11.659  0.00  0.00     0.138 C 
BRANCH  11  12
HETATM   12  C           1     -33.876  -3.513 -12.688  0.00  0.00     0.217 C 
HETATM   13  O           1     -34.365  -3.472 -13.792  0.00  0.00    -0.274 OA
HETATM   14  N           1     -32.983  -4.502 -12.373  0.00  0.00    -0.370 N 
HETATM   15  H           1     -32.573  -4.537 -11.448  0.00  0.00     0.159 HD
HETATM   16  H           1     -32.733  -5.198 -13.064  0.00  0.00     0.159 HD
ENDBRANCH  11  12
ENDBRANCH   1  11
BRANCH   1  17
HETATM   17  C           1     -36.282  -1.257 -10.946  0.00  0.00     0.197 C 
HETATM   18  O           1     -35.707  -0.863  -9.908  0.00  0.00    -0.646 OA
HETATM   19  O           1     -37.532  -1.282 -10.997  0.00  0.00    -0.646 OA
ENDBRANCH   1  17
TORSDOF 6
ENDMDL
MODEL 7
REMARK VINA RESULT:      -5.6      7.764      9.206
REMARK  6 active torsions:
REMARK  status: ('A' for Active; 'I' for Inactive)
REMARK       I    between atoms: C_6  and  N_9 
REMARK    1  A    between atoms: C_6  and  C_10 
REMARK       I    between atoms: C_7  and  N_8 
REMARK    2  A    between atoms: C_7  and  C_15 
REMARK    3  A    between atoms: N_9  and  C_14 
REMARK    4  A    between atoms: C_10  and  N_16 
REMARK    5  A    between atoms: C_14  and  C_15 
REMARK    6  A    between atoms: C_14  and  C_18 
ROOT
HETATM    1  C           1     -28.721  -6.801 -16.596  0.00  0.00     0.194 C 
ENDROOT
BRANCH   1   2
HETATM    2  N           1     -27.462  -7.180 -15.984  0.00  0.00    -0.345 N 
HETATM    3  H           1     -27.441  -7.903 -15.276  0.00  0.00     0.163 HD
HETATM    4  C           1     -26.303  -6.559 -16.362  0.00  0.00     0.243 C 
HETATM    5  O           1     -26.328  -5.696 -17.207  0.00  0.00    -0.272 OA
BRANCH   4   6
HETATM    6  C           1     -24.993  -6.953 -15.724  0.00  0.00     0.332 C 
BRANCH   6   7
HETATM    7  N           1     -24.200  -7.789 -16.685  0.00  0.00    -0.071 N 
HETATM    8  H           1     -24.783  -8.594 -17.009  0.00  0.00     0.274 HD
HETATM    9  H           1     -23.921  -7.206 -17.506  0.00  0.00     0.274 HD
HETATM   10  H           1     -23.344  -8.151 -16.208  0.00  0.00     0.274 HD
ENDBRANCH   6   7
ENDBRANCH   4   6
ENDBRANCH   1   2
BRANCH   1  11
HETATM   11  C           1     -29.525  -8.053 -16.920  0.00  0.00     0.138 C 
BRANCH  11  12
HETATM   12  C           1     -30.182  -7.896 -18.268  0.00  0.00     0.217 C 
HETATM   13  O           1     -29.826  -8.581 -19.197  0.00  0.00    -0.274 OA
HETATM   14  N           1     -31.182  -6.976 -18.440  0.00  0.00    -0.370 N 
HETATM   15  H           1     -31.480  -6.402 -17.662  0.00  0.00     0.159 HD
HETATM   16  H           1     -31.622  -6.871 -19.345  0.00  0.00     0.159 HD
ENDBRANCH  11  12
ENDBRANCH   1  11
BRANCH   1  17
HETATM   17  C           1     -29.503  -5.933 -15.642  0.00  0.00     0.197 C 
HETATM   18  O           1     -29.233  -5.946 -14.421  0.00  0.00    -0.646 OA
HETATM   19  O           1     -30.420  -5.200 -16.071  0.00  0.00    -0.646 OA
ENDBRANCH   1  17
TORSDOF 6
ENDMDL
MODEL 8
REMARK VINA RESULT:      -5.6     11.655     13.408
REMARK  6 active torsions:
REMARK  status: ('A' for Active; 'I' for Inactive)
REMARK       I    between atoms: C_6  and  N_9 
REMARK    1  A    between atoms: C_6  and  C_10 
REMARK       I    between atoms: C_7  and  N_8 
REMARK    2  A    between atoms: C_7  and  C_15 
REMARK    3  A    between atoms: N_9  and  C_14 
REMARK    4  A    between atoms: C_10  and  N_16 
REMARK    5  A    between atoms: C_14  and  C_15 
REMARK    6  A    between atoms: C_14  and  C_18 
ROOT
HETATM    1  C           1     -34.951  -0.360 -12.443  0.00  0.00     0.194 C 
ENDROOT
BRANCH   1   2
HETATM    2  N           1     -34.930  -1.688 -13.024  0.00  0.00    -0.345 N 
HETATM    3  H           1     -35.409  -1.865 -13.898  0.00  0.00     0.163 HD
HETATM    4  C           1     -34.265  -2.702 -12.390  0.00  0.00     0.243 C 
HETATM    5  O           1     -33.693  -2.490 -11.348  0.00  0.00    -0.272 OA
BRANCH   4   6
HETATM    6  C           1     -34.244  -4.085 -12.995  0.00  0.00     0.332 C 
BRANCH   6   7
HETATM    7  N           1     -33.840  -3.995 -14.437  0.00  0.00    -0.071 N 
HETATM    8  H           1     -34.034  -3.032 -14.793  0.00  0.00     0.274 HD
HETATM    9  H           1     -32.820  -4.201 -14.526  0.00  0.00     0.274 HD
HETATM   10  H           1     -34.386  -4.688 -14.996  0.00  0.00     0.274 HD
ENDBRANCH   6   7
ENDBRANCH   4   6
ENDBRANCH   1   2
BRANCH   1  11
HETATM   11  C           1     -34.826   0.680 -13.550  0.00  0.00     0.138 C 
BRANCH  11  12
HETATM   12  C           1     -35.553   0.196 -14.780  0.00  0.00     0.217 C 
HETATM   13  O           1     -34.990  -0.524 -15.570  0.00  0.00    -0.274 OA
HETATM   14  N           1     -36.850   0.573 -15.002  0.00  0.00    -0.370 N 
HETATM   15  H           1     -37.322   1.177 -14.341  0.00  0.00     0.159 HD
HETATM   16  H           1     -37.337   0.249 -15.828  0.00  0.00     0.159 HD
ENDBRANCH  11  12
ENDBRANCH   1  11
BRANCH   1  17
HETATM   17  C           1     -36.249  -0.154 -11.704  0.00  0.00     0.197 C 
HETATM   18  O           1     -37.304  -0.668 -12.137  0.00  0.00    -0.646 OA
HETATM   19  O           1     -36.271   0.528 -10.656  0.00  0.00    -0.646 OA
ENDBRANCH   1  17
TORSDOF 6
ENDMDL
MODEL 9
REMARK VINA RESULT:      -5.5      6.937      7.908
REMARK  6 active torsions:
REMARK  status: ('A' for Active; 'I' for Inactive)
REMARK       I    between atoms: C_6  and  N_9 
REMARK    1  A    between atoms: C_6  and  C_10 
REMARK       I    between atoms: C_7  and  N_8 
REMARK    2  A    between atoms: C_7  and  C_15 
REMARK    3  A    between atoms: N_9  and  C_14 
REMARK    4  A    between atoms: C_10  and  N_16 
REMARK    5  A    between atoms: C_14  and  C_15 
REMARK    6  A    between atoms: C_14  and  C_18 
ROOT
HETATM    1  C           1     -26.731  -6.266 -16.596  0.00  0.00     0.194 C 
ENDROOT
BRANCH   1   2
HETATM    2  N           1     -26.377  -6.675 -17.941  0.00  0.00    -0.345 N 
HETATM    3  H           1     -25.587  -7.289 -18.091  0.00  0.00     0.163 HD
HETATM    4  C           1     -27.111  -6.230 -19.007  0.00  0.00     0.243 C 
HETATM    5  O           1     -28.054  -5.497 -18.827  0.00  0.00    -0.272 OA
BRANCH   4   6
HETATM    6  C           1     -26.742  -6.656 -20.407  0.00  0.00     0.332 C 
BRANCH   6   7
HETATM    7  N           1     -27.166  -8.078 -20.626  0.00  0.00    -0.071 N 
HETATM    8  H           1     -26.405  -8.721 -20.309  0.00  0.00     0.274 HD
HETATM    9  H           1     -28.036  -8.270 -20.079  0.00  0.00     0.274 HD
HETATM   10  H           1     -27.352  -8.235 -21.642  0.00  0.00     0.274 HD
ENDBRANCH   6   7
ENDBRANCH   4   6
ENDBRANCH   1   2
BRANCH   1  11
HETATM   11  C           1     -27.863  -7.143 -16.079  0.00  0.00     0.138 C 
BRANCH  11  12
HETATM   12  C           1     -29.095  -6.300 -15.860  0.00  0.00     0.217 C 
HETATM   13  O           1     -29.169  -5.579 -14.893  0.00  0.00    -0.274 OA
HETATM   14  N           1     -30.129  -6.350 -16.756  0.00  0.00    -0.370 N 
HETATM   15  H           1     -30.067  -6.954 -17.566  0.00  0.00     0.159 HD
HETATM   16  H           1     -30.954  -5.784 -16.608  0.00  0.00     0.159 HD
ENDBRANCH  11  12
ENDBRANCH   1  11
BRANCH   1  17
HETATM   17  C           1     -25.530  -6.410 -15.694  0.00  0.00     0.197 C 
HETATM   18  O           1     -25.116  -7.548 -15.382  0.00  0.00    -0.646 OA
HETATM   19  O           1     -24.948  -5.392 -15.259  0.00  0.00    -0.646 OA
ENDBRANCH   1  17
TORSDOF 6
ENDMDL
