MODEL 1
REMARK VINA RESULT:      -6.0      0.000      0.000
REMARK  5 active torsions:
REMARK  status: ('A' for Active; 'I' for Inactive)
REMARK    1  A    between atoms: C_1  and  C_3 
REMARK    2  A    between atoms: C_1  and  C_4 
REMARK    3  A    between atoms: C_1  and  N_13 
REMARK       I    between atoms: C_3  and  N_11 
REMARK    4  A    between atoms: C_7  and  C_12 
REMARK    5  A    between atoms: N_11  and  C_12 
ROOT
HETATM    1  C           1     -23.026  -3.480  -9.571  0.00  0.00     0.278 C 
ENDROOT
BRANCH   1   2
HETATM    2  C           1     -23.433  -3.991 -10.932  0.00  0.00     0.249 C 
HETATM    3  N           1     -23.419  -3.150 -12.011  0.00  0.00    -0.349 N 
HETATM    4  H           1     -23.136  -2.185 -11.898  0.00  0.00     0.163 HD
HETATM    5  O           1     -23.770  -5.143 -11.069  0.00  0.00    -0.271 OA
BRANCH   3   6
HETATM    6  C           1     -23.810  -3.641 -13.319  0.00  0.00     0.235 C 
BRANCH   6   7
HETATM    7  C           1     -23.461  -2.614 -14.368  0.00  0.00     0.191 C 
HETATM    8  O           1     -24.094  -1.537 -14.422  0.00  0.00    -0.647 OA
HETATM    9  O           1     -22.541  -2.840 -15.183  0.00  0.00    -0.647 OA
ENDBRANCH   6   7
ENDBRANCH   3   6
ENDBRANCH   1   2
BRANCH   1  10
HETATM   10  C           1     -21.863  -4.311  -9.043  0.00  0.00     0.017 C 
HETATM   11  C           1     -20.637  -4.082  -9.917  0.00  0.00     0.012 C 
HETATM   12  C           1     -21.551  -3.893  -7.612  0.00  0.00     0.012 C 
ENDBRANCH   1  10
BRANCH   1  13
HETATM   13  N           1     -24.187  -3.592  -8.629  0.00  0.00    -0.066 N 
HETATM   14  H           1     -25.005  -4.006  -9.131  0.00  0.00     0.275 HD
HETATM   15  H           1     -23.925  -4.204  -7.824  0.00  0.00     0.275 HD
HETATM   16  H           1     -24.441  -2.641  -8.276  0.00  0.00     0.275 HD
ENDBRANCH   1  13
TORSDOF 5
ENDMDL
MODEL 2
REMARK VINA RESULT:      -5.5      1.767      2.152
REMARK  5 active torsions:
REMARK  status: ('A' for Active; 'I' for Inactive)
REMARK    1  A    between atoms: C_1  and  C_3 
REMARK    2  A    between atoms: C_1  and  C_4 
REMARK    3  A    between atoms: C_1  and  N_13 
REMARK       I    between atoms: C_3  and  N_11 
REMARK    4  A    between atoms: C_7  and  C_12 
REMARK    5  A    between atoms: N_11  and  C_12 
ROOT
HETATM    1  C           1     -22.125  -4.005  -8.240  0.00  0.00     0.278 C 
ENDROOT
BRANCH   1   2
HETATM    2  C           1     -22.273  -4.188  -9.731  0.00  0.00     0.249 C 
HETATM    3  N           1     -23.518  -4.327 -10.283  0.00  0.00    -0.349 N 
HETATM    4  H           1     -24.339  -4.308  -9.692  0.00  0.00     0.163 HD
HETATM    5  O           1     -21.293  -4.210 -10.437  0.00  0.00    -0.271 OA
BRANCH   3   6
HETATM    6  C           1     -23.660  -4.502 -11.715  0.00  0.00     0.235 C 
BRANCH   6   7
HETATM    7  C           1     -24.071  -3.194 -12.345  0.00  0.00     0.191 C 
HETATM    8  O           1     -25.280  -2.949 -12.545  0.00  0.00    -0.647 OA
HETATM    9  O           1     -23.202  -2.355 -12.666  0.00  0.00    -0.647 OA
ENDBRANCH   6   7
ENDBRANCH   3   6
ENDBRANCH   1   2
BRANCH   1  10
HETATM   10  C           1     -21.149  -5.041  -7.695  0.00  0.00     0.017 C 
HETATM   11  C           1     -19.788  -4.394  -7.480  0.00  0.00     0.012 C 
HETATM   12  C           1     -21.670  -5.580  -6.369  0.00  0.00     0.012 C 
ENDBRANCH   1  10
BRANCH   1  13
HETATM   13  N           1     -23.460  -4.182  -7.580  0.00  0.00    -0.066 N 
HETATM   14  H           1     -23.709  -3.312  -7.058  0.00  0.00     0.275 HD
HETATM   15  H           1     -24.186  -4.372  -8.307  0.00  0.00     0.275 HD
HETATM   16  H           1     -23.415  -4.987  -6.915  0.00  0.00     0.275 HD
ENDBRANCH   1  13
TORSDOF 5
ENDMDL
MODEL 3
REMARK VINA RESULT:      -5.4      1.972      2.297
REMARK  5 active torsions:
REMARK  status: ('A' for Active; 'I' for Inactive)
REMARK    1  A    between atoms: C_1  and  C_3 
REMARK    2  A    between atoms: C_1  and  C_4 
REMARK    3  A    between atoms: C_1  and  N_13 
REMARK       I    between atoms: C_3  and  N_11 
REMARK    4  A    between atoms: C_7  and  C_12 
REMARK    5  A    between atoms: N_11  and  C_12 
ROOT
HETATM    1  C           1     -21.675  -4.381 -10.089  0.00  0.00     0.278 C 
ENDROOT
BRANCH   1   2
HETATM    2  C           1     -21.728  -3.554 -11.350  0.00  0.00     0.249 C 
HETATM    3  N           1     -22.549  -3.928 -12.380  0.00  0.00    -0.349 N 
HETATM    4  H           1     -23.120  -4.759 -12.296  0.00  0.00     0.163 HD
HETATM    5  O           1     -21.046  -2.562 -11.451  0.00  0.00    -0.271 OA
BRANCH   3   6
HETATM    6  C           1     -22.599  -3.133 -13.592  0.00  0.00     0.235 C 
BRANCH   6   7
HETATM    7  C           1     -23.948  -2.465 -13.701  0.00  0.00     0.191 C 
HETATM    8  O           1     -24.881  -2.814 -12.946  0.00  0.00    -0.647 OA
HETATM    9  O           1     -24.132  -1.562 -14.545  0.00  0.00    -0.647 OA
ENDBRANCH   6   7
ENDBRANCH   3   6
ENDBRANCH   1   2
BRANCH   1  10
HETATM   10  C           1     -22.426  -3.660  -8.976  0.00  0.00     0.017 C 
HETATM   11  C           1     -23.896  -4.055  -9.016  0.00  0.00     0.012 C 
HETATM   12  C           1     -21.832  -4.051  -7.629  0.00  0.00     0.012 C 
ENDBRANCH   1  10
BRANCH   1  13
HETATM   13  N           1     -20.246  -4.578  -9.681  0.00  0.00    -0.066 N 
HETATM   14  H           1     -20.211  -5.015  -8.732  0.00  0.00     0.275 HD
HETATM   15  H           1     -19.770  -5.203 -10.369  0.00  0.00     0.275 HD
HETATM   16  H           1     -19.761  -3.653  -9.656  0.00  0.00     0.275 HD
ENDBRANCH   1  13
TORSDOF 5
ENDMDL
MODEL 4
REMARK VINA RESULT:      -5.1      3.925      6.659
REMARK  5 active torsions:
REMARK  status: ('A' for Active; 'I' for Inactive)
REMARK    1  A    between atoms: C_1  and  C_3 
REMARK    2  A    between atoms: C_1  and  C_4 
REMARK    3  A    between atoms: C_1  and  N_13 
REMARK       I    between atoms: C_3  and  N_11 
REMARK    4  A    between atoms: C_7  and  C_12 
REMARK    5  A    between atoms: N_11  and  C_12 
ROOT
HETATM    1  C           1     -22.647  -4.400  -8.926  0.00  0.00     0.278 C 
ENDROOT
BRANCH   1   2
HETATM    2  C           1     -21.819  -4.419  -7.663  0.00  0.00     0.249 C 
HETATM    3  N           1     -21.471  -5.612  -7.091  0.00  0.00    -0.349 N 
HETATM    4  H           1     -21.767  -6.482  -7.513  0.00  0.00     0.163 HD
HETATM    5  O           1     -21.464  -3.380  -7.158  0.00  0.00    -0.271 OA
BRANCH   3   6
HETATM    6  C           1     -20.675  -5.629  -5.878  0.00  0.00     0.235 C 
BRANCH   6   7
HETATM    7  C           1     -21.551  -5.997  -4.706  0.00  0.00     0.191 C 
HETATM    8  O           1     -21.069  -6.034  -3.553  0.00  0.00    -0.647 OA
HETATM    9  O           1     -22.759  -6.264  -4.887  0.00  0.00    -0.647 OA
ENDBRANCH   6   7
ENDBRANCH   3   6
ENDBRANCH   1   2
BRANCH   1  10
HETATM   10  C           1     -21.921  -3.597  -9.998  0.00  0.00     0.017 C 
HETATM   11  C           1     -20.680  -4.356 -10.449  0.00  0.00     0.012 C 
HETATM   12  C           1     -22.848  -3.388 -11.188  0.00  0.00     0.012 C 
ENDBRANCH   1  10
BRANCH   1  13
HETATM   13  N           1     -23.976  -3.766  -8.641  0.00  0.00    -0.066 N 
HETATM   14  H           1     -23.832  -2.780  -8.328  0.00  0.00     0.275 HD
HETATM   15  H           1     -24.559  -3.775  -9.508  0.00  0.00     0.275 HD
HETATM   16  H           1     -24.463  -4.303  -7.889  0.00  0.00     0.275 HD
ENDBRANCH   1  13
TORSDOF 5
ENDMDL
MODEL 5
REMARK VINA RESULT:      -5.1      2.988      5.514
REMARK  5 active torsions:
REMARK  status: ('A' for Active; 'I' for Inactive)
REMARK    1  A    between atoms: C_1  and  C_3 
REMARK    2  A    between atoms: C_1  and  C_4 
REMARK    3  A    between atoms: C_1  and  N_13 
REMARK       I    between atoms: C_3  and  N_11 
REMARK    4  A    between atoms: C_7  and  C_12 
REMARK    5  A    between atoms: N_11  and  C_12 
ROOT
HETATM    1  C           1     -22.003  -3.263 -11.384  0.00  0.00     0.278 C 
ENDROOT
BRANCH   1   2
HETATM    2  C           1     -21.092  -3.971 -10.411  0.00  0.00     0.249 C 
HETATM    3  N           1     -21.282  -3.822  -9.064  0.00  0.00    -0.349 N 
HETATM    4  H           1     -22.032  -3.237  -8.719  0.00  0.00     0.163 HD
HETATM    5  O           1     -20.196  -4.670 -10.821  0.00  0.00    -0.271 OA
BRANCH   3   6
HETATM    6  C           1     -20.406  -4.503  -8.129  0.00  0.00     0.235 C 
BRANCH   6   7
HETATM    7  C           1     -21.221  -5.425  -7.255  0.00  0.00     0.191 C 
HETATM    8  O           1     -22.256  -5.003  -6.696  0.00  0.00    -0.647 OA
HETATM    9  O           1     -20.861  -6.611  -7.092  0.00  0.00    -0.647 OA
ENDBRANCH   6   7
ENDBRANCH   3   6
ENDBRANCH   1   2
BRANCH   1  10
HETATM   10  C           1     -23.454  -3.586 -11.050  0.00  0.00     0.017 C 
HETATM   11  C           1     -24.363  -3.018 -12.132  0.00  0.00     0.012 C 
HETATM   12  C           1     -23.633  -5.097 -10.979  0.00  0.00     0.012 C 
ENDBRANCH   1  10
BRANCH   1  13
HETATM   13  N           1     -21.697  -3.723 -12.778  0.00  0.00    -0.066 N 
HETATM   14  H           1     -22.158  -3.084 -13.465  0.00  0.00     0.275 HD
HETATM   15  H           1     -20.664  -3.711 -12.931  0.00  0.00     0.275 HD
HETATM   16  H           1     -22.058  -4.695 -12.911  0.00  0.00     0.275 HD
ENDBRANCH   1  13
TORSDOF 5
ENDMDL
MODEL 6
REMARK VINA RESULT:      -5.1      2.676      4.113
REMARK  5 active torsions:
REMARK  status: ('A' for Active; 'I' for Inactive)
REMARK    1  A    between atoms: C_1  and  C_3 
REMARK    2  A    between atoms: C_1  and  C_4 
REMARK    3  A    between atoms: C_1  and  N_13 
REMARK       I    between atoms: C_3  and  N_11 
REMARK    4  A    between atoms: C_7  and  C_12 
REMARK    5  A    between atoms: N_11  and  C_12 
ROOT
HETATM    1  C           1     -21.131  -5.835  -7.448  0.00  0.00     0.278 C 
ENDROOT
BRANCH   1   2
HETATM    2  C           1     -21.335  -4.823  -8.550  0.00  0.00     0.249 C 
HETATM    3  N           1     -22.600  -4.422  -8.885  0.00  0.00    -0.349 N 
HETATM    4  H           1     -23.399  -4.803  -8.394  0.00  0.00     0.163 HD
HETATM    5  O           1     -20.382  -4.368  -9.136  0.00  0.00    -0.271 OA
BRANCH   3   6
HETATM    6  C           1     -22.796  -3.450  -9.944  0.00  0.00     0.235 C 
BRANCH   6   7
HETATM    7  C           1     -24.204  -3.560 -10.475  0.00  0.00     0.191 C 
HETATM    8  O           1     -24.525  -2.960 -11.524  0.00  0.00    -0.647 OA
HETATM    9  O           1     -25.050  -4.249  -9.866  0.00  0.00    -0.647 OA
ENDBRANCH   6   7
ENDBRANCH   3   6
ENDBRANCH   1   2
BRANCH   1  10
HETATM   10  C           1     -21.494  -5.207  -6.109  0.00  0.00     0.017 C 
HETATM   11  C           1     -22.129  -6.260  -5.210  0.00  0.00     0.012 C 
HETATM   12  C           1     -20.234  -4.666  -5.445  0.00  0.00     0.012 C 
ENDBRANCH   1  10
BRANCH   1  13
HETATM   13  N           1     -19.695  -6.264  -7.426  0.00  0.00    -0.066 N 
HETATM   14  H           1     -19.412  -6.484  -6.444  0.00  0.00     0.275 HD
HETATM   15  H           1     -19.576  -7.115  -8.021  0.00  0.00     0.275 HD
HETATM   16  H           1     -19.095  -5.493  -7.797  0.00  0.00     0.275 HD
ENDBRANCH   1  13
TORSDOF 5
ENDMDL
MODEL 7
REMARK VINA RESULT:      -5.1      2.903      5.566
REMARK  5 active torsions:
REMARK  status: ('A' for Active; 'I' for Inactive)
REMARK    1  A    between atoms: C_1  and  C_3 
REMARK    2  A    between atoms: C_1  and  C_4 
REMARK    3  A    between atoms: C_1  and  N_13 
REMARK       I    between atoms: C_3  and  N_11 
REMARK    4  A    between atoms: C_7  and  C_12 
REMARK    5  A    between atoms: N_11  and  C_12 
ROOT
HETATM    1  C           1     -23.684  -4.269 -10.514  0.00  0.00     0.278 C 
ENDROOT
BRANCH   1   2
HETATM    2  C           1     -22.552  -4.326  -9.518  0.00  0.00     0.249 C 
HETATM    3  N           1     -22.769  -3.974  -8.213  0.00  0.00    -0.349 N 
HETATM    4  H           1     -23.689  -3.675  -7.916  0.00  0.00     0.163 HD
HETATM    5  O           1     -21.453  -4.682  -9.872  0.00  0.00    -0.271 OA
BRANCH   3   6
HETATM    6  C           1     -21.680  -4.028  -7.257  0.00  0.00     0.235 C 
BRANCH   6   7
HETATM    7  C           1     -21.652  -5.388  -6.602  0.00  0.00     0.191 C 
HETATM    8  O           1     -22.390  -5.623  -5.620  0.00  0.00    -0.647 OA
HETATM    9  O           1     -20.892  -6.277  -7.041  0.00  0.00    -0.647 OA
ENDBRANCH   6   7
ENDBRANCH   3   6
ENDBRANCH   1   2
BRANCH   1  10
HETATM   10  C           1     -23.551  -3.012 -11.364  0.00  0.00     0.017 C 
HETATM   11  C           1     -22.163  -2.966 -11.989  0.00  0.00     0.012 C 
HETATM   12  C           1     -24.603  -3.032 -12.466  0.00  0.00     0.012 C 
ENDBRANCH   1  10
BRANCH   1  13
HETATM   13  N           1     -24.992  -4.239  -9.781  0.00  0.00    -0.066 N 
HETATM   14  H           1     -25.250  -3.249  -9.568  0.00  0.00     0.275 HD
HETATM   15  H           1     -25.735  -4.672 -10.375  0.00  0.00     0.275 HD
HETATM   16  H           1     -24.903  -4.776  -8.889  0.00  0.00     0.275 HD
ENDBRANCH   1  13
TORSDOF 5
ENDMDL
MODEL 8
REMARK VINA RESULT:      -5.0      2.628      3.627
REMARK  5 active torsions:
REMARK  status: ('A' for Active; 'I' for Inactive)
REMARK    1  A    between atoms: C_1  and  C_3 
REMARK    2  A    between atoms: C_1  and  C_4 
REMARK    3  A    between atoms: C_1  and  N_13 
REMARK       I    between atoms: C_3  and  N_11 
REMARK    4  A    between atoms: C_7  and  C_12 
REMARK    5  A    between atoms: N_11  and  C_12 
ROOT
HETATM    1  C           1     -21.381  -4.408  -6.662  0.00  0.00     0.278 C 
ENDROOT
BRANCH   1   2
HETATM    2  C           1     -22.740  -4.304  -7.312  0.00  0.00     0.249 C 
HETATM    3  N           1     -22.854  -3.810  -8.583  0.00  0.00    -0.349 N 
HETATM    4  H           1     -22.028  -3.515  -9.088  0.00  0.00     0.163 HD
HETATM    5  O           1     -23.726  -4.657  -6.710  0.00  0.00    -0.271 OA
BRANCH   3   6
HETATM    6  C           1     -24.160  -3.710  -9.208  0.00  0.00     0.235 C 
BRANCH   6   7
HETATM    7  C           1     -23.998  -3.297 -10.650  0.00  0.00     0.191 C 
HETATM    8  O           1     -25.007  -3.147 -11.373  0.00  0.00    -0.647 OA
HETATM    9  O           1     -22.857  -3.105 -11.121  0.00  0.00    -0.647 OA
ENDBRANCH   6   7
ENDBRANCH   3   6
ENDBRANCH   1   2
BRANCH   1  10
HETATM   10  C           1     -20.412  -5.093  -7.617  0.00  0.00     0.017 C 
HETATM   11  C           1     -19.362  -4.091  -8.080  0.00  0.00     0.012 C 
HETATM   12  C           1     -19.728  -6.250  -6.901  0.00  0.00     0.012 C 
ENDBRANCH   1  10
BRANCH   1  13
HETATM   13  N           1     -21.492  -5.213  -5.402  0.00  0.00    -0.066 N 
HETATM   14  H           1     -20.866  -4.805  -4.672  0.00  0.00     0.275 HD
HETATM   15  H           1     -22.480  -5.196  -5.062  0.00  0.00     0.275 HD
HETATM   16  H           1     -21.207  -6.200  -5.593  0.00  0.00     0.275 HD
ENDBRANCH   1  13
TORSDOF 5
ENDMDL
MODEL 9
REMARK VINA RESULT:      -4.8     16.353     17.894
REMARK  5 active torsions:
REMARK  status: ('A' for Active; 'I' for Inactive)
REMARK    1  A    between atoms: C_1  and  C_3 
REMARK    2  A    between atoms: C_1  and  C_4 
REMARK    3  A    between atoms: C_1  and  N_13 
REMARK       I    between atoms: C_3  and  N_11 
REMARK    4  A    between atoms: C_7  and  C_12 
REMARK    5  A    between atoms: N_11  and  C_12 
ROOT
HETATM    1  C           1     -12.003   4.876 -21.358  0.00  0.00     0.278 C 
ENDROOT
BRANCH   1   2
HETATM    2  C           1     -12.074   5.975 -20.326  0.00  0.00     0.249 C 
HETATM    3  N           1     -12.141   7.283 -20.722  0.00  0.00    -0.349 N 
HETATM    4  H           1     -12.143   7.515 -21.707  0.00  0.00     0.163 HD
HETATM    5  O           1     -12.073   5.699 -19.149  0.00  0.00    -0.271 OA
BRANCH   3   6
HETATM    6  C           1     -12.210   8.338 -19.729  0.00  0.00     0.235 C 
BRANCH   6   7
HETATM    7  C           1     -10.839   8.937 -19.534  0.00  0.00     0.191 C 
HETATM    8  O           1     -10.207   8.719 -18.478  0.00  0.00    -0.647 OA
HETATM    9  O           1     -10.336   9.651 -20.428  0.00  0.00    -0.647 OA
ENDBRANCH   6   7
ENDBRANCH   3   6
ENDBRANCH   1   2
BRANCH   1  10
HETATM   10  C           1     -12.324   3.539 -20.702  0.00  0.00     0.017 C 
HETATM   11  C           1     -13.396   2.821 -21.510  0.00  0.00     0.012 C 
HETATM   12  C           1     -11.065   2.683 -20.654  0.00  0.00     0.012 C 
ENDBRANCH   1  10
BRANCH   1  13
HETATM   13  N           1     -10.622   4.827 -21.940  0.00  0.00    -0.066 N 
HETATM   14  H           1     -10.291   3.837 -21.972  0.00  0.00     0.275 HD
HETATM   15  H           1     -10.637   5.221 -22.908  0.00  0.00     0.275 HD
HETATM   16  H           1      -9.973   5.392 -21.345  0.00  0.00     0.275 HD
ENDBRANCH   1  13
TORSDOF 5
ENDMDL
