MODEL 1
REMARK VINA RESULT:      -7.7      0.000      0.000
REMARK  12 active torsions:
REMARK  status: ('A' for Active; 'I' for Inactive)
REMARK    1  A    between atoms: N_2  and  C_15 
REMARK    2  A    between atoms: O_7  and  P_8 
REMARK    3  A    between atoms: P_8  and  O_9 
REMARK    4  A    between atoms: O_9  and  C_10 
REMARK    5  A    between atoms: C_13  and  C_14 
REMARK    6  A    between atoms: C_14  and  C_15 
REMARK    7  A    between atoms: C_15  and  C_16 
REMARK       I    between atoms: C_16  and  N_17 
REMARK    8  A    between atoms: N_17  and  C_21 
REMARK    9  A    between atoms: C_20  and  C_21 
REMARK   10  A    between atoms: C_21  and  C_22 
REMARK   11  A    between atoms: C_22  and  C_23 
REMARK   12  A    between atoms: C_23  and  S_24 
ROOT
HETATM    1  C           1     -20.991  -4.897  -6.396  0.00  0.00     0.278 C 
ENDROOT
BRANCH   1   2
HETATM    2  N           1     -19.699  -4.445  -5.781  0.00  0.00    -0.066 N 
HETATM    3  H           1     -19.300  -5.217  -5.200  0.00  0.00     0.275 HD
HETATM    4  H           1     -19.023  -4.192  -6.536  0.00  0.00     0.275 HD
HETATM    5  H           1     -19.874  -3.611  -5.176  0.00  0.00     0.275 HD
ENDBRANCH   1   2
BRANCH   1   6
HETATM    6  C           1     -20.706  -5.587  -7.724  0.00  0.00     0.081 C 
BRANCH   6   7
HETATM    7  C           1     -21.275  -4.772  -8.842  0.00  0.00    -0.056 A 
HETATM    8  C           1     -20.476  -4.431  -9.934  0.00  0.00     0.010 A 
HETATM    9  C           1     -21.007  -3.672 -10.976  0.00  0.00     0.038 A 
HETATM   10  C           1     -22.336  -3.253 -10.928  0.00  0.00     0.081 A 
HETATM   11  C           1     -23.134  -3.592  -9.836  0.00  0.00     0.038 A 
HETATM   12  C           1     -22.605  -4.351  -8.793  0.00  0.00     0.010 A 
BRANCH  10  13
HETATM   13  O           1     -22.851  -2.515 -11.941  0.00  0.00    -0.247 OA
BRANCH  13  14
HETATM   14  P           1     -23.900  -3.227 -12.942  0.00  0.00     0.411 P 
HETATM   15  O           1     -23.650  -2.765 -14.326  0.00  0.00    -0.624 OA
HETATM   16  O           1     -25.280  -2.871 -12.543  0.00  0.00    -0.624 OA
BRANCH  14  17
HETATM   17  O           1     -23.714  -4.830 -12.867  0.00  0.00    -0.300 OA
HETATM   18  H           1     -24.313  -5.113 -12.199  0.00  0.00     0.223 HD
ENDBRANCH  14  17
ENDBRANCH  13  14
ENDBRANCH  10  13
ENDBRANCH   6   7
ENDBRANCH   1   6
BRANCH   1  19
HETATM   19  C           1     -21.680  -5.862  -5.464  0.00  0.00     0.249 C 
HETATM   20  O           1     -22.885  -5.953  -5.471  0.00  0.00    -0.271 OA
HETATM   21  N           1     -20.941  -6.636  -4.609  0.00  0.00    -0.345 N 
HETATM   22  H           1     -19.932  -6.560  -4.603  0.00  0.00     0.163 HD
BRANCH  21  23
HETATM   23  C           1     -21.605  -7.563  -3.713  0.00  0.00     0.186 C 
BRANCH  23  24
HETATM   24  C           1     -21.663  -6.968  -2.328  0.00  0.00     0.196 C 
HETATM   25  O           1     -22.312  -5.919  -2.124  0.00  0.00    -0.646 OA
HETATM   26  O           1     -21.060  -7.524  -1.384  0.00  0.00    -0.646 OA
ENDBRANCH  23  24
BRANCH  23  27
HETATM   27  C           1     -20.827  -8.872  -3.670  0.00  0.00     0.046 C 
BRANCH  27  28
HETATM   28  C           1     -19.503  -8.702  -4.402  0.00  0.00     0.076 C 
BRANCH  28  29
HETATM   29  S           1     -18.603 -10.279  -4.400  0.00  0.00    -0.173 SA
HETATM   30  C           1     -17.698  -9.992  -5.948  0.00  0.00     0.089 C 
ENDBRANCH  28  29
ENDBRANCH  27  28
ENDBRANCH  23  27
ENDBRANCH  21  23
ENDBRANCH   1  19
TORSDOF 12
ENDMDL
MODEL 2
REMARK VINA RESULT:      -7.6      1.141      2.048
REMARK  12 active torsions:
REMARK  status: ('A' for Active; 'I' for Inactive)
REMARK    1  A    between atoms: N_2  and  C_15 
REMARK    2  A    between atoms: O_7  and  P_8 
REMARK    3  A    between atoms: P_8  and  O_9 
REMARK    4  A    between atoms: O_9  and  C_10 
REMARK    5  A    between atoms: C_13  and  C_14 
REMARK    6  A    between atoms: C_14  and  C_15 
REMARK    7  A    between atoms: C_15  and  C_16 
REMARK       I    between atoms: C_16  and  N_17 
REMARK    8  A    between atoms: N_17  and  C_21 
REMARK    9  A    between atoms: C_20  and  C_21 
REMARK   10  A    between atoms: C_21  and  C_22 
REMARK   11  A    between atoms: C_22  and  C_23 
REMARK   12  A    between atoms: C_23  and  S_24 
ROOT
HETATM    1  C           1     -20.949  -4.910  -6.332  0.00  0.00     0.278 C 
ENDROOT
BRANCH   1   2
HETATM    2  N           1     -19.678  -4.443  -5.686  0.00  0.00    -0.066 N 
HETATM    3  H           1     -19.322  -3.597  -6.185  0.00  0.00     0.275 HD
HETATM    4  H           1     -19.864  -4.204  -4.685  0.00  0.00     0.275 HD
HETATM    5  H           1     -18.962  -5.203  -5.735  0.00  0.00     0.275 HD
ENDBRANCH   1   2
BRANCH   1   6
HETATM    6  C           1     -20.624  -5.583  -7.660  0.00  0.00     0.081 C 
BRANCH   6   7
HETATM    7  C           1     -21.204  -4.781  -8.782  0.00  0.00    -0.056 A 
HETATM    8  C           1     -22.528  -4.346  -8.717  0.00  0.00     0.010 A 
HETATM    9  C           1     -23.069  -3.598  -9.763  0.00  0.00     0.038 A 
HETATM   10  C           1     -22.286  -3.285 -10.874  0.00  0.00     0.081 A 
HETATM   11  C           1     -20.963  -3.720 -10.939  0.00  0.00     0.038 A 
HETATM   12  C           1     -20.421  -4.468  -9.894  0.00  0.00     0.010 A 
BRANCH  10  13
HETATM   13  O           1     -22.812  -2.558 -11.889  0.00  0.00    -0.247 OA
BRANCH  13  14
HETATM   14  P           1     -23.873  -3.281 -12.869  0.00  0.00     0.411 P 
HETATM   15  O           1     -23.648  -2.825 -14.259  0.00  0.00    -0.624 OA
HETATM   16  O           1     -25.248  -2.931 -12.450  0.00  0.00    -0.624 OA
BRANCH  14  17
HETATM   17  O           1     -23.677  -4.882 -12.790  0.00  0.00    -0.300 OA
HETATM   18  H           1     -23.836  -5.190 -13.665  0.00  0.00     0.223 HD
ENDBRANCH  14  17
ENDBRANCH  13  14
ENDBRANCH  10  13
ENDBRANCH   6   7
ENDBRANCH   1   6
BRANCH   1  19
HETATM   19  C           1     -21.642  -5.894  -5.424  0.00  0.00     0.249 C 
HETATM   20  O           1     -22.849  -5.944  -5.397  0.00  0.00    -0.271 OA
HETATM   21  N           1     -20.905  -6.731  -4.629  0.00  0.00    -0.345 N 
HETATM   22  H           1     -19.894  -6.689  -4.652  0.00  0.00     0.163 HD
BRANCH  21  23
HETATM   23  C           1     -21.572  -7.676  -3.756  0.00  0.00     0.186 C 
BRANCH  23  24
HETATM   24  C           1     -21.463  -7.203  -2.328  0.00  0.00     0.196 C 
HETATM   25  O           1     -20.582  -7.675  -1.577  0.00  0.00    -0.646 OA
HETATM   26  O           1     -22.256  -6.338  -1.894  0.00  0.00    -0.646 OA
ENDBRANCH  23  24
BRANCH  23  27
HETATM   27  C           1     -20.913  -9.044  -3.889  0.00  0.00     0.046 C 
BRANCH  27  28
HETATM   28  C           1     -21.962 -10.133  -3.713  0.00  0.00     0.076 C 
BRANCH  28  29
HETATM   29  S           1     -21.533 -11.161  -2.279  0.00  0.00    -0.173 SA
HETATM   30  C           1     -22.827 -10.518  -1.181  0.00  0.00     0.089 C 
ENDBRANCH  28  29
ENDBRANCH  27  28
ENDBRANCH  23  27
ENDBRANCH  21  23
ENDBRANCH   1  19
TORSDOF 12
ENDMDL
MODEL 3
REMARK VINA RESULT:      -7.2      2.416      3.163
REMARK  12 active torsions:
REMARK  status: ('A' for Active; 'I' for Inactive)
REMARK    1  A    between atoms: N_2  and  C_15 
REMARK    2  A    between atoms: O_7  and  P_8 
REMARK    3  A    between atoms: P_8  and  O_9 
REMARK    4  A    between atoms: O_9  and  C_10 
REMARK    5  A    between atoms: C_13  and  C_14 
REMARK    6  A    between atoms: C_14  and  C_15 
REMARK    7  A    between atoms: C_15  and  C_16 
REMARK       I    between atoms: C_16  and  N_17 
REMARK    8  A    between atoms: N_17  and  C_21 
REMARK    9  A    between atoms: C_20  and  C_21 
REMARK   10  A    between atoms: C_21  and  C_22 
REMARK   11  A    between atoms: C_22  and  C_23 
REMARK   12  A    between atoms: C_23  and  S_24 
ROOT
HETATM    1  C           1     -21.529  -6.511  -5.828  0.00  0.00     0.278 C 
ENDROOT
BRANCH   1   2
HETATM    2  N           1     -22.815  -6.072  -5.193  0.00  0.00    -0.066 N 
HETATM    3  H           1     -23.595  -6.685  -5.522  0.00  0.00     0.275 HD
HETATM    4  H           1     -22.732  -6.142  -4.154  0.00  0.00     0.275 HD
HETATM    5  H           1     -23.015  -5.081  -5.461  0.00  0.00     0.275 HD
ENDBRANCH   1   2
BRANCH   1   6
HETATM    6  C           1     -20.675  -5.289  -6.142  0.00  0.00     0.081 C 
BRANCH   6   7
HETATM    7  C           1     -21.060  -4.741  -7.480  0.00  0.00    -0.056 A 
HETATM    8  C           1     -20.200  -4.888  -8.568  0.00  0.00     0.010 A 
HETATM    9  C           1     -20.558  -4.378  -9.815  0.00  0.00     0.038 A 
HETATM   10  C           1     -21.777  -3.719  -9.975  0.00  0.00     0.081 A 
HETATM   11  C           1     -22.637  -3.570  -8.887  0.00  0.00     0.038 A 
HETATM   12  C           1     -22.279  -4.081  -7.639  0.00  0.00     0.010 A 
BRANCH  10  13
HETATM   13  O           1     -22.125  -3.223 -11.187  0.00  0.00    -0.247 OA
BRANCH  13  14
HETATM   14  P           1     -23.453  -3.809 -11.894  0.00  0.00     0.411 P 
HETATM   15  O           1     -24.628  -3.016 -11.469  0.00  0.00    -0.624 OA
HETATM   16  O           1     -23.640  -5.222 -11.498  0.00  0.00    -0.624 OA
BRANCH  14  17
HETATM   17  O           1     -23.295  -3.717 -13.499  0.00  0.00    -0.300 OA
HETATM   18  H           1     -22.377  -3.854 -13.661  0.00  0.00     0.223 HD
ENDBRANCH  14  17
ENDBRANCH  13  14
ENDBRANCH  10  13
ENDBRANCH   6   7
ENDBRANCH   1   6
BRANCH   1  19
HETATM   19  C           1     -20.784  -7.416  -4.880  0.00  0.00     0.249 C 
HETATM   20  O           1     -19.708  -7.867  -5.194  0.00  0.00    -0.271 OA
HETATM   21  N           1     -21.326  -7.728  -3.661  0.00  0.00    -0.345 N 
HETATM   22  H           1     -22.227  -7.350  -3.398  0.00  0.00     0.163 HD
BRANCH  21  23
HETATM   23  C           1     -20.610  -8.599  -2.750  0.00  0.00     0.186 C 
BRANCH  23  24
HETATM   24  C           1     -21.277  -9.952  -2.720  0.00  0.00     0.196 C 
HETATM   25  O           1     -22.178 -10.223  -3.543  0.00  0.00    -0.646 OA
HETATM   26  O           1     -20.928 -10.802  -1.872  0.00  0.00    -0.646 OA
ENDBRANCH  23  24
BRANCH  23  27
HETATM   27  C           1     -20.626  -7.995  -1.351  0.00  0.00     0.046 C 
BRANCH  27  28
HETATM   28  C           1     -21.975  -7.334  -1.098  0.00  0.00     0.076 C 
BRANCH  28  29
HETATM   29  S           1     -22.785  -8.134   0.315  0.00  0.00    -0.173 SA
HETATM   30  C           1     -21.259  -8.628   1.165  0.00  0.00     0.089 C 
ENDBRANCH  28  29
ENDBRANCH  27  28
ENDBRANCH  23  27
ENDBRANCH  21  23
ENDBRANCH   1  19
TORSDOF 12
ENDMDL
MODEL 4
REMARK VINA RESULT:      -7.1      4.381      9.394
REMARK  12 active torsions:
REMARK  status: ('A' for Active; 'I' for Inactive)
REMARK    1  A    between atoms: N_2  and  C_15 
REMARK    2  A    between atoms: O_7  and  P_8 
REMARK    3  A    between atoms: P_8  and  O_9 
REMARK    4  A    between atoms: O_9  and  C_10 
REMARK    5  A    between atoms: C_13  and  C_14 
REMARK    6  A    between atoms: C_14  and  C_15 
REMARK    7  A    between atoms: C_15  and  C_16 
REMARK       I    between atoms: C_16  and  N_17 
REMARK    8  A    between atoms: N_17  and  C_21 
REMARK    9  A    between atoms: C_20  and  C_21 
REMARK   10  A    between atoms: C_21  and  C_22 
REMARK   11  A    between atoms: C_22  and  C_23 
REMARK   12  A    between atoms: C_23  and  S_24 
ROOT
HETATM    1  C           1     -21.140  -5.431  -6.558  0.00  0.00     0.278 C 
ENDROOT
BRANCH   1   2
HETATM    2  N           1     -20.067  -4.805  -5.717  0.00  0.00    -0.066 N 
HETATM    3  H           1     -20.209  -5.069  -4.715  0.00  0.00     0.275 HD
HETATM    4  H           1     -19.132  -5.143  -6.037  0.00  0.00     0.275 HD
HETATM    5  H           1     -20.113  -3.765  -5.812  0.00  0.00     0.275 HD
ENDBRANCH   1   2
BRANCH   1   6
HETATM    6  C           1     -22.281  -5.894  -5.662  0.00  0.00     0.081 C 
BRANCH   6   7
HETATM    7  C           1     -21.737  -6.750  -4.561  0.00  0.00    -0.056 A 
HETATM    8  C           1     -21.200  -8.004  -4.853  0.00  0.00     0.010 A 
HETATM    9  C           1     -20.693  -8.801  -3.828  0.00  0.00     0.038 A 
HETATM   10  C           1     -20.722  -8.345  -2.510  0.00  0.00     0.081 A 
HETATM   11  C           1     -21.259  -7.092  -2.218  0.00  0.00     0.038 A 
HETATM   12  C           1     -21.767  -6.294  -3.243  0.00  0.00     0.010 A 
BRANCH  10  13
HETATM   13  O           1     -20.229  -9.120  -1.514  0.00  0.00    -0.247 OA
BRANCH  13  14
HETATM   14  P           1     -21.272  -9.748  -0.454  0.00  0.00     0.411 P 
HETATM   15  O           1     -21.407  -8.836   0.704  0.00  0.00    -0.624 OA
HETATM   16  O           1     -20.775 -11.063   0.008  0.00  0.00    -0.624 OA
BRANCH  14  17
HETATM   17  O           1     -22.713  -9.935  -1.161  0.00  0.00    -0.300 OA
HETATM   18  H           1     -22.819  -9.172  -1.702  0.00  0.00     0.223 HD
ENDBRANCH  14  17
ENDBRANCH  13  14
ENDBRANCH  10  13
ENDBRANCH   6   7
ENDBRANCH   1   6
BRANCH   1  19
HETATM   19  C           1     -21.656  -4.419  -7.549  0.00  0.00     0.249 C 
HETATM   20  O           1     -21.556  -3.238  -7.314  0.00  0.00    -0.271 OA
HETATM   21  N           1     -22.239  -4.837  -8.716  0.00  0.00    -0.345 N 
HETATM   22  H           1     -22.323  -5.826  -8.913  0.00  0.00     0.163 HD
BRANCH  21  23
HETATM   23  C           1     -22.736  -3.863  -9.668  0.00  0.00     0.186 C 
BRANCH  23  24
HETATM   24  C           1     -24.244  -3.874  -9.657  0.00  0.00     0.196 C 
HETATM   25  O           1     -24.877  -2.813  -9.464  0.00  0.00    -0.646 OA
HETATM   26  O           1     -24.862  -4.946  -9.839  0.00  0.00    -0.646 OA
ENDBRANCH  23  24
BRANCH  23  27
HETATM   27  C           1     -22.237  -4.216 -11.064  0.00  0.00     0.046 C 
BRANCH  27  28
HETATM   28  C           1     -22.409  -3.015 -11.984  0.00  0.00     0.076 C 
BRANCH  28  29
HETATM   29  S           1     -23.748  -3.344 -13.165  0.00  0.00    -0.173 SA
HETATM   30  C           1     -22.970  -2.518 -14.582  0.00  0.00     0.089 C 
ENDBRANCH  28  29
ENDBRANCH  27  28
ENDBRANCH  23  27
ENDBRANCH  21  23
ENDBRANCH   1  19
TORSDOF 12
ENDMDL
MODEL 5
REMARK VINA RESULT:      -6.9      1.939      2.645
REMARK  12 active torsions:
REMARK  status: ('A' for Active; 'I' for Inactive)
REMARK    1  A    between atoms: N_2  and  C_15 
REMARK    2  A    between atoms: O_7  and  P_8 
REMARK    3  A    between atoms: P_8  and  O_9 
REMARK    4  A    between atoms: O_9  and  C_10 
REMARK    5  A    between atoms: C_13  and  C_14 
REMARK    6  A    between atoms: C_14  and  C_15 
REMARK    7  A    between atoms: C_15  and  C_16 
REMARK       I    between atoms: C_16  and  N_17 
REMARK    8  A    between atoms: N_17  and  C_21 
REMARK    9  A    between atoms: C_20  and  C_21 
REMARK   10  A    between atoms: C_21  and  C_22 
REMARK   11  A    between atoms: C_22  and  C_23 
REMARK   12  A    between atoms: C_23  and  S_24 
ROOT
HETATM    1  C           1     -21.550  -6.492  -5.226  0.00  0.00     0.278 C 
ENDROOT
BRANCH   1   2
HETATM    2  N           1     -22.051  -5.965  -3.914  0.00  0.00    -0.066 N 
HETATM    3  H           1     -21.772  -6.616  -3.145  0.00  0.00     0.275 HD
HETATM    4  H           1     -21.638  -5.021  -3.737  0.00  0.00     0.275 HD
HETATM    5  H           1     -23.093  -5.889  -3.943  0.00  0.00     0.275 HD
ENDBRANCH   1   2
BRANCH   1   6
HETATM    6  C           1     -20.499  -5.543  -5.786  0.00  0.00     0.081 C 
BRANCH   6   7
HETATM    7  C           1     -20.983  -4.971  -7.082  0.00  0.00    -0.056 A 
HETATM    8  C           1     -20.166  -5.015  -8.212  0.00  0.00     0.010 A 
HETATM    9  C           1     -20.616  -4.483  -9.419  0.00  0.00     0.038 A 
HETATM   10  C           1     -21.884  -3.906  -9.498  0.00  0.00     0.081 A 
HETATM   11  C           1     -22.701  -3.862  -8.369  0.00  0.00     0.038 A 
HETATM   12  C           1     -22.251  -4.394  -7.160  0.00  0.00     0.010 A 
BRANCH  10  13
HETATM   13  O           1     -22.321  -3.389 -10.672  0.00  0.00    -0.247 OA
BRANCH  13  14
HETATM   14  P           1     -23.638  -4.039 -11.344  0.00  0.00     0.411 P 
HETATM   15  O           1     -24.810  -3.182 -11.056  0.00  0.00    -0.624 OA
HETATM   16  O           1     -23.863  -5.389 -10.783  0.00  0.00    -0.624 OA
BRANCH  14  17
HETATM   17  O           1     -23.430  -4.147 -12.942  0.00  0.00    -0.300 OA
HETATM   18  H           1     -22.934  -3.382 -13.175  0.00  0.00     0.223 HD
ENDBRANCH  14  17
ENDBRANCH  13  14
ENDBRANCH  10  13
ENDBRANCH   6   7
ENDBRANCH   1   6
BRANCH   1  19
HETATM   19  C           1     -20.939  -7.855  -5.018  0.00  0.00     0.249 C 
HETATM   20  O           1     -20.829  -8.617  -5.950  0.00  0.00    -0.271 OA
HETATM   21  N           1     -20.508  -8.231  -3.774  0.00  0.00    -0.345 N 
HETATM   22  H           1     -20.600  -7.594  -2.993  0.00  0.00     0.163 HD
BRANCH  21  23
HETATM   23  C           1     -19.921  -9.542  -3.575  0.00  0.00     0.186 C 
BRANCH  23  24
HETATM   24  C           1     -20.439 -10.133  -2.287  0.00  0.00     0.196 C 
HETATM   25  O           1     -19.689 -10.838  -1.577  0.00  0.00    -0.646 OA
HETATM   26  O           1     -21.618  -9.918  -1.930  0.00  0.00    -0.646 OA
ENDBRANCH  23  24
BRANCH  23  27
HETATM   27  C           1     -18.405  -9.414  -3.500  0.00  0.00     0.046 C 
BRANCH  27  28
HETATM   28  C           1     -17.772 -10.193  -4.646  0.00  0.00     0.076 C 
BRANCH  28  29
HETATM   29  S           1     -15.964 -10.064  -4.540  0.00  0.00    -0.173 SA
HETATM   30  C           1     -15.896  -9.700  -2.762  0.00  0.00     0.089 C 
ENDBRANCH  28  29
ENDBRANCH  27  28
ENDBRANCH  23  27
ENDBRANCH  21  23
ENDBRANCH   1  19
TORSDOF 12
ENDMDL
MODEL 6
REMARK VINA RESULT:      -6.8      2.095      3.065
REMARK  12 active torsions:
REMARK  status: ('A' for Active; 'I' for Inactive)
REMARK    1  A    between atoms: N_2  and  C_15 
REMARK    2  A    between atoms: O_7  and  P_8 
REMARK    3  A    between atoms: P_8  and  O_9 
REMARK    4  A    between atoms: O_9  and  C_10 
REMARK    5  A    between atoms: C_13  and  C_14 
REMARK    6  A    between atoms: C_14  and  C_15 
REMARK    7  A    between atoms: C_15  and  C_16 
REMARK       I    between atoms: C_16  and  N_17 
REMARK    8  A    between atoms: N_17  and  C_21 
REMARK    9  A    between atoms: C_20  and  C_21 
REMARK   10  A    between atoms: C_21  and  C_22 
REMARK   11  A    between atoms: C_22  and  C_23 
REMARK   12  A    between atoms: C_23  and  S_24 
ROOT
HETATM    1  C           1     -20.689  -5.553  -6.127  0.00  0.00     0.278 C 
ENDROOT
BRANCH   1   2
HETATM    2  N           1     -20.047  -4.436  -5.358  0.00  0.00    -0.066 N 
HETATM    3  H           1     -20.682  -3.606  -5.350  0.00  0.00     0.275 HD
HETATM    4  H           1     -19.868  -4.747  -4.377  0.00  0.00     0.275 HD
HETATM    5  H           1     -19.142  -4.177  -5.812  0.00  0.00     0.275 HD
ENDBRANCH   1   2
BRANCH   1   6
HETATM    6  C           1     -19.967  -5.735  -7.455  0.00  0.00     0.081 C 
BRANCH   6   7
HETATM    7  C           1     -20.676  -4.960  -8.520  0.00  0.00    -0.056 A 
HETATM    8  C           1     -21.952  -4.451  -8.280  0.00  0.00     0.010 A 
HETATM    9  C           1     -22.613  -3.728  -9.273  0.00  0.00     0.038 A 
HETATM   10  C           1     -21.998  -3.513 -10.507  0.00  0.00     0.081 A 
HETATM   11  C           1     -20.723  -4.023 -10.747  0.00  0.00     0.038 A 
HETATM   12  C           1     -20.061  -4.747  -9.754  0.00  0.00     0.010 A 
BRANCH  10  13
HETATM   13  O           1     -22.641  -2.812 -11.471  0.00  0.00    -0.247 OA
BRANCH  13  14
HETATM   14  P           1     -23.890  -3.513 -12.215  0.00  0.00     0.411 P 
HETATM   15  O           1     -25.151  -3.090 -11.565  0.00  0.00    -0.624 OA
HETATM   16  O           1     -23.756  -4.984 -12.125  0.00  0.00    -0.624 OA
BRANCH  14  17
HETATM   17  O           1     -23.911  -3.069 -13.769  0.00  0.00    -0.300 OA
HETATM   18  H           1     -23.061  -3.301 -14.099  0.00  0.00     0.223 HD
ENDBRANCH  14  17
ENDBRANCH  13  14
ENDBRANCH  10  13
ENDBRANCH   6   7
ENDBRANCH   1   6
BRANCH   1  19
HETATM   19  C           1     -20.603  -6.828  -5.326  0.00  0.00     0.249 C 
HETATM   20  O           1     -21.118  -6.893  -4.235  0.00  0.00    -0.271 OA
HETATM   21  N           1     -19.940  -7.913  -5.835  0.00  0.00    -0.345 N 
HETATM   22  H           1     -19.509  -7.859  -6.749  0.00  0.00     0.163 HD
BRANCH  21  23
HETATM   23  C           1     -19.856  -9.139  -5.065  0.00  0.00     0.186 C 
BRANCH  23  24
HETATM   24  C           1     -18.559  -9.842  -5.380  0.00  0.00     0.196 C 
HETATM   25  O           1     -17.555  -9.654  -4.660  0.00  0.00    -0.646 OA
HETATM   26  O           1     -18.489 -10.612  -6.362  0.00  0.00    -0.646 OA
ENDBRANCH  23  24
BRANCH  23  27
HETATM   27  C           1     -21.026 -10.046  -5.425  0.00  0.00     0.046 C 
BRANCH  27  28
HETATM   28  C           1     -21.793 -10.413  -4.162  0.00  0.00     0.076 C 
BRANCH  28  29
HETATM   29  S           1     -20.699 -10.259  -2.722  0.00  0.00    -0.173 SA
HETATM   30  C           1     -21.840  -9.273  -1.711  0.00  0.00     0.089 C 
ENDBRANCH  28  29
ENDBRANCH  27  28
ENDBRANCH  23  27
ENDBRANCH  21  23
ENDBRANCH   1  19
TORSDOF 12
ENDMDL
MODEL 7
REMARK VINA RESULT:      -6.7      2.494      3.268
REMARK  12 active torsions:
REMARK  status: ('A' for Active; 'I' for Inactive)
REMARK    1  A    between atoms: N_2  and  C_15 
REMARK    2  A    between atoms: O_7  and  P_8 
REMARK    3  A    between atoms: P_8  and  O_9 
REMARK    4  A    between atoms: O_9  and  C_10 
REMARK    5  A    between atoms: C_13  and  C_14 
REMARK    6  A    between atoms: C_14  and  C_15 
REMARK    7  A    between atoms: C_15  and  C_16 
REMARK       I    between atoms: C_16  and  N_17 
REMARK    8  A    between atoms: N_17  and  C_21 
REMARK    9  A    between atoms: C_20  and  C_21 
REMARK   10  A    between atoms: C_21  and  C_22 
REMARK   11  A    between atoms: C_22  and  C_23 
REMARK   12  A    between atoms: C_23  and  S_24 
ROOT
HETATM    1  C           1     -21.164  -6.461  -6.110  0.00  0.00     0.278 C 
ENDROOT
BRANCH   1   2
HETATM    2  N           1     -21.544  -5.638  -4.914  0.00  0.00    -0.066 N 
HETATM    3  H           1     -20.692  -5.175  -4.523  0.00  0.00     0.275 HD
HETATM    4  H           1     -22.237  -4.909  -5.199  0.00  0.00     0.275 HD
HETATM    5  H           1     -21.969  -6.256  -4.186  0.00  0.00     0.275 HD
ENDBRANCH   1   2
BRANCH   1   6
HETATM    6  C           1     -20.097  -5.727  -6.911  0.00  0.00     0.081 C 
BRANCH   6   7
HETATM    7  C           1     -20.740  -4.994  -8.046  0.00  0.00    -0.056 A 
HETATM    8  C           1     -20.056  -4.835  -9.251  0.00  0.00     0.010 A 
HETATM    9  C           1     -20.655  -4.152 -10.308  0.00  0.00     0.038 A 
HETATM   10  C           1     -21.939  -3.626 -10.162  0.00  0.00     0.081 A 
HETATM   11  C           1     -22.623  -3.784  -8.956  0.00  0.00     0.038 A 
HETATM   12  C           1     -22.024  -4.468  -7.898  0.00  0.00     0.010 A 
BRANCH  10  13
HETATM   13  O           1     -22.521  -2.962 -11.189  0.00  0.00    -0.247 OA
BRANCH  13  14
HETATM   14  P           1     -23.886  -3.565 -11.806  0.00  0.00     0.411 P 
HETATM   15  O           1     -23.763  -5.035 -11.932  0.00  0.00    -0.624 OA
HETATM   16  O           1     -24.128  -2.973 -13.140  0.00  0.00    -0.624 OA
BRANCH  14  17
HETATM   17  O           1     -25.123  -3.211 -10.828  0.00  0.00    -0.300 OA
HETATM   18  H           1     -24.803  -2.522 -10.272  0.00  0.00     0.223 HD
ENDBRANCH  14  17
ENDBRANCH  13  14
ENDBRANCH  10  13
ENDBRANCH   6   7
ENDBRANCH   1   6
BRANCH   1  19
HETATM   19  C           1     -20.625  -7.792  -5.651  0.00  0.00     0.249 C 
HETATM   20  O           1     -19.436  -8.006  -5.683  0.00  0.00    -0.271 OA
HETATM   21  N           1     -21.482  -8.760  -5.199  0.00  0.00    -0.345 N 
HETATM   22  H           1     -22.477  -8.582  -5.172  0.00  0.00     0.163 HD
BRANCH  21  23
HETATM   23  C           1     -20.962 -10.041  -4.760  0.00  0.00     0.186 C 
BRANCH  23  24
HETATM   24  C           1     -21.032 -11.028  -5.898  0.00  0.00     0.196 C 
HETATM   25  O           1     -22.079 -11.682  -6.097  0.00  0.00    -0.646 OA
HETATM   26  O           1     -20.041 -11.193  -6.643  0.00  0.00    -0.646 OA
ENDBRANCH  23  24
BRANCH  23  27
HETATM   27  C           1     -21.796 -10.554  -3.592  0.00  0.00     0.046 C 
BRANCH  27  28
HETATM   28  C           1     -21.025 -10.361  -2.293  0.00  0.00     0.076 C 
BRANCH  28  29
HETATM   29  S           1     -22.031  -9.397  -1.129  0.00  0.00    -0.173 SA
HETATM   30  C           1     -21.510  -7.763  -1.724  0.00  0.00     0.089 C 
ENDBRANCH  28  29
ENDBRANCH  27  28
ENDBRANCH  23  27
ENDBRANCH  21  23
ENDBRANCH   1  19
TORSDOF 12
ENDMDL
MODEL 8
REMARK VINA RESULT:      -6.4      2.774      3.594
REMARK  12 active torsions:
REMARK  status: ('A' for Active; 'I' for Inactive)
REMARK    1  A    between atoms: N_2  and  C_15 
REMARK    2  A    between atoms: O_7  and  P_8 
REMARK    3  A    between atoms: P_8  and  O_9 
REMARK    4  A    between atoms: O_9  and  C_10 
REMARK    5  A    between atoms: C_13  and  C_14 
REMARK    6  A    between atoms: C_14  and  C_15 
REMARK    7  A    between atoms: C_15  and  C_16 
REMARK       I    between atoms: C_16  and  N_17 
REMARK    8  A    between atoms: N_17  and  C_21 
REMARK    9  A    between atoms: C_20  and  C_21 
REMARK   10  A    between atoms: C_21  and  C_22 
REMARK   11  A    between atoms: C_22  and  C_23 
REMARK   12  A    between atoms: C_23  and  S_24 
ROOT
HETATM    1  C           1     -21.237  -6.687  -5.057  0.00  0.00     0.278 C 
ENDROOT
BRANCH   1   2
HETATM    2  N           1     -21.349  -5.854  -3.815  0.00  0.00    -0.066 N 
HETATM    3  H           1     -20.674  -5.057  -3.865  0.00  0.00     0.275 HD
HETATM    4  H           1     -22.322  -5.481  -3.732  0.00  0.00     0.275 HD
HETATM    5  H           1     -21.130  -6.442  -2.979  0.00  0.00     0.275 HD
ENDBRANCH   1   2
BRANCH   1   6
HETATM    6  C           1     -20.191  -6.078  -5.982  0.00  0.00     0.081 C 
BRANCH   6   7
HETATM    7  C           1     -20.873  -5.300  -7.064  0.00  0.00    -0.056 A 
HETATM    8  C           1     -20.205  -5.032  -8.258  0.00  0.00     0.010 A 
HETATM    9  C           1     -20.840  -4.308  -9.266  0.00  0.00     0.038 A 
HETATM   10  C           1     -22.145  -3.851  -9.081  0.00  0.00     0.081 A 
HETATM   11  C           1     -22.814  -4.119  -7.886  0.00  0.00     0.038 A 
HETATM   12  C           1     -22.178  -4.843  -6.877  0.00  0.00     0.010 A 
BRANCH  10  13
HETATM   13  O           1     -22.763  -3.148 -10.060  0.00  0.00    -0.247 OA
BRANCH  13  14
HETATM   14  P           1     -24.101  -3.771 -10.714  0.00  0.00     0.411 P 
HETATM   15  O           1     -23.992  -5.247 -10.744  0.00  0.00    -0.624 OA
HETATM   16  O           1     -24.260  -3.259 -12.093  0.00  0.00    -0.624 OA
BRANCH  14  17
HETATM   17  O           1     -25.383  -3.344  -9.830  0.00  0.00    -0.300 OA
HETATM   18  H           1     -25.067  -2.672  -9.252  0.00  0.00     0.223 HD
ENDBRANCH  14  17
ENDBRANCH  13  14
ENDBRANCH  10  13
ENDBRANCH   6   7
ENDBRANCH   1   6
BRANCH   1  19
HETATM   19  C           1     -20.825  -8.089  -4.685  0.00  0.00     0.249 C 
HETATM   20  O           1     -20.768  -8.414  -3.523  0.00  0.00    -0.271 OA
HETATM   21  N           1     -20.516  -8.995  -5.665  0.00  0.00    -0.345 N 
HETATM   22  H           1     -20.565  -8.723  -6.639  0.00  0.00     0.163 HD
BRANCH  21  23
HETATM   23  C           1     -20.120 -10.343  -5.307  0.00  0.00     0.186 C 
BRANCH  23  24
HETATM   24  C           1     -18.793 -10.663  -5.949  0.00  0.00     0.196 C 
HETATM   25  O           1     -18.754 -11.325  -7.009  0.00  0.00    -0.646 OA
HETATM   26  O           1     -17.732 -10.267  -5.420  0.00  0.00    -0.646 OA
ENDBRANCH  23  24
BRANCH  23  27
HETATM   27  C           1     -21.172 -11.330  -5.799  0.00  0.00     0.046 C 
BRANCH  27  28
HETATM   28  C           1     -22.077 -11.728  -4.641  0.00  0.00     0.076 C 
BRANCH  28  29
HETATM   29  S           1     -21.061 -12.235  -3.225  0.00  0.00    -0.173 SA
HETATM   30  C           1     -20.466 -13.787  -3.955  0.00  0.00     0.089 C 
ENDBRANCH  28  29
ENDBRANCH  27  28
ENDBRANCH  23  27
ENDBRANCH  21  23
ENDBRANCH   1  19
TORSDOF 12
ENDMDL
MODEL 9
REMARK VINA RESULT:      -6.0      3.127      4.562
REMARK  12 active torsions:
REMARK  status: ('A' for Active; 'I' for Inactive)
REMARK    1  A    between atoms: N_2  and  C_15 
REMARK    2  A    between atoms: O_7  and  P_8 
REMARK    3  A    between atoms: P_8  and  O_9 
REMARK    4  A    between atoms: O_9  and  C_10 
REMARK    5  A    between atoms: C_13  and  C_14 
REMARK    6  A    between atoms: C_14  and  C_15 
REMARK    7  A    between atoms: C_15  and  C_16 
REMARK       I    between atoms: C_16  and  N_17 
REMARK    8  A    between atoms: N_17  and  C_21 
REMARK    9  A    between atoms: C_20  and  C_21 
REMARK   10  A    between atoms: C_21  and  C_22 
REMARK   11  A    between atoms: C_22  and  C_23 
REMARK   12  A    between atoms: C_23  and  S_24 
ROOT
HETATM    1  C           1     -20.529  -8.008  -4.728  0.00  0.00     0.278 C 
ENDROOT
BRANCH   1   2
HETATM    2  N           1     -21.097  -8.747  -5.904  0.00  0.00    -0.066 N 
HETATM    3  H           1     -21.832  -8.163  -6.362  0.00  0.00     0.275 HD
HETATM    4  H           1     -20.335  -8.948  -6.590  0.00  0.00     0.275 HD
HETATM    5  H           1     -21.519  -9.646  -5.580  0.00  0.00     0.275 HD
ENDBRANCH   1   2
BRANCH   1   6
HETATM    6  C           1     -21.325  -6.730  -4.501  0.00  0.00     0.081 C 
BRANCH   6   7
HETATM    7  C           1     -21.182  -5.834  -5.691  0.00  0.00    -0.056 A 
HETATM    8  C           1     -19.914  -5.477  -6.148  0.00  0.00     0.010 A 
HETATM    9  C           1     -19.781  -4.643  -7.257  0.00  0.00     0.038 A 
HETATM   10  C           1     -20.916  -4.165  -7.911  0.00  0.00     0.081 A 
HETATM   11  C           1     -22.185  -4.520  -7.453  0.00  0.00     0.038 A 
HETATM   12  C           1     -22.319  -5.355  -6.344  0.00  0.00     0.010 A 
BRANCH  10  13
HETATM   13  O           1     -20.787  -3.354  -8.988  0.00  0.00    -0.247 OA
BRANCH  13  14
HETATM   14  P           1     -20.785  -4.033 -10.453  0.00  0.00     0.411 P 
HETATM   15  O           1     -22.116  -4.622 -10.724  0.00  0.00    -0.624 OA
HETATM   16  O           1     -19.755  -5.094 -10.503  0.00  0.00    -0.624 OA
BRANCH  14  17
HETATM   17  O           1     -20.456  -2.911 -11.568  0.00  0.00    -0.300 OA
HETATM   18  H           1     -19.921  -3.351 -12.205  0.00  0.00     0.223 HD
ENDBRANCH  14  17
ENDBRANCH  13  14
ENDBRANCH  10  13
ENDBRANCH   6   7
ENDBRANCH   1   6
BRANCH   1  19
HETATM   19  C           1     -20.613  -8.880  -3.500  0.00  0.00     0.249 C 
HETATM   20  O           1     -19.751  -8.818  -2.655  0.00  0.00    -0.271 OA
HETATM   21  N           1     -21.666  -9.741  -3.341  0.00  0.00    -0.345 N 
HETATM   22  H           1     -22.388  -9.792  -4.048  0.00  0.00     0.163 HD
BRANCH  21  23
HETATM   23  C           1     -21.746 -10.579  -2.160  0.00  0.00     0.186 C 
BRANCH  23  24
HETATM   24  C           1     -22.416 -11.883  -2.515  0.00  0.00     0.196 C 
HETATM   25  O           1     -22.107 -12.479  -3.570  0.00  0.00    -0.646 OA
HETATM   26  O           1     -23.281 -12.368  -1.753  0.00  0.00    -0.646 OA
ENDBRANCH  23  24
BRANCH  23  27
HETATM   27  C           1     -22.559  -9.867  -1.086  0.00  0.00     0.046 C 
BRANCH  27  28
HETATM   28  C           1     -21.803  -9.909   0.235  0.00  0.00     0.076 C 
BRANCH  28  29
HETATM   29  S           1     -21.567  -8.219   0.853  0.00  0.00    -0.173 SA
HETATM   30  C           1     -22.484  -7.392  -0.479  0.00  0.00     0.089 C 
ENDBRANCH  28  29
ENDBRANCH  27  28
ENDBRANCH  23  27
ENDBRANCH  21  23
ENDBRANCH   1  19
TORSDOF 12
ENDMDL
