MODEL 1
REMARK VINA RESULT:      -7.7      0.000      0.000
REMARK  6 active torsions:
REMARK  status: ('A' for Active; 'I' for Inactive)
REMARK    1  A    between atoms: C_1  and  C_2 
REMARK    2  A    between atoms: C_2  and  C_18 
REMARK    3  A    between atoms: C_3  and  C_4 
REMARK    4  A    between atoms: C_4  and  N_11 
REMARK       I    between atoms: C_9  and  N_11 
REMARK    5  A    between atoms: C_9  and  C_18 
REMARK    6  A    between atoms: N_14  and  C_18 
ROOT
HETATM    1  C           1     -35.818  -0.574 -11.474  0.00  0.00     0.278 C 
ENDROOT
BRANCH   1   2
HETATM    2  C           1     -36.262  -1.898 -10.867  0.00  0.00     0.081 C 
BRANCH   2   3
HETATM    3  C           1     -35.178  -2.916 -11.039  0.00  0.00    -0.056 A 
HETATM    4  C           1     -33.879  -2.507 -11.340  0.00  0.00     0.007 A 
HETATM    5  C           1     -32.869  -3.455 -11.500  0.00  0.00     0.001 A 
HETATM    6  C           1     -33.157  -4.812 -11.360  0.00  0.00     0.000 A 
HETATM    7  C           1     -34.457  -5.221 -11.058  0.00  0.00     0.001 A 
HETATM    8  C           1     -35.467  -4.274 -10.898  0.00  0.00     0.007 A 
ENDBRANCH   2   3
ENDBRANCH   1   2
BRANCH   1   9
HETATM    9  C           1     -36.484  -0.385 -12.815  0.00  0.00     0.249 C 
HETATM   10  O           1     -37.624  -0.750 -12.980  0.00  0.00    -0.271 OA
HETATM   11  N           1     -35.796   0.199 -13.845  0.00  0.00    -0.345 N 
HETATM   12  H           1     -34.842   0.504 -13.706  0.00  0.00     0.163 HD
BRANCH  11  13
HETATM   13  C           1     -36.436   0.380 -15.132  0.00  0.00     0.181 C 
HETATM   14  C           1     -35.986   1.701 -15.743  0.00  0.00     0.043 C 
BRANCH  13  15
HETATM   15  C           1     -36.050  -0.754 -16.050  0.00  0.00     0.196 C 
HETATM   16  O           1     -36.626  -0.890 -17.152  0.00  0.00    -0.646 OA
HETATM   17  O           1     -35.156  -1.558 -15.708  0.00  0.00    -0.646 OA
ENDBRANCH  13  15
ENDBRANCH  11  13
ENDBRANCH   1   9
BRANCH   1  18
HETATM   18  N           1     -36.207   0.550 -10.560  0.00  0.00    -0.066 N 
HETATM   19  H           1     -37.247   0.658 -10.565  0.00  0.00     0.275 HD
HETATM   20  H           1     -35.763   1.437 -10.889  0.00  0.00     0.275 HD
HETATM   21  H           1     -35.883   0.337  -9.590  0.00  0.00     0.275 HD
ENDBRANCH   1  18
TORSDOF 6
ENDMDL
MODEL 2
REMARK VINA RESULT:      -6.9     14.608     16.862
REMARK  6 active torsions:
REMARK  status: ('A' for Active; 'I' for Inactive)
REMARK    1  A    between atoms: C_1  and  C_2 
REMARK    2  A    between atoms: C_2  and  C_18 
REMARK    3  A    between atoms: C_3  and  C_4 
REMARK    4  A    between atoms: C_4  and  N_11 
REMARK       I    between atoms: C_9  and  N_11 
REMARK    5  A    between atoms: C_9  and  C_18 
REMARK    6  A    between atoms: N_14  and  C_18 
ROOT
HETATM    1  C           1     -22.226  -5.124  -6.774  0.00  0.00     0.278 C 
ENDROOT
BRANCH   1   2
HETATM    2  C           1     -21.633  -3.841  -7.341  0.00  0.00     0.081 C 
BRANCH   2   3
HETATM    3  C           1     -21.573  -3.935  -8.835  0.00  0.00    -0.056 A 
HETATM    4  C           1     -20.377  -4.283  -9.463  0.00  0.00     0.007 A 
HETATM    5  C           1     -20.321  -4.371 -10.853  0.00  0.00     0.001 A 
HETATM    6  C           1     -21.459  -4.110 -11.616  0.00  0.00     0.000 A 
HETATM    7  C           1     -22.655  -3.762 -10.987  0.00  0.00     0.001 A 
HETATM    8  C           1     -22.712  -3.674  -9.596  0.00  0.00     0.007 A 
ENDBRANCH   2   3
ENDBRANCH   1   2
BRANCH   1   9
HETATM    9  C           1     -21.462  -5.528  -5.537  0.00  0.00     0.249 C 
HETATM   10  O           1     -20.282  -5.281  -5.448  0.00  0.00    -0.271 OA
HETATM   11  N           1     -22.105  -6.175  -4.516  0.00  0.00    -0.345 N 
HETATM   12  H           1     -23.093  -6.381  -4.591  0.00  0.00     0.163 HD
BRANCH  11  13
HETATM   13  C           1     -21.371  -6.563  -3.328  0.00  0.00     0.181 C 
HETATM   14  C           1     -22.147  -6.134  -2.088  0.00  0.00     0.043 C 
BRANCH  13  15
HETATM   15  C           1     -21.192  -8.061  -3.315  0.00  0.00     0.196 C 
HETATM   16  O           1     -20.514  -8.602  -2.414  0.00  0.00    -0.646 OA
HETATM   17  O           1     -21.721  -8.762  -4.204  0.00  0.00    -0.646 OA
ENDBRANCH  13  15
ENDBRANCH  11  13
ENDBRANCH   1   9
BRANCH   1  18
HETATM   18  N           1     -23.666  -4.895  -6.420  0.00  0.00    -0.066 N 
HETATM   19  H           1     -24.049  -5.748  -5.953  0.00  0.00     0.275 HD
HETATM   20  H           1     -24.212  -4.697  -7.288  0.00  0.00     0.275 HD
HETATM   21  H           1     -23.738  -4.079  -5.771  0.00  0.00     0.275 HD
ENDBRANCH   1  18
TORSDOF 6
ENDMDL
MODEL 3
REMARK VINA RESULT:      -6.8      1.399      2.210
REMARK  6 active torsions:
REMARK  status: ('A' for Active; 'I' for Inactive)
REMARK    1  A    between atoms: C_1  and  C_2 
REMARK    2  A    between atoms: C_2  and  C_18 
REMARK    3  A    between atoms: C_3  and  C_4 
REMARK    4  A    between atoms: C_4  and  N_11 
REMARK       I    between atoms: C_9  and  N_11 
REMARK    5  A    between atoms: C_9  and  C_18 
REMARK    6  A    between atoms: N_14  and  C_18 
ROOT
HETATM    1  C           1     -34.622  -2.364 -11.759  0.00  0.00     0.278 C 
ENDROOT
BRANCH   1   2
HETATM    2  C           1     -35.500  -3.307 -10.947  0.00  0.00     0.081 C 
BRANCH   2   3
HETATM    3  C           1     -34.814  -4.631 -10.805  0.00  0.00    -0.056 A 
HETATM    4  C           1     -35.441  -5.671 -10.120  0.00  0.00     0.007 A 
HETATM    5  C           1     -34.803  -6.903  -9.988  0.00  0.00     0.001 A 
HETATM    6  C           1     -33.536  -7.096 -10.540  0.00  0.00     0.000 A 
HETATM    7  C           1     -32.909  -6.055 -11.226  0.00  0.00     0.001 A 
HETATM    8  C           1     -33.547  -4.823 -11.358  0.00  0.00     0.007 A 
ENDBRANCH   2   3
ENDBRANCH   1   2
BRANCH   1   9
HETATM    9  C           1     -35.485  -1.556 -12.697  0.00  0.00     0.249 C 
HETATM   10  O           1     -36.640  -1.336 -12.417  0.00  0.00    -0.271 OA
HETATM   11  N           1     -34.959  -1.072 -13.865  0.00  0.00    -0.345 N 
HETATM   12  H           1     -33.992  -1.256 -14.099  0.00  0.00     0.163 HD
BRANCH  11  13
HETATM   13  C           1     -35.788  -0.295 -14.765  0.00  0.00     0.181 C 
HETATM   14  C           1     -35.197   1.100 -14.925  0.00  0.00     0.043 C 
BRANCH  13  15
HETATM   15  C           1     -35.841  -0.974 -16.111  0.00  0.00     0.196 C 
HETATM   16  O           1     -35.088  -1.942 -16.354  0.00  0.00    -0.646 OA
HETATM   17  O           1     -36.637  -0.568 -16.985  0.00  0.00    -0.646 OA
ENDBRANCH  13  15
ENDBRANCH  11  13
ENDBRANCH   1   9
BRANCH   1  18
HETATM   18  N           1     -33.890  -1.440 -10.832  0.00  0.00    -0.066 N 
HETATM   19  H           1     -34.449  -0.567 -10.699  0.00  0.00     0.275 HD
HETATM   20  H           1     -32.960  -1.199 -11.242  0.00  0.00     0.275 HD
HETATM   21  H           1     -33.752  -1.911  -9.910  0.00  0.00     0.275 HD
ENDBRANCH   1  18
TORSDOF 6
ENDMDL
MODEL 4
REMARK VINA RESULT:      -6.8     13.609     15.537
REMARK  6 active torsions:
REMARK  status: ('A' for Active; 'I' for Inactive)
REMARK    1  A    between atoms: C_1  and  C_2 
REMARK    2  A    between atoms: C_2  and  C_18 
REMARK    3  A    between atoms: C_3  and  C_4 
REMARK    4  A    between atoms: C_4  and  N_11 
REMARK       I    between atoms: C_9  and  N_11 
REMARK    5  A    between atoms: C_9  and  C_18 
REMARK    6  A    between atoms: N_14  and  C_18 
ROOT
HETATM    1  C           1     -21.088  -5.704  -6.802  0.00  0.00     0.278 C 
ENDROOT
BRANCH   1   2
HETATM    2  C           1     -20.789  -5.255  -5.377  0.00  0.00     0.081 C 
BRANCH   2   3
HETATM    3  C           1     -21.102  -6.369  -4.426  0.00  0.00    -0.056 A 
HETATM    4  C           1     -21.265  -6.099  -3.067  0.00  0.00     0.007 A 
HETATM    5  C           1     -21.555  -7.136  -2.181  0.00  0.00     0.001 A 
HETATM    6  C           1     -21.682  -8.442  -2.653  0.00  0.00     0.000 A 
HETATM    7  C           1     -21.519  -8.711  -4.013  0.00  0.00     0.001 A 
HETATM    8  C           1     -21.228  -7.675  -4.899  0.00  0.00     0.007 A 
ENDBRANCH   2   3
ENDBRANCH   1   2
BRANCH   1   9
HETATM    9  C           1     -21.643  -4.543  -7.590  0.00  0.00     0.249 C 
HETATM   10  O           1     -21.550  -3.419  -7.155  0.00  0.00    -0.271 OA
HETATM   11  N           1     -22.250  -4.762  -8.797  0.00  0.00    -0.345 N 
HETATM   12  H           1     -22.327  -5.704  -9.160  0.00  0.00     0.163 HD
BRANCH  11  13
HETATM   13  C           1     -22.782  -3.647  -9.554  0.00  0.00     0.181 C 
HETATM   14  C           1     -22.133  -3.612 -10.932  0.00  0.00     0.043 C 
BRANCH  13  15
HETATM   15  C           1     -24.274  -3.809  -9.707  0.00  0.00     0.196 C 
HETATM   16  O           1     -25.028  -2.821  -9.568  0.00  0.00    -0.646 OA
HETATM   17  O           1     -24.758  -4.931  -9.970  0.00  0.00    -0.646 OA
ENDBRANCH  13  15
ENDBRANCH  11  13
ENDBRANCH   1   9
BRANCH   1  18
HETATM   18  N           1     -19.825  -6.189  -7.448  0.00  0.00    -0.066 N 
HETATM   19  H           1     -19.737  -5.767  -8.400  0.00  0.00     0.275 HD
HETATM   20  H           1     -19.852  -7.231  -7.529  0.00  0.00     0.275 HD
HETATM   21  H           1     -19.006  -5.908  -6.864  0.00  0.00     0.275 HD
ENDBRANCH   1  18
TORSDOF 6
ENDMDL
MODEL 5
REMARK VINA RESULT:      -6.7     13.762     16.275
REMARK  6 active torsions:
REMARK  status: ('A' for Active; 'I' for Inactive)
REMARK    1  A    between atoms: C_1  and  C_2 
REMARK    2  A    between atoms: C_2  and  C_18 
REMARK    3  A    between atoms: C_3  and  C_4 
REMARK    4  A    between atoms: C_4  and  N_11 
REMARK       I    between atoms: C_9  and  N_11 
REMARK    5  A    between atoms: C_9  and  C_18 
REMARK    6  A    between atoms: N_14  and  C_18 
ROOT
HETATM    1  C           1     -21.923  -4.436  -7.281  0.00  0.00     0.278 C 
ENDROOT
BRANCH   1   2
HETATM    2  C           1     -21.459  -4.940  -8.641  0.00  0.00     0.081 C 
BRANCH   2   3
HETATM    3  C           1     -22.219  -4.234  -9.722  0.00  0.00    -0.056 A 
HETATM    4  C           1     -21.533  -3.608 -10.762  0.00  0.00     0.007 A 
HETATM    5  C           1     -22.240  -2.951 -11.768  0.00  0.00     0.001 A 
HETATM    6  C           1     -23.634  -2.918 -11.733  0.00  0.00     0.000 A 
HETATM    7  C           1     -24.321  -3.544 -10.692  0.00  0.00     0.001 A 
HETATM    8  C           1     -23.613  -4.201  -9.686  0.00  0.00     0.007 A 
ENDBRANCH   2   3
ENDBRANCH   1   2
BRANCH   1   9
HETATM    9  C           1     -21.221  -5.209  -6.191  0.00  0.00     0.249 C 
HETATM   10  O           1     -20.015  -5.183  -6.113  0.00  0.00    -0.271 OA
HETATM   11  N           1     -21.949  -5.940  -5.292  0.00  0.00    -0.345 N 
HETATM   12  H           1     -22.959  -5.962  -5.358  0.00  0.00     0.163 HD
BRANCH  11  13
HETATM   13  C           1     -21.275  -6.682  -4.246  0.00  0.00     0.181 C 
HETATM   14  C           1     -21.923  -6.371  -2.902  0.00  0.00     0.043 C 
BRANCH  13  15
HETATM   15  C           1     -21.386  -8.160  -4.526  0.00  0.00     0.196 C 
HETATM   16  O           1     -21.662  -8.954  -3.599  0.00  0.00    -0.646 OA
HETATM   17  O           1     -21.202  -8.593  -5.684  0.00  0.00    -0.646 OA
ENDBRANCH  13  15
ENDBRANCH  11  13
ENDBRANCH   1   9
BRANCH   1  18
HETATM   18  N           1     -21.595  -2.978  -7.150  0.00  0.00    -0.066 N 
HETATM   19  H           1     -21.664  -2.521  -8.087  0.00  0.00     0.275 HD
HETATM   20  H           1     -20.624  -2.870  -6.780  0.00  0.00     0.275 HD
HETATM   21  H           1     -22.270  -2.528  -6.491  0.00  0.00     0.275 HD
ENDBRANCH   1  18
TORSDOF 6
ENDMDL
MODEL 6
REMARK VINA RESULT:      -6.4     15.367     17.456
REMARK  6 active torsions:
REMARK  status: ('A' for Active; 'I' for Inactive)
REMARK    1  A    between atoms: C_1  and  C_2 
REMARK    2  A    between atoms: C_2  and  C_18 
REMARK    3  A    between atoms: C_3  and  C_4 
REMARK    4  A    between atoms: C_4  and  N_11 
REMARK       I    between atoms: C_9  and  N_11 
REMARK    5  A    between atoms: C_9  and  C_18 
REMARK    6  A    between atoms: N_14  and  C_18 
ROOT
HETATM    1  C           1     -21.503  -7.919  -4.486  0.00  0.00     0.278 C 
ENDROOT
BRANCH   1   2
HETATM    2  C           1     -20.617  -8.215  -3.283  0.00  0.00     0.081 C 
BRANCH   2   3
HETATM    3  C           1     -21.472  -8.431  -2.073  0.00  0.00    -0.056 A 
HETATM    4  C           1     -21.797  -7.354  -1.248  0.00  0.00     0.007 A 
HETATM    5  C           1     -22.594  -7.555  -0.121  0.00  0.00     0.001 A 
HETATM    6  C           1     -23.065  -8.832   0.181  0.00  0.00     0.000 A 
HETATM    7  C           1     -22.740  -9.909  -0.644  0.00  0.00     0.001 A 
HETATM    8  C           1     -21.944  -9.709  -1.771  0.00  0.00     0.007 A 
ENDBRANCH   2   3
ENDBRANCH   1   2
BRANCH   1   9
HETATM    9  C           1     -21.294  -6.491  -4.926  0.00  0.00     0.249 C 
HETATM   10  O           1     -21.364  -5.594  -4.119  0.00  0.00    -0.271 OA
HETATM   11  N           1     -21.025  -6.211  -6.239  0.00  0.00    -0.345 N 
HETATM   12  H           1     -20.966  -6.963  -6.914  0.00  0.00     0.163 HD
BRANCH  11  13
HETATM   13  C           1     -20.823  -4.840  -6.661  0.00  0.00     0.181 C 
HETATM   14  C           1     -19.486  -4.720  -7.381  0.00  0.00     0.043 C 
BRANCH  13  15
HETATM   15  C           1     -21.935  -4.434  -7.597  0.00  0.00     0.196 C 
HETATM   16  O           1     -21.672  -4.104  -8.775  0.00  0.00    -0.646 OA
HETATM   17  O           1     -23.119  -4.426  -7.196  0.00  0.00    -0.646 OA
ENDBRANCH  13  15
ENDBRANCH  11  13
ENDBRANCH   1   9
BRANCH   1  18
HETATM   18  N           1     -21.145  -8.846  -5.609  0.00  0.00    -0.066 N 
HETATM   19  H           1     -20.257  -8.524  -6.056  0.00  0.00     0.275 HD
HETATM   20  H           1     -21.912  -8.847  -6.319  0.00  0.00     0.275 HD
HETATM   21  H           1     -21.017  -9.813  -5.235  0.00  0.00     0.275 HD
ENDBRANCH   1  18
TORSDOF 6
ENDMDL
MODEL 7
REMARK VINA RESULT:      -6.3     13.589     16.108
REMARK  6 active torsions:
REMARK  status: ('A' for Active; 'I' for Inactive)
REMARK    1  A    between atoms: C_1  and  C_2 
REMARK    2  A    between atoms: C_2  and  C_18 
REMARK    3  A    between atoms: C_3  and  C_4 
REMARK    4  A    between atoms: C_4  and  N_11 
REMARK       I    between atoms: C_9  and  N_11 
REMARK    5  A    between atoms: C_9  and  C_18 
REMARK    6  A    between atoms: N_14  and  C_18 
ROOT
HETATM    1  C           1     -22.044  -4.349  -7.339  0.00  0.00     0.278 C 
ENDROOT
BRANCH   1   2
HETATM    2  C           1     -21.676  -5.031  -8.650  0.00  0.00     0.081 C 
BRANCH   2   3
HETATM    3  C           1     -22.282  -4.277  -9.793  0.00  0.00    -0.056 A 
HETATM    4  C           1     -23.646  -3.986  -9.791  0.00  0.00     0.007 A 
HETATM    5  C           1     -24.210  -3.285 -10.856  0.00  0.00     0.001 A 
HETATM    6  C           1     -23.411  -2.874 -11.923  0.00  0.00     0.000 A 
HETATM    7  C           1     -22.047  -3.164 -11.924  0.00  0.00     0.001 A 
HETATM    8  C           1     -21.482  -3.866 -10.860  0.00  0.00     0.007 A 
ENDBRANCH   2   3
ENDBRANCH   1   2
BRANCH   1   9
HETATM    9  C           1     -22.475  -5.388  -6.333  0.00  0.00     0.249 C 
HETATM   10  O           1     -23.624  -5.430  -5.963  0.00  0.00    -0.271 OA
HETATM   11  N           1     -21.564  -6.284  -5.842  0.00  0.00    -0.345 N 
HETATM   12  H           1     -20.601  -6.248  -6.152  0.00  0.00     0.163 HD
BRANCH  11  13
HETATM   13  C           1     -21.978  -7.283  -4.877  0.00  0.00     0.181 C 
HETATM   14  C           1     -21.236  -8.586  -5.143  0.00  0.00     0.043 C 
BRANCH  13  15
HETATM   15  C           1     -21.657  -6.799  -3.484  0.00  0.00     0.196 C 
HETATM   16  O           1     -22.404  -5.967  -2.923  0.00  0.00    -0.646 OA
HETATM   17  O           1     -20.645  -7.230  -2.890  0.00  0.00    -0.646 OA
ENDBRANCH  13  15
ENDBRANCH  11  13
ENDBRANCH   1   9
BRANCH   1  18
HETATM   18  N           1     -20.853  -3.606  -6.810  0.00  0.00    -0.066 N 
HETATM   19  H           1     -21.065  -3.243  -5.854  0.00  0.00     0.275 HD
HETATM   20  H           1     -20.630  -2.806  -7.445  0.00  0.00     0.275 HD
HETATM   21  H           1     -20.033  -4.252  -6.765  0.00  0.00     0.275 HD
ENDBRANCH   1  18
TORSDOF 6
ENDMDL
MODEL 8
REMARK VINA RESULT:      -6.3     12.839     14.807
REMARK  6 active torsions:
REMARK  status: ('A' for Active; 'I' for Inactive)
REMARK    1  A    between atoms: C_1  and  C_2 
REMARK    2  A    between atoms: C_2  and  C_18 
REMARK    3  A    between atoms: C_3  and  C_4 
REMARK    4  A    between atoms: C_4  and  N_11 
REMARK       I    between atoms: C_9  and  N_11 
REMARK    5  A    between atoms: C_9  and  C_18 
REMARK    6  A    between atoms: N_14  and  C_18 
ROOT
HETATM    1  C           1     -21.868  -4.490  -7.430  0.00  0.00     0.278 C 
ENDROOT
BRANCH   1   2
HETATM    2  C           1     -21.177  -5.841  -7.300  0.00  0.00     0.081 C 
BRANCH   2   3
HETATM    3  C           1     -21.206  -6.282  -5.869  0.00  0.00    -0.056 A 
HETATM    4  C           1     -21.551  -7.595  -5.551  0.00  0.00     0.007 A 
HETATM    5  C           1     -21.578  -8.006  -4.219  0.00  0.00     0.001 A 
HETATM    6  C           1     -21.262  -7.104  -3.204  0.00  0.00     0.000 A 
HETATM    7  C           1     -20.917  -5.790  -3.522  0.00  0.00     0.001 A 
HETATM    8  C           1     -20.889  -5.379  -4.854  0.00  0.00     0.007 A 
ENDBRANCH   2   3
ENDBRANCH   1   2
BRANCH   1   9
HETATM    9  C           1     -21.754  -4.001  -8.853  0.00  0.00     0.249 C 
HETATM   10  O           1     -20.667  -3.754  -9.321  0.00  0.00    -0.271 OA
HETATM   11  N           1     -22.880  -3.837  -9.612  0.00  0.00    -0.345 N 
HETATM   12  H           1     -23.790  -4.043  -9.220  0.00  0.00     0.163 HD
BRANCH  11  13
HETATM   13  C           1     -22.771  -3.368 -10.979  0.00  0.00     0.181 C 
HETATM   14  C           1     -22.113  -4.443 -11.836  0.00  0.00     0.043 C 
BRANCH  13  15
HETATM   15  C           1     -24.147  -3.068 -11.520  0.00  0.00     0.196 C 
HETATM   16  O           1     -24.286  -2.693 -12.705  0.00  0.00    -0.646 OA
HETATM   17  O           1     -25.149  -3.194 -10.783  0.00  0.00    -0.646 OA
ENDBRANCH  13  15
ENDBRANCH  11  13
ENDBRANCH   1   9
BRANCH   1  18
HETATM   18  N           1     -23.316  -4.632  -7.064  0.00  0.00    -0.066 N 
HETATM   19  H           1     -23.631  -5.608  -7.267  0.00  0.00     0.275 HD
HETATM   20  H           1     -23.885  -3.958  -7.624  0.00  0.00     0.275 HD
HETATM   21  H           1     -23.438  -4.430  -6.047  0.00  0.00     0.275 HD
ENDBRANCH   1  18
TORSDOF 6
ENDMDL
MODEL 9
REMARK VINA RESULT:      -6.2     16.354     18.824
REMARK  6 active torsions:
REMARK  status: ('A' for Active; 'I' for Inactive)
REMARK    1  A    between atoms: C_1  and  C_2 
REMARK    2  A    between atoms: C_2  and  C_18 
REMARK    3  A    between atoms: C_3  and  C_4 
REMARK    4  A    between atoms: C_4  and  N_11 
REMARK       I    between atoms: C_9  and  N_11 
REMARK    5  A    between atoms: C_9  and  C_18 
REMARK    6  A    between atoms: N_14  and  C_18 
ROOT
HETATM    1  C           1     -21.437  -7.212  -3.988  0.00  0.00     0.278 C 
ENDROOT
BRANCH   1   2
HETATM    2  C           1     -22.430  -6.405  -4.815  0.00  0.00     0.081 C 
BRANCH   2   3
HETATM    3  C           1     -21.688  -5.570  -5.812  0.00  0.00    -0.056 A 
HETATM    4  C           1     -22.391  -4.850  -6.778  0.00  0.00     0.007 A 
HETATM    5  C           1     -21.700  -4.072  -7.707  0.00  0.00     0.001 A 
HETATM    6  C           1     -20.307  -4.015  -7.670  0.00  0.00     0.000 A 
HETATM    7  C           1     -19.604  -4.736  -6.704  0.00  0.00     0.001 A 
HETATM    8  C           1     -20.295  -5.513  -5.775  0.00  0.00     0.007 A 
ENDBRANCH   2   3
ENDBRANCH   1   2
BRANCH   1   9
HETATM    9  C           1     -21.700  -6.981  -2.520  0.00  0.00     0.249 C 
HETATM   10  O           1     -22.028  -5.885  -2.130  0.00  0.00    -0.271 OA
HETATM   11  N           1     -21.566  -8.013  -1.630  0.00  0.00    -0.345 N 
HETATM   12  H           1     -21.292  -8.930  -1.957  0.00  0.00     0.163 HD
BRANCH  11  13
HETATM   13  C           1     -21.819  -7.792  -0.221  0.00  0.00     0.181 C 
HETATM   14  C           1     -23.315  -7.895   0.051  0.00  0.00     0.043 C 
BRANCH  13  15
HETATM   15  C           1     -21.089  -8.833   0.591  0.00  0.00     0.196 C 
HETATM   16  O           1     -20.837  -8.623   1.798  0.00  0.00    -0.646 OA
HETATM   17  O           1     -20.734  -9.906   0.057  0.00  0.00    -0.646 OA
ENDBRANCH  13  15
ENDBRANCH  11  13
ENDBRANCH   1   9
BRANCH   1  18
HETATM   18  N           1     -21.595  -8.670  -4.301  0.00  0.00    -0.066 N 
HETATM   19  H           1     -21.717  -8.793  -5.331  0.00  0.00     0.275 HD
HETATM   20  H           1     -22.434  -9.045  -3.803  0.00  0.00     0.275 HD
HETATM   21  H           1     -20.744  -9.188  -3.986  0.00  0.00     0.275 HD
ENDBRANCH   1  18
TORSDOF 6
ENDMDL
