MODEL 1
REMARK VINA RESULT:      -7.0      0.000      0.000
REMARK  11 active torsions:
REMARK  status: ('A' for Active; 'I' for Inactive)
REMARK    1  A    between atoms: N_1  and  C_20 
REMARK    2  A    between atoms: C_2  and  C_3 
REMARK    3  A    between atoms: C_3  and  C_5 
REMARK    4  A    between atoms: C_3  and  N_17 
REMARK    5  A    between atoms: C_5  and  C_10 
REMARK       I    between atoms: C_7  and  N_17 
REMARK    6  A    between atoms: C_7  and  C_8 
REMARK    7  A    between atoms: C_8  and  C_22 
REMARK    8  A    between atoms: C_8  and  N_11 
REMARK    9  A    between atoms: C_9  and  O_14 
REMARK   10  A    between atoms: C_20  and  C_21 
REMARK   11  A    between atoms: C_21  and  C_22 
ROOT
HETATM    1  C           1     -21.345  -6.473  -4.363  0.00  0.00     0.249 C 
HETATM    2  O           1     -21.604  -7.493  -4.954  0.00  0.00    -0.271 OA
HETATM    3  N           1     -21.053  -5.332  -5.063  0.00  0.00    -0.344 N 
HETATM    4  H           1     -20.835  -4.476  -4.568  0.00  0.00     0.163 HD
ENDROOT
BRANCH   3   5
HETATM    5  C           1     -21.055  -5.351  -6.513  0.00  0.00     0.189 C 
BRANCH   5   6
HETATM    6  C           1     -19.655  -5.605  -7.014  0.00  0.00     0.197 C 
HETATM    7  O           1     -18.860  -4.653  -7.157  0.00  0.00    -0.646 OA
HETATM    8  O           1     -19.291  -6.770  -7.288  0.00  0.00    -0.646 OA
ENDBRANCH   5   6
BRANCH   5   9
HETATM    9  C           1     -21.547  -4.008  -7.036  0.00  0.00     0.074 C 
BRANCH   9  10
HETATM   10  C           1     -22.086  -4.178  -8.423  0.00  0.00    -0.056 A 
HETATM   11  C           1     -21.220  -4.141  -9.516  0.00  0.00     0.010 A 
HETATM   12  C           1     -21.722  -4.300 -10.808  0.00  0.00     0.037 A 
HETATM   13  C           1     -23.089  -4.495 -11.006  0.00  0.00     0.065 A 
HETATM   14  C           1     -23.955  -4.532  -9.913  0.00  0.00     0.037 A 
HETATM   15  C           1     -23.452  -4.373  -8.621  0.00  0.00     0.010 A 
BRANCH  13  16
HETATM   16  O           1     -23.577  -4.649 -12.261  0.00  0.00    -0.361 OA
HETATM   17  H           1     -23.522  -3.790 -12.712  0.00  0.00     0.217 HD
ENDBRANCH  13  16
ENDBRANCH   9  10
ENDBRANCH   5   9
ENDBRANCH   3   5
BRANCH   1  18
HETATM   18  C           1     -21.342  -6.453  -2.854  0.00  0.00     0.274 C 
BRANCH  18  19
HETATM   19  C           1     -21.260  -7.881  -2.328  0.00  0.00     0.044 C 
BRANCH  19  20
HETATM   20  C           1     -21.398  -7.872  -0.812  0.00  0.00     0.030 C 
BRANCH  20  21
HETATM   21  C           1     -22.540  -8.791  -0.400  0.00  0.00     0.230 C 
BRANCH  21  22
HETATM   22  N           1     -23.465  -8.057   0.524  0.00  0.00    -0.079 N 
HETATM   23  H           1     -24.229  -8.698   0.837  0.00  0.00     0.274 HD
HETATM   24  H           1     -23.882  -7.239   0.024  0.00  0.00     0.274 HD
HETATM   25  H           1     -22.931  -7.721   1.357  0.00  0.00     0.274 HD
ENDBRANCH  21  22
ENDBRANCH  20  21
ENDBRANCH  19  20
ENDBRANCH  18  19
BRANCH  18  26
HETATM   26  N           1     -22.604  -5.811  -2.361  0.00  0.00    -0.067 N 
HETATM   27  H           1     -22.400  -5.252  -1.503  0.00  0.00     0.275 HD
HETATM   28  H           1     -22.988  -5.183  -3.102  0.00  0.00     0.275 HD
HETATM   29  H           1     -23.306  -6.552  -2.134  0.00  0.00     0.275 HD
ENDBRANCH  18  26
ENDBRANCH   1  18
TORSDOF 11
ENDMDL
MODEL 2
REMARK VINA RESULT:      -6.8      2.947      7.835
REMARK  11 active torsions:
REMARK  status: ('A' for Active; 'I' for Inactive)
REMARK    1  A    between atoms: N_1  and  C_20 
REMARK    2  A    between atoms: C_2  and  C_3 
REMARK    3  A    between atoms: C_3  and  C_5 
REMARK    4  A    between atoms: C_3  and  N_17 
REMARK    5  A    between atoms: C_5  and  C_10 
REMARK       I    between atoms: C_7  and  N_17 
REMARK    6  A    between atoms: C_7  and  C_8 
REMARK    7  A    between atoms: C_8  and  C_22 
REMARK    8  A    between atoms: C_8  and  N_11 
REMARK    9  A    between atoms: C_9  and  O_14 
REMARK   10  A    between atoms: C_20  and  C_21 
REMARK   11  A    between atoms: C_21  and  C_22 
ROOT
HETATM    1  C           1     -23.103  -4.592  -7.745  0.00  0.00     0.249 C 
HETATM    2  O           1     -23.788  -4.430  -6.764  0.00  0.00    -0.271 OA
HETATM    3  N           1     -21.816  -5.038  -7.615  0.00  0.00    -0.344 N 
HETATM    4  H           1     -21.241  -5.175  -8.437  0.00  0.00     0.163 HD
ENDROOT
BRANCH   3   5
HETATM    5  C           1     -21.275  -5.317  -6.298  0.00  0.00     0.189 C 
BRANCH   5   6
HETATM    6  C           1     -19.894  -4.719  -6.185  0.00  0.00     0.197 C 
HETATM    7  O           1     -19.489  -4.286  -5.086  0.00  0.00    -0.646 OA
HETATM    8  O           1     -19.156  -4.657  -7.192  0.00  0.00    -0.646 OA
ENDBRANCH   5   6
BRANCH   5   9
HETATM    9  C           1     -21.196  -6.823  -6.091  0.00  0.00     0.074 C 
BRANCH   9  10
HETATM   10  C           1     -21.149  -7.125  -4.625  0.00  0.00    -0.056 A 
HETATM   11  C           1     -21.916  -6.374  -3.734  0.00  0.00     0.010 A 
HETATM   12  C           1     -21.872  -6.655  -2.369  0.00  0.00     0.037 A 
HETATM   13  C           1     -21.061  -7.687  -1.895  0.00  0.00     0.065 A 
HETATM   14  C           1     -20.295  -8.438  -2.786  0.00  0.00     0.037 A 
HETATM   15  C           1     -20.339  -8.157  -4.152  0.00  0.00     0.010 A 
BRANCH  13  16
HETATM   16  O           1     -21.019  -7.960  -0.568  0.00  0.00    -0.361 OA
HETATM   17  H           1     -21.888  -8.304  -0.304  0.00  0.00     0.217 HD
ENDBRANCH  13  16
ENDBRANCH   9  10
ENDBRANCH   5   9
ENDBRANCH   3   5
BRANCH   1  18
HETATM   18  C           1     -23.666  -4.302  -9.115  0.00  0.00     0.274 C 
BRANCH  18  19
HETATM   19  C           1     -22.527  -3.985 -10.075  0.00  0.00     0.044 C 
BRANCH  19  20
HETATM   20  C           1     -22.970  -4.275 -11.502  0.00  0.00     0.030 C 
BRANCH  20  21
HETATM   21  C           1     -22.903  -2.997 -12.326  0.00  0.00     0.230 C 
BRANCH  21  22
HETATM   22  N           1     -22.210  -3.274 -13.627  0.00  0.00    -0.079 N 
HETATM   23  H           1     -21.938  -2.371 -14.077  0.00  0.00     0.274 HD
HETATM   24  H           1     -22.855  -3.798 -14.261  0.00  0.00     0.274 HD
HETATM   25  H           1     -21.353  -3.846 -13.450  0.00  0.00     0.274 HD
ENDBRANCH  21  22
ENDBRANCH  20  21
ENDBRANCH  19  20
ENDBRANCH  18  19
BRANCH  18  26
HETATM   26  N           1     -24.594  -3.126  -9.036  0.00  0.00    -0.067 N 
HETATM   27  H           1     -24.037  -2.246  -8.957  0.00  0.00     0.275 HD
HETATM   28  H           1     -25.183  -3.089  -9.898  0.00  0.00     0.275 HD
HETATM   29  H           1     -25.210  -3.224  -8.196  0.00  0.00     0.275 HD
ENDBRANCH  18  26
ENDBRANCH   1  18
TORSDOF 11
ENDMDL
MODEL 3
REMARK VINA RESULT:      -6.5      1.646      2.144
REMARK  11 active torsions:
REMARK  status: ('A' for Active; 'I' for Inactive)
REMARK    1  A    between atoms: N_1  and  C_20 
REMARK    2  A    between atoms: C_2  and  C_3 
REMARK    3  A    between atoms: C_3  and  C_5 
REMARK    4  A    between atoms: C_3  and  N_17 
REMARK    5  A    between atoms: C_5  and  C_10 
REMARK       I    between atoms: C_7  and  N_17 
REMARK    6  A    between atoms: C_7  and  C_8 
REMARK    7  A    between atoms: C_8  and  C_22 
REMARK    8  A    between atoms: C_8  and  N_11 
REMARK    9  A    between atoms: C_9  and  O_14 
REMARK   10  A    between atoms: C_20  and  C_21 
REMARK   11  A    between atoms: C_21  and  C_22 
ROOT
HETATM    1  C           1     -20.773  -7.654  -5.577  0.00  0.00     0.249 C 
HETATM    2  O           1     -19.678  -7.816  -6.058  0.00  0.00    -0.271 OA
HETATM    3  N           1     -21.514  -6.554  -5.917  0.00  0.00    -0.344 N 
HETATM    4  H           1     -22.433  -6.417  -5.514  0.00  0.00     0.163 HD
ENDROOT
BRANCH   3   5
HETATM    5  C           1     -20.982  -5.584  -6.854  0.00  0.00     0.189 C 
BRANCH   5   6
HETATM    6  C           1     -19.885  -4.790  -6.189  0.00  0.00     0.197 C 
HETATM    7  O           1     -18.824  -4.553  -6.804  0.00  0.00    -0.646 OA
HETATM    8  O           1     -20.038  -4.371  -5.021  0.00  0.00    -0.646 OA
ENDBRANCH   5   6
BRANCH   5   9
HETATM    9  C           1     -22.095  -4.642  -7.296  0.00  0.00     0.074 C 
BRANCH   9  10
HETATM   10  C           1     -21.989  -4.398  -8.769  0.00  0.00    -0.056 A 
HETATM   11  C           1     -20.774  -4.604  -9.424  0.00  0.00     0.010 A 
HETATM   12  C           1     -20.676  -4.376 -10.797  0.00  0.00     0.037 A 
HETATM   13  C           1     -21.791  -3.942 -11.514  0.00  0.00     0.065 A 
HETATM   14  C           1     -23.006  -3.737 -10.859  0.00  0.00     0.037 A 
HETATM   15  C           1     -23.104  -3.965  -9.486  0.00  0.00     0.010 A 
BRANCH  13  16
HETATM   16  O           1     -21.696  -3.721 -12.847  0.00  0.00    -0.361 OA
HETATM   17  H           1     -22.315  -3.010 -13.079  0.00  0.00     0.217 HD
ENDBRANCH  13  16
ENDBRANCH   9  10
ENDBRANCH   5   9
ENDBRANCH   3   5
BRANCH   1  18
HETATM   18  C           1     -21.327  -8.663  -4.601  0.00  0.00     0.274 C 
BRANCH  18  19
HETATM   19  C           1     -20.438  -8.715  -3.365  0.00  0.00     0.044 C 
BRANCH  19  20
HETATM   20  C           1     -20.520  -7.387  -2.624  0.00  0.00     0.030 C 
BRANCH  20  21
HETATM   21  C           1     -21.864  -7.282  -1.915  0.00  0.00     0.230 C 
BRANCH  21  22
HETATM   22  N           1     -22.399  -5.889  -2.060  0.00  0.00    -0.079 N 
HETATM   23  H           1     -23.372  -5.926  -2.440  0.00  0.00     0.274 HD
HETATM   24  H           1     -21.791  -5.348  -2.715  0.00  0.00     0.274 HD
HETATM   25  H           1     -22.409  -5.420  -1.126  0.00  0.00     0.274 HD
ENDBRANCH  21  22
ENDBRANCH  20  21
ENDBRANCH  19  20
ENDBRANCH  18  19
BRANCH  18  26
HETATM   26  N           1     -21.362 -10.016  -5.247  0.00  0.00    -0.067 N 
HETATM   27  H           1     -21.918 -10.673  -4.655  0.00  0.00     0.275 HD
HETATM   28  H           1     -21.804  -9.940  -6.191  0.00  0.00     0.275 HD
HETATM   29  H           1     -20.387 -10.380  -5.348  0.00  0.00     0.275 HD
ENDBRANCH  18  26
ENDBRANCH   1  18
TORSDOF 11
ENDMDL
MODEL 4
REMARK VINA RESULT:      -6.5      3.102      7.964
REMARK  11 active torsions:
REMARK  status: ('A' for Active; 'I' for Inactive)
REMARK    1  A    between atoms: N_1  and  C_20 
REMARK    2  A    between atoms: C_2  and  C_3 
REMARK    3  A    between atoms: C_3  and  C_5 
REMARK    4  A    between atoms: C_3  and  N_17 
REMARK    5  A    between atoms: C_5  and  C_10 
REMARK       I    between atoms: C_7  and  N_17 
REMARK    6  A    between atoms: C_7  and  C_8 
REMARK    7  A    between atoms: C_8  and  C_22 
REMARK    8  A    between atoms: C_8  and  N_11 
REMARK    9  A    between atoms: C_9  and  O_14 
REMARK   10  A    between atoms: C_20  and  C_21 
REMARK   11  A    between atoms: C_21  and  C_22 
ROOT
HETATM    1  C           1     -20.925  -6.093  -6.163  0.00  0.00     0.249 C 
HETATM    2  O           1     -20.837  -5.378  -5.195  0.00  0.00    -0.271 OA
HETATM    3  N           1     -20.668  -7.433  -6.051  0.00  0.00    -0.344 N 
HETATM    4  H           1     -20.742  -8.033  -6.863  0.00  0.00     0.163 HD
ENDROOT
BRANCH   3   5
HETATM    5  C           1     -20.289  -7.993  -4.768  0.00  0.00     0.189 C 
BRANCH   5   6
HETATM    6  C           1     -19.034  -8.814  -4.929  0.00  0.00     0.197 C 
HETATM    7  O           1     -18.615  -9.098  -6.071  0.00  0.00    -0.646 OA
HETATM    8  O           1     -18.413  -9.211  -3.919  0.00  0.00    -0.646 OA
ENDBRANCH   5   6
BRANCH   5   9
HETATM    9  C           1     -21.414  -8.879  -4.250  0.00  0.00     0.074 C 
BRANCH   9  10
HETATM   10  C           1     -21.647  -8.593  -2.798  0.00  0.00    -0.056 A 
HETATM   11  C           1     -21.784  -7.276  -2.360  0.00  0.00     0.010 A 
HETATM   12  C           1     -22.002  -7.010  -1.008  0.00  0.00     0.037 A 
HETATM   13  C           1     -22.081  -8.062  -0.095  0.00  0.00     0.065 A 
HETATM   14  C           1     -21.944  -9.379  -0.533  0.00  0.00     0.037 A 
HETATM   15  C           1     -21.727  -9.644  -1.885  0.00  0.00     0.010 A 
BRANCH  13  16
HETATM   16  O           1     -22.292  -7.804   1.219  0.00  0.00    -0.361 OA
HETATM   17  H           1     -21.503  -7.358   1.568  0.00  0.00     0.217 HD
ENDBRANCH  13  16
ENDBRANCH   9  10
ENDBRANCH   5   9
ENDBRANCH   3   5
BRANCH   1  18
HETATM   18  C           1     -21.320  -5.511  -7.499  0.00  0.00     0.274 C 
BRANCH  18  19
HETATM   19  C           1     -20.067  -5.120  -8.272  0.00  0.00     0.044 C 
BRANCH  19  20
HETATM   20  C           1     -20.392  -3.977  -9.223  0.00  0.00     0.030 C 
BRANCH  20  21
HETATM   21  C           1     -20.359  -4.483 -10.659  0.00  0.00     0.230 C 
BRANCH  21  22
HETATM   22  N           1     -20.438  -3.320 -11.602  0.00  0.00    -0.079 N 
HETATM   23  H           1     -21.305  -2.771 -11.409  0.00  0.00     0.274 HD
HETATM   24  H           1     -20.461  -3.671 -12.587  0.00  0.00     0.274 HD
HETATM   25  H           1     -19.602  -2.707 -11.470  0.00  0.00     0.274 HD
ENDBRANCH  21  22
ENDBRANCH  20  21
ENDBRANCH  19  20
ENDBRANCH  18  19
BRANCH  18  26
HETATM   26  N           1     -22.171  -4.295  -7.282  0.00  0.00    -0.067 N 
HETATM   27  H           1     -21.614  -3.562  -6.788  0.00  0.00     0.275 HD
HETATM   28  H           1     -22.491  -3.925  -8.205  0.00  0.00     0.275 HD
HETATM   29  H           1     -23.002  -4.551  -6.701  0.00  0.00     0.275 HD
ENDBRANCH  18  26
ENDBRANCH   1  18
TORSDOF 11
ENDMDL
MODEL 5
REMARK VINA RESULT:      -6.5      2.965      7.526
REMARK  11 active torsions:
REMARK  status: ('A' for Active; 'I' for Inactive)
REMARK    1  A    between atoms: N_1  and  C_20 
REMARK    2  A    between atoms: C_2  and  C_3 
REMARK    3  A    between atoms: C_3  and  C_5 
REMARK    4  A    between atoms: C_3  and  N_17 
REMARK    5  A    between atoms: C_5  and  C_10 
REMARK       I    between atoms: C_7  and  N_17 
REMARK    6  A    between atoms: C_7  and  C_8 
REMARK    7  A    between atoms: C_8  and  C_22 
REMARK    8  A    between atoms: C_8  and  N_11 
REMARK    9  A    between atoms: C_9  and  O_14 
REMARK   10  A    between atoms: C_20  and  C_21 
REMARK   11  A    between atoms: C_21  and  C_22 
ROOT
HETATM    1  C           1     -20.392  -5.329  -6.011  0.00  0.00     0.249 C 
HETATM    2  O           1     -20.405  -4.801  -4.925  0.00  0.00    -0.271 OA
HETATM    3  N           1     -20.246  -6.687  -6.110  0.00  0.00    -0.344 N 
HETATM    4  H           1     -20.236  -7.130  -7.020  0.00  0.00     0.163 HD
ENDROOT
BRANCH   3   5
HETATM    5  C           1     -20.105  -7.489  -4.910  0.00  0.00     0.189 C 
BRANCH   5   6
HETATM    6  C           1     -19.068  -8.560  -5.140  0.00  0.00     0.197 C 
HETATM    7  O           1     -18.639  -9.232  -4.178  0.00  0.00    -0.646 OA
HETATM    8  O           1     -18.637  -8.775  -6.294  0.00  0.00    -0.646 OA
ENDBRANCH   5   6
BRANCH   5   9
HETATM    9  C           1     -21.442  -8.139  -4.576  0.00  0.00     0.074 C 
BRANCH   9  10
HETATM   10  C           1     -21.693  -8.039  -3.103  0.00  0.00    -0.056 A 
HETATM   11  C           1     -21.647  -9.184  -2.309  0.00  0.00     0.010 A 
HETATM   12  C           1     -21.880  -9.090  -0.937  0.00  0.00     0.037 A 
HETATM   13  C           1     -22.161  -7.851  -0.360  0.00  0.00     0.065 A 
HETATM   14  C           1     -22.207  -6.706  -1.155  0.00  0.00     0.037 A 
HETATM   15  C           1     -21.973  -6.800  -2.527  0.00  0.00     0.010 A 
BRANCH  13  16
HETATM   16  O           1     -22.388  -7.760   0.973  0.00  0.00    -0.361 OA
HETATM   17  H           1     -21.858  -8.444   1.415  0.00  0.00     0.217 HD
ENDBRANCH  13  16
ENDBRANCH   9  10
ENDBRANCH   5   9
ENDBRANCH   3   5
BRANCH   1  18
HETATM   18  C           1     -20.538  -4.493  -7.259  0.00  0.00     0.274 C 
BRANCH  18  19
HETATM   19  C           1     -21.554  -5.144  -8.190  0.00  0.00     0.044 C 
BRANCH  19  20
HETATM   20  C           1     -22.659  -4.147  -8.511  0.00  0.00     0.030 C 
BRANCH  20  21
HETATM   21  C           1     -23.342  -4.546  -9.812  0.00  0.00     0.230 C 
BRANCH  21  22
HETATM   22  N           1     -24.830  -4.487  -9.636  0.00  0.00    -0.079 N 
HETATM   23  H           1     -25.185  -3.562  -9.966  0.00  0.00     0.274 HD
HETATM   24  H           1     -25.067  -4.609  -8.625  0.00  0.00     0.274 HD
HETATM   25  H           1     -25.278  -5.250 -10.193  0.00  0.00     0.274 HD
ENDBRANCH  21  22
ENDBRANCH  20  21
ENDBRANCH  19  20
ENDBRANCH  18  19
BRANCH  18  26
HETATM   26  N           1     -19.213  -4.399  -7.955  0.00  0.00    -0.067 N 
HETATM   27  H           1     -18.633  -5.235  -7.718  0.00  0.00     0.275 HD
HETATM   28  H           1     -19.364  -4.363  -8.988  0.00  0.00     0.275 HD
HETATM   29  H           1     -18.717  -3.532  -7.644  0.00  0.00     0.275 HD
ENDBRANCH  18  26
ENDBRANCH   1  18
TORSDOF 11
ENDMDL
MODEL 6
REMARK VINA RESULT:      -6.3      3.792      8.714
REMARK  11 active torsions:
REMARK  status: ('A' for Active; 'I' for Inactive)
REMARK    1  A    between atoms: N_1  and  C_20 
REMARK    2  A    between atoms: C_2  and  C_3 
REMARK    3  A    between atoms: C_3  and  C_5 
REMARK    4  A    between atoms: C_3  and  N_17 
REMARK    5  A    between atoms: C_5  and  C_10 
REMARK       I    between atoms: C_7  and  N_17 
REMARK    6  A    between atoms: C_7  and  C_8 
REMARK    7  A    between atoms: C_8  and  C_22 
REMARK    8  A    between atoms: C_8  and  N_11 
REMARK    9  A    between atoms: C_9  and  O_14 
REMARK   10  A    between atoms: C_20  and  C_21 
REMARK   11  A    between atoms: C_21  and  C_22 
ROOT
HETATM    1  C           1     -20.753  -8.456  -3.915  0.00  0.00     0.249 C 
HETATM    2  O           1     -21.783  -8.991  -4.249  0.00  0.00    -0.271 OA
HETATM    3  N           1     -20.591  -8.027  -2.625  0.00  0.00    -0.344 N 
HETATM    4  H           1     -19.728  -7.580  -2.345  0.00  0.00     0.163 HD
ENDROOT
BRANCH   3   5
HETATM    5  C           1     -21.657  -8.216  -1.660  0.00  0.00     0.189 C 
BRANCH   5   6
HETATM    6  C           1     -22.313  -6.888  -1.370  0.00  0.00     0.197 C 
HETATM    7  O           1     -22.919  -6.713  -0.292  0.00  0.00    -0.646 OA
HETATM    8  O           1     -22.251  -5.964  -2.210  0.00  0.00    -0.646 OA
ENDBRANCH   5   6
BRANCH   5   9
HETATM    9  C           1     -21.079  -8.790  -0.373  0.00  0.00     0.074 C 
BRANCH   9  10
HETATM   10  C           1     -21.750 -10.092  -0.061  0.00  0.00    -0.056 A 
HETATM   11  C           1     -23.103 -10.267  -0.351  0.00  0.00     0.010 A 
HETATM   12  C           1     -23.727 -11.479  -0.060  0.00  0.00     0.037 A 
HETATM   13  C           1     -22.999 -12.517   0.521  0.00  0.00     0.065 A 
HETATM   14  C           1     -21.645 -12.343   0.812  0.00  0.00     0.037 A 
HETATM   15  C           1     -21.021 -11.129   0.520  0.00  0.00     0.010 A 
BRANCH  13  16
HETATM   16  O           1     -23.605 -13.696   0.804  0.00  0.00    -0.361 OA
HETATM   17  H           1     -23.252 -14.368   0.197  0.00  0.00     0.217 HD
ENDBRANCH  13  16
ENDBRANCH   9  10
ENDBRANCH   5   9
ENDBRANCH   3   5
BRANCH   1  18
HETATM   18  C           1     -19.644  -8.260  -4.920  0.00  0.00     0.274 C 
BRANCH  18  19
HETATM   19  C           1     -20.109  -7.302  -6.009  0.00  0.00     0.044 C 
BRANCH  19  20
HETATM   20  C           1     -20.512  -5.976  -5.381  0.00  0.00     0.030 C 
BRANCH  20  21
HETATM   21  C           1     -21.862  -5.540  -5.933  0.00  0.00     0.230 C 
BRANCH  21  22
HETATM   22  N           1     -22.959  -6.130  -5.098  0.00  0.00    -0.079 N 
HETATM   23  H           1     -22.736  -7.127  -4.881  0.00  0.00     0.274 HD
HETATM   24  H           1     -23.862  -6.082  -5.623  0.00  0.00     0.274 HD
HETATM   25  H           1     -23.046  -5.592  -4.206  0.00  0.00     0.274 HD
ENDBRANCH  21  22
ENDBRANCH  20  21
ENDBRANCH  19  20
ENDBRANCH  18  19
BRANCH  18  26
HETATM   26  N           1     -19.288  -9.581  -5.535  0.00  0.00    -0.067 N 
HETATM   27  H           1     -20.102  -9.943  -6.080  0.00  0.00     0.275 HD
HETATM   28  H           1     -18.470  -9.458  -6.173  0.00  0.00     0.275 HD
HETATM   29  H           1     -19.043 -10.262  -4.780  0.00  0.00     0.275 HD
ENDBRANCH  18  26
ENDBRANCH   1  18
TORSDOF 11
ENDMDL
MODEL 7
REMARK VINA RESULT:      -6.2      2.785      7.620
REMARK  11 active torsions:
REMARK  status: ('A' for Active; 'I' for Inactive)
REMARK    1  A    between atoms: N_1  and  C_20 
REMARK    2  A    between atoms: C_2  and  C_3 
REMARK    3  A    between atoms: C_3  and  C_5 
REMARK    4  A    between atoms: C_3  and  N_17 
REMARK    5  A    between atoms: C_5  and  C_10 
REMARK       I    between atoms: C_7  and  N_17 
REMARK    6  A    between atoms: C_7  and  C_8 
REMARK    7  A    between atoms: C_8  and  C_22 
REMARK    8  A    between atoms: C_8  and  N_11 
REMARK    9  A    between atoms: C_9  and  O_14 
REMARK   10  A    between atoms: C_20  and  C_21 
REMARK   11  A    between atoms: C_21  and  C_22 
ROOT
HETATM    1  C           1     -20.530  -7.253  -5.549  0.00  0.00     0.249 C 
HETATM    2  O           1     -19.548  -7.477  -6.215  0.00  0.00    -0.271 OA
HETATM    3  N           1     -20.793  -8.014  -4.441  0.00  0.00    -0.344 N 
HETATM    4  H           1     -21.616  -7.827  -3.882  0.00  0.00     0.163 HD
ENDROOT
BRANCH   3   5
HETATM    5  C           1     -19.892  -9.088  -4.069  0.00  0.00     0.189 C 
BRANCH   5   6
HETATM    6  C           1     -20.620 -10.407  -4.155  0.00  0.00     0.197 C 
HETATM    7  O           1     -21.838 -10.431  -4.430  0.00  0.00    -0.646 OA
HETATM    8  O           1     -20.004 -11.475  -3.949  0.00  0.00    -0.646 OA
ENDBRANCH   5   6
BRANCH   5   9
HETATM    9  C           1     -19.403  -8.868  -2.644  0.00  0.00     0.074 C 
BRANCH   9  10
HETATM   10  C           1     -20.568  -8.548  -1.759  0.00  0.00    -0.056 A 
HETATM   11  C           1     -21.078  -9.520  -0.898  0.00  0.00     0.010 A 
HETATM   12  C           1     -22.163  -9.222  -0.074  0.00  0.00     0.037 A 
HETATM   13  C           1     -22.739  -7.952  -0.112  0.00  0.00     0.065 A 
HETATM   14  C           1     -22.229  -6.979  -0.972  0.00  0.00     0.037 A 
HETATM   15  C           1     -21.144  -7.278  -1.796  0.00  0.00     0.010 A 
BRANCH  13  16
HETATM   16  O           1     -23.793  -7.662   0.689  0.00  0.00    -0.361 OA
HETATM   17  H           1     -23.658  -8.114   1.538  0.00  0.00     0.217 HD
ENDBRANCH  13  16
ENDBRANCH   9  10
ENDBRANCH   5   9
ENDBRANCH   3   5
BRANCH   1  18
HETATM   18  C           1     -21.467  -6.136  -5.936  0.00  0.00     0.274 C 
BRANCH  18  19
HETATM   19  C           1     -20.719  -4.809  -5.898  0.00  0.00     0.044 C 
BRANCH  19  20
HETATM   20  C           1     -21.274  -3.882  -6.970  0.00  0.00     0.030 C 
BRANCH  20  21
HETATM   21  C           1     -22.157  -4.677  -7.923  0.00  0.00     0.230 C 
BRANCH  21  22
HETATM   22  N           1     -23.546  -4.110  -7.909  0.00  0.00    -0.079 N 
HETATM   23  H           1     -23.863  -3.985  -6.921  0.00  0.00     0.274 HD
HETATM   24  H           1     -24.195  -4.764  -8.402  0.00  0.00     0.274 HD
HETATM   25  H           1     -23.549  -3.184  -8.395  0.00  0.00     0.274 HD
ENDBRANCH  21  22
ENDBRANCH  20  21
ENDBRANCH  19  20
ENDBRANCH  18  19
BRANCH  18  26
HETATM   26  N           1     -22.615  -6.089  -4.971  0.00  0.00    -0.067 N 
HETATM   27  H           1     -22.343  -5.531  -4.131  0.00  0.00     0.275 HD
HETATM   28  H           1     -23.440  -5.643  -5.433  0.00  0.00     0.275 HD
HETATM   29  H           1     -22.863  -7.062  -4.678  0.00  0.00     0.275 HD
ENDBRANCH  18  26
ENDBRANCH   1  18
TORSDOF 11
ENDMDL
MODEL 8
REMARK VINA RESULT:      -6.2      2.838      8.425
REMARK  11 active torsions:
REMARK  status: ('A' for Active; 'I' for Inactive)
REMARK    1  A    between atoms: N_1  and  C_20 
REMARK    2  A    between atoms: C_2  and  C_3 
REMARK    3  A    between atoms: C_3  and  C_5 
REMARK    4  A    between atoms: C_3  and  N_17 
REMARK    5  A    between atoms: C_5  and  C_10 
REMARK       I    between atoms: C_7  and  N_17 
REMARK    6  A    between atoms: C_7  and  C_8 
REMARK    7  A    between atoms: C_8  and  C_22 
REMARK    8  A    between atoms: C_8  and  N_11 
REMARK    9  A    between atoms: C_9  and  O_14 
REMARK   10  A    between atoms: C_20  and  C_21 
REMARK   11  A    between atoms: C_21  and  C_22 
ROOT
HETATM    1  C           1     -21.801  -6.268  -4.959  0.00  0.00     0.249 C 
HETATM    2  O           1     -22.996  -6.436  -4.935  0.00  0.00    -0.271 OA
HETATM    3  N           1     -21.022  -6.742  -3.937  0.00  0.00    -0.344 N 
HETATM    4  H           1     -20.020  -6.602  -3.957  0.00  0.00     0.163 HD
ENDROOT
BRANCH   3   5
HETATM    5  C           1     -21.635  -7.448  -2.828  0.00  0.00     0.189 C 
BRANCH   5   6
HETATM    6  C           1     -22.116  -6.451  -1.803  0.00  0.00     0.197 C 
HETATM    7  O           1     -21.820  -5.243  -1.919  0.00  0.00    -0.646 OA
HETATM    8  O           1     -22.810  -6.834  -0.836  0.00  0.00    -0.646 OA
ENDBRANCH   5   6
BRANCH   5   9
HETATM    9  C           1     -20.610  -8.378  -2.192  0.00  0.00     0.074 C 
BRANCH   9  10
HETATM   10  C           1     -21.317  -9.486  -1.474  0.00  0.00    -0.056 A 
HETATM   11  C           1     -22.356 -10.171  -2.103  0.00  0.00     0.010 A 
HETATM   12  C           1     -23.015 -11.203  -1.434  0.00  0.00     0.037 A 
HETATM   13  C           1     -22.634 -11.548  -0.137  0.00  0.00     0.065 A 
HETATM   14  C           1     -21.595 -10.863   0.491  0.00  0.00     0.037 A 
HETATM   15  C           1     -20.936  -9.831  -0.178  0.00  0.00     0.010 A 
BRANCH  13  16
HETATM   16  O           1     -23.274 -12.551   0.513  0.00  0.00    -0.361 OA
HETATM   17  H           1     -24.227 -12.365   0.488  0.00  0.00     0.217 HD
ENDBRANCH  13  16
ENDBRANCH   9  10
ENDBRANCH   5   9
ENDBRANCH   3   5
BRANCH   1  18
HETATM   18  C           1     -21.165  -5.533  -6.113  0.00  0.00     0.274 C 
BRANCH  18  19
HETATM   19  C           1     -22.235  -4.766  -6.879  0.00  0.00     0.044 C 
BRANCH  19  20
HETATM   20  C           1     -21.627  -4.170  -8.142  0.00  0.00     0.030 C 
BRANCH  20  21
HETATM   21  C           1     -22.740  -3.726  -9.081  0.00  0.00     0.230 C 
BRANCH  21  22
HETATM   22  N           1     -24.065  -3.876  -8.395  0.00  0.00    -0.079 N 
HETATM   23  H           1     -24.078  -4.767  -7.849  0.00  0.00     0.274 HD
HETATM   24  H           1     -24.828  -3.895  -9.109  0.00  0.00     0.274 HD
HETATM   25  H           1     -24.215  -3.070  -7.747  0.00  0.00     0.274 HD
ENDBRANCH  21  22
ENDBRANCH  20  21
ENDBRANCH  19  20
ENDBRANCH  18  19
BRANCH  18  26
HETATM   26  N           1     -20.506  -6.520  -7.031  0.00  0.00    -0.067 N 
HETATM   27  H           1     -19.954  -7.206  -6.468  0.00  0.00     0.275 HD
HETATM   28  H           1     -21.237  -7.028  -7.578  0.00  0.00     0.275 HD
HETATM   29  H           1     -19.868  -6.015  -7.687  0.00  0.00     0.275 HD
ENDBRANCH  18  26
ENDBRANCH   1  18
TORSDOF 11
ENDMDL
MODEL 9
REMARK VINA RESULT:      -6.0      4.153      8.974
REMARK  11 active torsions:
REMARK  status: ('A' for Active; 'I' for Inactive)
REMARK    1  A    between atoms: N_1  and  C_20 
REMARK    2  A    between atoms: C_2  and  C_3 
REMARK    3  A    between atoms: C_3  and  C_5 
REMARK    4  A    between atoms: C_3  and  N_17 
REMARK    5  A    between atoms: C_5  and  C_10 
REMARK       I    between atoms: C_7  and  N_17 
REMARK    6  A    between atoms: C_7  and  C_8 
REMARK    7  A    between atoms: C_8  and  C_22 
REMARK    8  A    between atoms: C_8  and  N_11 
REMARK    9  A    between atoms: C_9  and  O_14 
REMARK   10  A    between atoms: C_20  and  C_21 
REMARK   11  A    between atoms: C_21  and  C_22 
ROOT
HETATM    1  C           1     -21.213  -9.200  -3.544  0.00  0.00     0.249 C 
HETATM    2  O           1     -22.086 -10.032  -3.605  0.00  0.00    -0.271 OA
HETATM    3  N           1     -21.078  -8.430  -2.419  0.00  0.00    -0.344 N 
HETATM    4  H           1     -20.346  -7.734  -2.367  0.00  0.00     0.163 HD
ENDROOT
BRANCH   3   5
HETATM    5  C           1     -21.985  -8.614  -1.303  0.00  0.00     0.189 C 
BRANCH   5   6
HETATM    6  C           1     -22.480  -7.270  -0.830  0.00  0.00     0.197 C 
HETATM    7  O           1     -22.193  -6.238  -1.473  0.00  0.00    -0.646 OA
HETATM    8  O           1     -23.176  -7.189   0.205  0.00  0.00    -0.646 OA
ENDBRANCH   5   6
BRANCH   5   9
HETATM    9  C           1     -21.253  -9.315  -0.166  0.00  0.00     0.074 C 
BRANCH   9  10
HETATM   10  C           1     -21.899 -10.640   0.104  0.00  0.00    -0.056 A 
HETATM   11  C           1     -21.205 -11.623   0.809  0.00  0.00     0.010 A 
HETATM   12  C           1     -21.806 -12.856   1.060  0.00  0.00     0.037 A 
HETATM   13  C           1     -23.101 -13.105   0.605  0.00  0.00     0.065 A 
HETATM   14  C           1     -23.795 -12.122  -0.100  0.00  0.00     0.037 A 
HETATM   15  C           1     -23.193 -10.889  -0.351  0.00  0.00     0.010 A 
BRANCH  13  16
HETATM   16  O           1     -23.686 -14.304   0.848  0.00  0.00    -0.361 OA
HETATM   17  H           1     -24.383 -14.438   0.185  0.00  0.00     0.217 HD
ENDBRANCH  13  16
ENDBRANCH   9  10
ENDBRANCH   5   9
ENDBRANCH   3   5
BRANCH   1  18
HETATM   18  C           1     -20.269  -9.009  -4.706  0.00  0.00     0.274 C 
BRANCH  18  19
HETATM   19  C           1     -20.105  -7.521  -4.987  0.00  0.00     0.044 C 
BRANCH  19  20
HETATM   20  C           1     -21.006  -7.120  -6.146  0.00  0.00     0.030 C 
BRANCH  20  21
HETATM   21  C           1     -21.787  -5.867  -5.775  0.00  0.00     0.230 C 
BRANCH  21  22
HETATM   22  N           1     -22.580  -6.122  -4.528  0.00  0.00    -0.079 N 
HETATM   23  H           1     -23.342  -5.411  -4.447  0.00  0.00     0.274 HD
HETATM   24  H           1     -21.953  -6.054  -3.695  0.00  0.00     0.274 HD
HETATM   25  H           1     -23.000  -7.078  -4.571  0.00  0.00     0.274 HD
ENDBRANCH  21  22
ENDBRANCH  20  21
ENDBRANCH  19  20
ENDBRANCH  18  19
BRANCH  18  26
HETATM   26  N           1     -20.829  -9.687  -5.921  0.00  0.00    -0.067 N 
HETATM   27  H           1     -20.352  -9.323  -6.776  0.00  0.00     0.275 HD
HETATM   28  H           1     -20.671 -10.718  -5.848  0.00  0.00     0.275 HD
HETATM   29  H           1     -21.855  -9.495  -5.986  0.00  0.00     0.275 HD
ENDBRANCH  18  26
ENDBRANCH   1  18
TORSDOF 11
ENDMDL
