MODEL 1
REMARK VINA RESULT:      -6.0      0.000      0.000
REMARK  9 active torsions:
REMARK  status: ('A' for Active; 'I' for Inactive)
REMARK    1  A    between atoms: C_1  and  C_12 
REMARK    2  A    between atoms: C_1  and  C_5 
REMARK    3  A    between atoms: C_2  and  Se_10 
REMARK    4  A    between atoms: C_2  and  C_14 
REMARK    5  A    between atoms: N_8  and  C_12 
REMARK    6  A    between atoms: N_11  and  C_20 
REMARK       I    between atoms: N_11  and  C_19 
REMARK    7  A    between atoms: C_12  and  C_19 
REMARK    8  A    between atoms: C_14  and  C_20 
REMARK    9  A    between atoms: C_18  and  C_20 
ROOT
HETATM    1  H           1     -35.094  -0.568 -11.332  0.00  0.00     0.163 HD
HETATM    2  N           1     -35.258  -1.074 -12.192  0.00  0.00    -0.345 N 
HETATM    3  O           1     -34.783  -2.849 -13.463  0.00  0.00    -0.271 OA
HETATM    4  C           1     -34.587  -2.244 -12.436  0.00  0.00     0.249 C 
ENDROOT
BRANCH   4   5
HETATM    5  C           1     -33.606  -2.777 -11.421  0.00  0.00     0.275 C 
BRANCH   5   6
HETATM    6  C           1     -34.236  -3.942 -10.669  0.00  0.00     0.046 C 
BRANCH   6   7
HETATM    7  C           1     -33.896  -5.247 -11.377  0.00  0.00    -0.020 C 
HETATM    8  C           1     -32.420  -5.252 -11.754  0.00  0.00     0.009 C 
HETATM    9  C           1     -34.185  -6.419 -10.448  0.00  0.00     0.009 C 
ENDBRANCH   6   7
ENDBRANCH   5   6
BRANCH   5  10
HETATM   10  N           1     -33.251  -1.690 -10.451  0.00  0.00    -0.066 N 
HETATM   11  H           1     -33.056  -2.109  -9.514  0.00  0.00     0.275 HD
HETATM   12  H           1     -34.048  -1.019 -10.374  0.00  0.00     0.275 HD
HETATM   13  H           1     -32.400  -1.185 -10.790  0.00  0.00     0.275 HD
ENDBRANCH   5  10
ENDBRANCH   4   5
BRANCH   2  14
HETATM   14  C           1     -36.200  -0.562 -13.167  0.00  0.00     0.185 C 
BRANCH  14  15
HETATM   15  C           1     -37.426  -0.015 -12.448  0.00  0.00     0.036 C 
BRANCH  15  16
HETATM   16  C           1     -37.477  -0.575 -11.032  0.00  0.00     0.003 C 
BRANCH  16  17
HETATM   17 Se           1     -37.319   0.884  -9.750  0.00  0.00     0.000 Se
HETATM   18  C           1     -37.538  -0.253  -8.182  0.00  0.00     0.000 C 
ENDBRANCH  16  17
ENDBRANCH  15  16
ENDBRANCH  14  15
BRANCH  14  19
HETATM   19  C           1     -35.550   0.541 -13.965  0.00  0.00     0.196 C 
HETATM   20  O           1     -34.599   1.188 -13.476  0.00  0.00    -0.646 OA
HETATM   21  O           1     -35.962   0.807 -15.114  0.00  0.00    -0.646 OA
ENDBRANCH  14  19
ENDBRANCH   2  14
TORSDOF 9
ENDMDL
MODEL 2
REMARK VINA RESULT:      -5.8      2.597      3.627
REMARK  9 active torsions:
REMARK  status: ('A' for Active; 'I' for Inactive)
REMARK    1  A    between atoms: C_1  and  C_12 
REMARK    2  A    between atoms: C_1  and  C_5 
REMARK    3  A    between atoms: C_2  and  Se_10 
REMARK    4  A    between atoms: C_2  and  C_14 
REMARK    5  A    between atoms: N_8  and  C_12 
REMARK    6  A    between atoms: N_11  and  C_20 
REMARK       I    between atoms: N_11  and  C_19 
REMARK    7  A    between atoms: C_12  and  C_19 
REMARK    8  A    between atoms: C_14  and  C_20 
REMARK    9  A    between atoms: C_18  and  C_20 
ROOT
HETATM    1  H           1     -35.739  -2.334 -12.651  0.00  0.00     0.163 HD
HETATM    2  N           1     -35.207  -1.825 -11.957  0.00  0.00    -0.345 N 
HETATM    3  O           1     -33.534  -1.830 -10.477  0.00  0.00    -0.271 OA
HETATM    4  C           1     -34.169  -2.438 -11.305  0.00  0.00     0.249 C 
ENDROOT
BRANCH   4   5
HETATM    5  C           1     -33.818  -3.870 -11.624  0.00  0.00     0.275 C 
BRANCH   5   6
HETATM    6  C           1     -34.114  -4.747 -10.414  0.00  0.00     0.046 C 
BRANCH   6   7
HETATM    7  C           1     -34.233  -6.199 -10.855  0.00  0.00    -0.020 C 
HETATM    8  C           1     -34.834  -7.026  -9.727  0.00  0.00     0.009 C 
HETATM    9  C           1     -35.133  -6.284 -12.081  0.00  0.00     0.009 C 
ENDBRANCH   6   7
ENDBRANCH   5   6
BRANCH   5  10
HETATM   10  N           1     -32.361  -3.963 -11.965  0.00  0.00    -0.066 N 
HETATM   11  H           1     -31.903  -3.039 -11.795  0.00  0.00     0.275 HD
HETATM   12  H           1     -32.255  -4.224 -12.971  0.00  0.00     0.275 HD
HETATM   13  H           1     -31.909  -4.690 -11.366  0.00  0.00     0.275 HD
ENDBRANCH   5  10
ENDBRANCH   4   5
BRANCH   2  14
HETATM   14  C           1     -35.544  -0.448 -11.650  0.00  0.00     0.185 C 
BRANCH  14  15
HETATM   15  C           1     -35.511   0.378 -12.928  0.00  0.00     0.036 C 
BRANCH  15  16
HETATM   16  C           1     -36.524  -0.180 -13.920  0.00  0.00     0.003 C 
BRANCH  16  17
HETATM   17 Se           1     -36.182   0.565 -15.688  0.00  0.00     0.000 Se
HETATM   18  C           1     -35.599  -1.124 -16.467  0.00  0.00     0.000 C 
ENDBRANCH  16  17
ENDBRANCH  15  16
ENDBRANCH  14  15
BRANCH  14  19
HETATM   19  C           1     -36.926  -0.391 -11.048  0.00  0.00     0.196 C 
HETATM   20  O           1     -37.629  -1.423 -10.998  0.00  0.00    -0.646 OA
HETATM   21  O           1     -37.367   0.688 -10.599  0.00  0.00    -0.646 OA
ENDBRANCH  14  19
ENDBRANCH   2  14
TORSDOF 9
ENDMDL
MODEL 3
REMARK VINA RESULT:      -5.4     14.248     16.319
REMARK  9 active torsions:
REMARK  status: ('A' for Active; 'I' for Inactive)
REMARK    1  A    between atoms: C_1  and  C_12 
REMARK    2  A    between atoms: C_1  and  C_5 
REMARK    3  A    between atoms: C_2  and  Se_10 
REMARK    4  A    between atoms: C_2  and  C_14 
REMARK    5  A    between atoms: N_8  and  C_12 
REMARK    6  A    between atoms: N_11  and  C_20 
REMARK       I    between atoms: N_11  and  C_19 
REMARK    7  A    between atoms: C_12  and  C_19 
REMARK    8  A    between atoms: C_14  and  C_20 
REMARK    9  A    between atoms: C_18  and  C_20 
ROOT
HETATM    1  H           1     -20.838  -4.422  -4.603  0.00  0.00     0.163 HD
HETATM    2  N           1     -21.143  -5.292  -5.020  0.00  0.00    -0.345 N 
HETATM    3  O           1     -21.767  -7.416  -4.724  0.00  0.00    -0.271 OA
HETATM    4  C           1     -21.403  -6.378  -4.226  0.00  0.00     0.249 C 
ENDROOT
BRANCH   4   5
HETATM    5  C           1     -21.238  -6.275  -2.730  0.00  0.00     0.275 C 
BRANCH   5   6
HETATM    6  C           1     -20.751  -7.610  -2.180  0.00  0.00     0.046 C 
BRANCH   6   7
HETATM    7  C           1     -21.824  -8.213  -1.284  0.00  0.00    -0.020 C 
HETATM    8  C           1     -22.151  -9.622  -1.760  0.00  0.00     0.009 C 
HETATM    9  C           1     -21.316  -8.268   0.151  0.00  0.00     0.009 C 
ENDBRANCH   6   7
ENDBRANCH   5   6
BRANCH   5  10
HETATM   10  N           1     -22.556  -5.928  -2.104  0.00  0.00    -0.066 N 
HETATM   11  H           1     -22.852  -6.700  -1.465  0.00  0.00     0.275 HD
HETATM   12  H           1     -23.273  -5.801  -2.853  0.00  0.00     0.275 HD
HETATM   13  H           1     -22.460  -5.042  -1.558  0.00  0.00     0.275 HD
ENDBRANCH   5  10
ENDBRANCH   4   5
BRANCH   2  14
HETATM   14  C           1     -21.302  -5.391  -6.458  0.00  0.00     0.185 C 
BRANCH  14  15
HETATM   15  C           1     -21.856  -4.080  -6.997  0.00  0.00     0.036 C 
BRANCH  15  16
HETATM   16  C           1     -23.163  -4.345  -7.733  0.00  0.00     0.003 C 
BRANCH  16  17
HETATM   17 Se           1     -22.815  -4.493  -9.645  0.00  0.00     0.000 Se
HETATM   18  C           1     -24.368  -3.442 -10.175  0.00  0.00     0.000 C 
ENDBRANCH  16  17
ENDBRANCH  15  16
ENDBRANCH  14  15
BRANCH  14  19
HETATM   19  C           1     -19.962  -5.671  -7.094  0.00  0.00     0.196 C 
HETATM   20  O           1     -19.323  -4.746  -7.639  0.00  0.00    -0.646 OA
HETATM   21  O           1     -19.492  -6.829  -7.075  0.00  0.00    -0.646 OA
ENDBRANCH  14  19
ENDBRANCH   2  14
TORSDOF 9
ENDMDL
MODEL 4
REMARK VINA RESULT:      -5.4     13.171     15.445
REMARK  9 active torsions:
REMARK  status: ('A' for Active; 'I' for Inactive)
REMARK    1  A    between atoms: C_1  and  C_12 
REMARK    2  A    between atoms: C_1  and  C_5 
REMARK    3  A    between atoms: C_2  and  Se_10 
REMARK    4  A    between atoms: C_2  and  C_14 
REMARK    5  A    between atoms: N_8  and  C_12 
REMARK    6  A    between atoms: N_11  and  C_20 
REMARK       I    between atoms: N_11  and  C_19 
REMARK    7  A    between atoms: C_12  and  C_19 
REMARK    8  A    between atoms: C_14  and  C_20 
REMARK    9  A    between atoms: C_18  and  C_20 
ROOT
HETATM    1  H           1     -22.612  -6.331  -7.425  0.00  0.00     0.163 HD
HETATM    2  N           1     -22.155  -5.491  -7.095  0.00  0.00    -0.345 N 
HETATM    3  O           1     -21.792  -3.304  -7.365  0.00  0.00    -0.271 OA
HETATM    4  C           1     -22.337  -4.307  -7.759  0.00  0.00     0.249 C 
ENDROOT
BRANCH   4   5
HETATM    5  C           1     -23.219  -4.255  -8.982  0.00  0.00     0.275 C 
BRANCH   5   6
HETATM    6  C           1     -22.406  -3.765 -10.174  0.00  0.00     0.046 C 
BRANCH   6   7
HETATM    7  C           1     -23.337  -3.504 -11.351  0.00  0.00    -0.020 C 
HETATM    8  C           1     -22.678  -2.525 -12.313  0.00  0.00     0.009 C 
HETATM    9  C           1     -23.619  -4.814 -12.075  0.00  0.00     0.009 C 
ENDBRANCH   6   7
ENDBRANCH   5   6
BRANCH   5  10
HETATM   10  N           1     -24.361  -3.315  -8.735  0.00  0.00    -0.066 N 
HETATM   11  H           1     -25.193  -3.626  -9.285  0.00  0.00     0.275 HD
HETATM   12  H           1     -24.088  -2.351  -9.031  0.00  0.00     0.275 HD
HETATM   13  H           1     -24.597  -3.314  -7.717  0.00  0.00     0.275 HD
ENDBRANCH   5  10
ENDBRANCH   4   5
BRANCH   2  14
HETATM   14  C           1     -21.307  -5.540  -5.920  0.00  0.00     0.185 C 
BRANCH  14  15
HETATM   15  C           1     -21.912  -6.494  -4.898  0.00  0.00     0.036 C 
BRANCH  15  16
HETATM   16  C           1     -21.418  -6.126  -3.505  0.00  0.00     0.003 C 
BRANCH  16  17
HETATM   17 Se           1     -21.338  -7.729  -2.400  0.00  0.00     0.000 Se
HETATM   18  C           1     -22.344  -6.957  -0.920  0.00  0.00     0.000 C 
ENDBRANCH  16  17
ENDBRANCH  15  16
ENDBRANCH  14  15
BRANCH  14  19
HETATM   19  C           1     -19.933  -6.026  -6.311  0.00  0.00     0.196 C 
HETATM   20  O           1     -19.659  -7.244  -6.248  0.00  0.00    -0.646 OA
HETATM   21  O           1     -19.069  -5.210  -6.697  0.00  0.00    -0.646 OA
ENDBRANCH  14  19
ENDBRANCH   2  14
TORSDOF 9
ENDMDL
MODEL 5
REMARK VINA RESULT:      -5.4      3.113      5.958
REMARK  9 active torsions:
REMARK  status: ('A' for Active; 'I' for Inactive)
REMARK    1  A    between atoms: C_1  and  C_12 
REMARK    2  A    between atoms: C_1  and  C_5 
REMARK    3  A    between atoms: C_2  and  Se_10 
REMARK    4  A    between atoms: C_2  and  C_14 
REMARK    5  A    between atoms: N_8  and  C_12 
REMARK    6  A    between atoms: N_11  and  C_20 
REMARK       I    between atoms: N_11  and  C_19 
REMARK    7  A    between atoms: C_12  and  C_19 
REMARK    8  A    between atoms: C_14  and  C_20 
REMARK    9  A    between atoms: C_18  and  C_20 
ROOT
HETATM    1  H           1     -35.619  -2.881 -12.662  0.00  0.00     0.163 HD
HETATM    2  N           1     -35.032  -2.756 -11.848  0.00  0.00    -0.345 N 
HETATM    3  O           1     -34.389  -1.440 -10.163  0.00  0.00    -0.271 OA
HETATM    4  C           1     -35.091  -1.589 -11.134  0.00  0.00     0.249 C 
ENDROOT
BRANCH   4   5
HETATM    5  C           1     -36.033  -0.490 -11.561  0.00  0.00     0.275 C 
BRANCH   5   6
HETATM    6  C           1     -35.357   0.379 -12.613  0.00  0.00     0.046 C 
BRANCH   6   7
HETATM    7  C           1     -35.863  -0.010 -13.996  0.00  0.00    -0.020 C 
HETATM    8  C           1     -37.385  -0.059 -13.985  0.00  0.00     0.009 C 
HETATM    9  C           1     -35.396   1.020 -15.016  0.00  0.00     0.009 C 
ENDBRANCH   6   7
ENDBRANCH   5   6
BRANCH   5  10
HETATM   10  N           1     -36.390   0.351 -10.372  0.00  0.00    -0.066 N 
HETATM   11  H           1     -36.089   1.338 -10.540  0.00  0.00     0.275 HD
HETATM   12  H           1     -35.905  -0.021  -9.524  0.00  0.00     0.275 HD
HETATM   13  H           1     -37.424   0.324 -10.223  0.00  0.00     0.275 HD
ENDBRANCH   5  10
ENDBRANCH   4   5
BRANCH   2  14
HETATM   14  C           1     -34.126  -3.812 -11.438  0.00  0.00     0.185 C 
BRANCH  14  15
HETATM   15  C           1     -34.923  -5.070 -11.125  0.00  0.00     0.036 C 
BRANCH  15  16
HETATM   16  C           1     -34.001  -6.117 -10.515  0.00  0.00     0.003 C 
BRANCH  16  17
HETATM   17 Se           1     -35.068  -7.537  -9.712  0.00  0.00     0.000 Se
HETATM   18  C           1     -33.732  -8.927  -9.997  0.00  0.00     0.000 C 
ENDBRANCH  16  17
ENDBRANCH  15  16
ENDBRANCH  14  15
BRANCH  14  19
HETATM   19  C           1     -33.150  -4.098 -12.554  0.00  0.00     0.196 C 
HETATM   20  O           1     -31.990  -4.481 -12.286  0.00  0.00    -0.646 OA
HETATM   21  O           1     -33.501  -3.952 -13.743  0.00  0.00    -0.646 OA
ENDBRANCH  14  19
ENDBRANCH   2  14
TORSDOF 9
ENDMDL
MODEL 6
REMARK VINA RESULT:      -5.3     14.448     16.528
REMARK  9 active torsions:
REMARK  status: ('A' for Active; 'I' for Inactive)
REMARK    1  A    between atoms: C_1  and  C_12 
REMARK    2  A    between atoms: C_1  and  C_5 
REMARK    3  A    between atoms: C_2  and  Se_10 
REMARK    4  A    between atoms: C_2  and  C_14 
REMARK    5  A    between atoms: N_8  and  C_12 
REMARK    6  A    between atoms: N_11  and  C_20 
REMARK       I    between atoms: N_11  and  C_19 
REMARK    7  A    between atoms: C_12  and  C_19 
REMARK    8  A    between atoms: C_14  and  C_20 
REMARK    9  A    between atoms: C_18  and  C_20 
ROOT
HETATM    1  H           1     -22.870  -5.931  -5.715  0.00  0.00     0.163 HD
HETATM    2  N           1     -21.877  -5.837  -5.541  0.00  0.00    -0.345 N 
HETATM    3  O           1     -19.922  -4.954  -6.161  0.00  0.00    -0.271 OA
HETATM    4  C           1     -21.106  -5.067  -6.370  0.00  0.00     0.249 C 
ENDROOT
BRANCH   4   5
HETATM    5  C           1     -21.737  -4.358  -7.544  0.00  0.00     0.275 C 
BRANCH   5   6
HETATM    6  C           1     -20.961  -4.688  -8.813  0.00  0.00     0.046 C 
BRANCH   6   7
HETATM    7  C           1     -21.551  -3.915  -9.984  0.00  0.00    -0.020 C 
HETATM    8  C           1     -20.539  -3.863 -11.121  0.00  0.00     0.009 C 
HETATM    9  C           1     -22.818  -4.609 -10.465  0.00  0.00     0.009 C 
ENDBRANCH   6   7
ENDBRANCH   5   6
BRANCH   5  10
HETATM   10  N           1     -21.704  -2.877  -7.309  0.00  0.00    -0.066 N 
HETATM   11  H           1     -21.038  -2.432  -7.980  0.00  0.00     0.275 HD
HETATM   12  H           1     -21.391  -2.687  -6.330  0.00  0.00     0.275 HD
HETATM   13  H           1     -22.660  -2.480  -7.453  0.00  0.00     0.275 HD
ENDBRANCH   5  10
ENDBRANCH   4   5
BRANCH   2  14
HETATM   14  C           1     -21.272  -6.518  -4.413  0.00  0.00     0.185 C 
BRANCH  14  15
HETATM   15  C           1     -22.335  -6.800  -3.361  0.00  0.00     0.036 C 
BRANCH  15  16
HETATM   16  C           1     -21.964  -6.097  -2.062  0.00  0.00     0.003 C 
BRANCH  16  17
HETATM   17 Se           1     -22.307  -7.286  -0.556  0.00  0.00     0.000 Se
HETATM   18  C           1     -20.905  -8.555  -1.028  0.00  0.00     0.000 C 
ENDBRANCH  16  17
ENDBRANCH  15  16
ENDBRANCH  14  15
BRANCH  14  19
HETATM   19  C           1     -20.665  -7.820  -4.878  0.00  0.00     0.196 C 
HETATM   20  O           1     -19.635  -8.262  -4.325  0.00  0.00    -0.646 OA
HETATM   21  O           1     -21.193  -8.454  -5.816  0.00  0.00    -0.646 OA
ENDBRANCH  14  19
ENDBRANCH   2  14
TORSDOF 9
ENDMDL
MODEL 7
REMARK VINA RESULT:      -5.1     14.439     16.920
REMARK  9 active torsions:
REMARK  status: ('A' for Active; 'I' for Inactive)
REMARK    1  A    between atoms: C_1  and  C_12 
REMARK    2  A    between atoms: C_1  and  C_5 
REMARK    3  A    between atoms: C_2  and  Se_10 
REMARK    4  A    between atoms: C_2  and  C_14 
REMARK    5  A    between atoms: N_8  and  C_12 
REMARK    6  A    between atoms: N_11  and  C_20 
REMARK       I    between atoms: N_11  and  C_19 
REMARK    7  A    between atoms: C_12  and  C_19 
REMARK    8  A    between atoms: C_14  and  C_20 
REMARK    9  A    between atoms: C_18  and  C_20 
ROOT
HETATM    1  H           1     -19.970  -6.484  -4.914  0.00  0.00     0.163 HD
HETATM    2  N           1     -20.980  -6.522  -4.863  0.00  0.00    -0.345 N 
HETATM    3  O           1     -22.941  -5.742  -5.592  0.00  0.00    -0.271 OA
HETATM    4  C           1     -21.736  -5.696  -5.653  0.00  0.00     0.249 C 
ENDROOT
BRANCH   4   5
HETATM    5  C           1     -21.063  -4.732  -6.598  0.00  0.00     0.275 C 
BRANCH   5   6
HETATM    6  C           1     -21.268  -5.201  -8.033  0.00  0.00     0.046 C 
BRANCH   6   7
HETATM    7  C           1     -21.673  -4.018  -8.902  0.00  0.00    -0.020 C 
HETATM    8  C           1     -20.978  -4.117 -10.253  0.00  0.00     0.009 C 
HETATM    9  C           1     -23.183  -4.032  -9.106  0.00  0.00     0.009 C 
ENDBRANCH   6   7
ENDBRANCH   5   6
BRANCH   5  10
HETATM   10  N           1     -19.595  -4.678  -6.295  0.00  0.00    -0.066 N 
HETATM   11  H           1     -19.194  -5.641  -6.342  0.00  0.00     0.275 HD
HETATM   12  H           1     -19.453  -4.287  -5.337  0.00  0.00     0.275 HD
HETATM   13  H           1     -19.117  -4.067  -6.996  0.00  0.00     0.275 HD
ENDBRANCH   5  10
ENDBRANCH   4   5
BRANCH   2  14
HETATM   14  C           1     -21.626  -7.448  -3.955  0.00  0.00     0.185 C 
BRANCH  14  15
HETATM   15  C           1     -20.881  -8.776  -3.970  0.00  0.00     0.036 C 
BRANCH  15  16
HETATM   16  C           1     -21.867  -9.915  -3.748  0.00  0.00     0.003 C 
BRANCH  16  17
HETATM   17 Se           1     -21.350 -10.925  -2.163  0.00  0.00     0.000 Se
HETATM   18  C           1     -22.745 -10.172  -1.028  0.00  0.00     0.000 C 
ENDBRANCH  16  17
ENDBRANCH  15  16
ENDBRANCH  14  15
BRANCH  14  19
HETATM   19  C           1     -21.610  -6.877  -2.558  0.00  0.00     0.196 C 
HETATM   20  O           1     -22.417  -5.977  -2.241  0.00  0.00    -0.646 OA
HETATM   21  O           1     -20.788  -7.304  -1.719  0.00  0.00    -0.646 OA
ENDBRANCH  14  19
ENDBRANCH   2  14
TORSDOF 9
ENDMDL
MODEL 8
REMARK VINA RESULT:      -5.1     16.817     18.290
REMARK  9 active torsions:
REMARK  status: ('A' for Active; 'I' for Inactive)
REMARK    1  A    between atoms: C_1  and  C_12 
REMARK    2  A    between atoms: C_1  and  C_5 
REMARK    3  A    between atoms: C_2  and  Se_10 
REMARK    4  A    between atoms: C_2  and  C_14 
REMARK    5  A    between atoms: N_8  and  C_12 
REMARK    6  A    between atoms: N_11  and  C_20 
REMARK       I    between atoms: N_11  and  C_19 
REMARK    7  A    between atoms: C_12  and  C_19 
REMARK    8  A    between atoms: C_14  and  C_20 
REMARK    9  A    between atoms: C_18  and  C_20 
ROOT
HETATM    1  H           1     -20.630  -8.057  -2.849  0.00  0.00     0.163 HD
HETATM    2  N           1     -21.013  -8.804  -3.414  0.00  0.00    -0.345 N 
HETATM    3  O           1     -22.247 -10.663  -3.510  0.00  0.00    -0.271 OA
HETATM    4  C           1     -21.790  -9.772  -2.834  0.00  0.00     0.249 C 
ENDROOT
BRANCH   4   5
HETATM    5  C           1     -22.077  -9.723  -1.354  0.00  0.00     0.275 C 
BRANCH   5   6
HETATM    6  C           1     -21.167  -8.694  -0.694  0.00  0.00     0.046 C 
BRANCH   6   7
HETATM    7  C           1     -22.014  -7.591  -0.075  0.00  0.00    -0.020 C 
HETATM    8  C           1     -22.358  -6.556  -1.139  0.00  0.00     0.009 C 
HETATM    9  C           1     -23.298  -8.189   0.484  0.00  0.00     0.009 C 
ENDBRANCH   6   7
ENDBRANCH   5   6
BRANCH   5  10
HETATM   10  N           1     -21.823 -11.073  -0.752  0.00  0.00    -0.066 N 
HETATM   11  H           1     -21.522 -10.960   0.243  0.00  0.00     0.275 HD
HETATM   12  H           1     -21.071 -11.559  -1.291  0.00  0.00     0.275 HD
HETATM   13  H           1     -22.700 -11.641  -0.787  0.00  0.00     0.275 HD
ENDBRANCH   5  10
ENDBRANCH   4   5
BRANCH   2  14
HETATM   14  C           1     -20.738  -8.851  -4.837  0.00  0.00     0.185 C 
BRANCH  14  15
HETATM   15  C           1     -21.322  -7.615  -5.507  0.00  0.00     0.036 C 
BRANCH  15  16
HETATM   16  C           1     -21.092  -6.399  -4.619  0.00  0.00     0.003 C 
BRANCH  16  17
HETATM   17 Se           1     -20.325  -4.955  -5.680  0.00  0.00     0.000 Se
HETATM   18  C           1     -20.768  -5.762  -7.398  0.00  0.00     0.000 C 
ENDBRANCH  16  17
ENDBRANCH  15  16
ENDBRANCH  14  15
BRANCH  14  19
HETATM   19  C           1     -19.245  -8.886  -5.059  0.00  0.00     0.196 C 
HETATM   20  O           1     -18.779  -8.688  -6.202  0.00  0.00    -0.646 OA
HETATM   21  O           1     -18.477  -9.114  -4.101  0.00  0.00    -0.646 OA
ENDBRANCH  14  19
ENDBRANCH   2  14
TORSDOF 9
ENDMDL
MODEL 9
REMARK VINA RESULT:      -5.0     15.979     18.037
REMARK  9 active torsions:
REMARK  status: ('A' for Active; 'I' for Inactive)
REMARK    1  A    between atoms: C_1  and  C_12 
REMARK    2  A    between atoms: C_1  and  C_5 
REMARK    3  A    between atoms: C_2  and  Se_10 
REMARK    4  A    between atoms: C_2  and  C_14 
REMARK    5  A    between atoms: N_8  and  C_12 
REMARK    6  A    between atoms: N_11  and  C_20 
REMARK       I    between atoms: N_11  and  C_19 
REMARK    7  A    between atoms: C_12  and  C_19 
REMARK    8  A    between atoms: C_14  and  C_20 
REMARK    9  A    between atoms: C_18  and  C_20 
ROOT
HETATM    1  H           1     -19.867  -7.133  -2.550  0.00  0.00     0.163 HD
HETATM    2  N           1     -20.669  -7.720  -2.739  0.00  0.00    -0.345 N 
HETATM    3  O           1     -21.900  -8.813  -4.248  0.00  0.00    -0.271 OA
HETATM    4  C           1     -20.942  -8.113  -4.023  0.00  0.00     0.249 C 
ENDROOT
BRANCH   4   5
HETATM    5  C           1     -20.046  -7.672  -5.154  0.00  0.00     0.275 C 
BRANCH   5   6
HETATM    6  C           1     -20.880  -6.974  -6.220  0.00  0.00     0.046 C 
BRANCH   6   7
HETATM    7  C           1     -21.247  -5.575  -5.744  0.00  0.00    -0.020 C 
HETATM    8  C           1     -19.996  -4.708  -5.703  0.00  0.00     0.009 C 
HETATM    9  C           1     -22.258  -4.961  -6.704  0.00  0.00     0.009 C 
ENDBRANCH   6   7
ENDBRANCH   5   6
BRANCH   5  10
HETATM   10  N           1     -19.371  -8.870  -5.752  0.00  0.00    -0.066 N 
HETATM   11  H           1     -19.992  -9.294  -6.478  0.00  0.00     0.275 HD
HETATM   12  H           1     -19.182  -9.573  -5.002  0.00  0.00     0.275 HD
HETATM   13  H           1     -18.469  -8.579  -6.192  0.00  0.00     0.275 HD
ENDBRANCH   5  10
ENDBRANCH   4   5
BRANCH   2  14
HETATM   14  C           1     -21.530  -8.143  -1.652  0.00  0.00     0.185 C 
BRANCH  14  15
HETATM   15  C           1     -20.677  -8.595  -0.476  0.00  0.00     0.036 C 
BRANCH  15  16
HETATM   16  C           1     -21.271  -9.861   0.127  0.00  0.00     0.003 C 
BRANCH  16  17
HETATM   17 Se           1     -22.297 -10.810  -1.232  0.00  0.00     0.000 Se
HETATM   18  C           1     -23.940 -10.867  -0.185  0.00  0.00     0.000 C 
ENDBRANCH  16  17
ENDBRANCH  15  16
ENDBRANCH  14  15
BRANCH  14  19
HETATM   19  C           1     -22.406  -6.990  -1.226  0.00  0.00     0.196 C 
HETATM   20  O           1     -23.100  -7.082  -0.190  0.00  0.00    -0.646 OA
HETATM   21  O           1     -22.437  -5.944  -1.909  0.00  0.00    -0.646 OA
ENDBRANCH  14  19
ENDBRANCH   2  14
TORSDOF 9
ENDMDL
