MODEL 1
REMARK VINA RESULT:      -5.9      0.000      0.000
REMARK  6 active torsions:
REMARK  status: ('A' for Active; 'I' for Inactive)
REMARK    1  A    between atoms: N_2  and  C_8 
REMARK       I    between atoms: N_2  and  C_3 
REMARK    2  A    between atoms: C_3  and  C_4 
REMARK    3  A    between atoms: C_4  and  N_6 
REMARK    4  A    between atoms: C_8  and  C_12 
REMARK    5  A    between atoms: C_8  and  C_9 
REMARK    6  A    between atoms: C_11  and  C_12 
ROOT
HETATM    1  N           1     -22.265  -4.783  -8.859  0.00  0.00    -0.344 N 
HETATM    2  C           1     -21.657  -4.396  -7.695  0.00  0.00     0.248 C 
HETATM    3  O           1     -21.592  -3.224  -7.410  0.00  0.00    -0.271 OA
HETATM    4  H           1     -22.319  -5.765  -9.100  0.00  0.00     0.163 HD
ENDROOT
BRANCH   1   5
HETATM    5  C           1     -22.829  -3.787  -9.749  0.00  0.00     0.189 C 
BRANCH   5   6
HETATM    6  C           1     -22.386  -4.074 -11.178  0.00  0.00     0.014 C 
HETATM    7  C           1     -22.836  -2.937 -12.085  0.00  0.00     0.012 C 
BRANCH   6   8
HETATM    8  C           1     -20.869  -4.190 -11.224  0.00  0.00     0.002 C 
HETATM    9  C           1     -20.249  -2.801 -11.145  0.00  0.00     0.005 C 
ENDBRANCH   6   8
ENDBRANCH   5   6
BRANCH   5  10
HETATM   10  C           1     -24.336  -3.840  -9.669  0.00  0.00     0.197 C 
HETATM   11  O           1     -24.933  -4.925  -9.840  0.00  0.00    -0.646 OA
HETATM   12  O           1     -24.985  -2.798  -9.433  0.00  0.00    -0.646 OA
ENDBRANCH   5  10
ENDBRANCH   1   5
BRANCH   2  13
HETATM   13  C           1     -21.069  -5.433  -6.770  0.00  0.00     0.270 C 
HETATM   14  C           1     -20.396  -4.740  -5.593  0.00  0.00     0.050 C 
BRANCH  13  15
HETATM   15  N           1     -20.055  -6.250  -7.516  0.00  0.00    -0.067 N 
HETATM   16  H           1     -20.478  -6.605  -8.403  0.00  0.00     0.275 HD
HETATM   17  H           1     -19.225  -5.656  -7.739  0.00  0.00     0.275 HD
HETATM   18  H           1     -19.758  -7.059  -6.924  0.00  0.00     0.275 HD
ENDBRANCH  13  15
ENDBRANCH   2  13
TORSDOF 6
ENDMDL
MODEL 2
REMARK VINA RESULT:      -5.0      3.823      7.042
REMARK  6 active torsions:
REMARK  status: ('A' for Active; 'I' for Inactive)
REMARK    1  A    between atoms: N_2  and  C_8 
REMARK       I    between atoms: N_2  and  C_3 
REMARK    2  A    between atoms: C_3  and  C_4 
REMARK    3  A    between atoms: C_4  and  N_6 
REMARK    4  A    between atoms: C_8  and  C_12 
REMARK    5  A    between atoms: C_8  and  C_9 
REMARK    6  A    between atoms: C_11  and  C_12 
ROOT
HETATM    1  N           1     -21.564  -6.609  -5.500  0.00  0.00    -0.344 N 
HETATM    2  C           1     -21.098  -5.592  -6.290  0.00  0.00     0.248 C 
HETATM    3  O           1     -19.928  -5.296  -6.265  0.00  0.00    -0.271 OA
HETATM    4  H           1     -22.545  -6.857  -5.521  0.00  0.00     0.163 HD
ENDROOT
BRANCH   1   5
HETATM    5  C           1     -20.653  -7.329  -4.632  0.00  0.00     0.189 C 
BRANCH   5   6
HETATM    6  C           1     -21.350  -7.646  -3.316  0.00  0.00     0.014 C 
HETATM    7  C           1     -20.358  -8.296  -2.361  0.00  0.00     0.012 C 
BRANCH   6   8
HETATM    8  C           1     -21.878  -6.357  -2.699  0.00  0.00     0.002 C 
HETATM    9  C           1     -22.292  -6.615  -1.256  0.00  0.00     0.005 C 
ENDBRANCH   6   8
ENDBRANCH   5   6
BRANCH   5  10
HETATM   10  C           1     -20.234  -8.615  -5.302  0.00  0.00     0.197 C 
HETATM   11  O           1     -19.030  -8.813  -5.576  0.00  0.00    -0.646 OA
HETATM   12  O           1     -21.090  -9.481  -5.582  0.00  0.00    -0.646 OA
ENDBRANCH   5  10
ENDBRANCH   1   5
BRANCH   2  13
HETATM   13  C           1     -22.047  -4.843  -7.193  0.00  0.00     0.270 C 
HETATM   14  C           1     -21.533  -3.425  -7.405  0.00  0.00     0.050 C 
BRANCH  13  15
HETATM   15  N           1     -23.405  -4.792  -6.558  0.00  0.00    -0.067 N 
HETATM   16  H           1     -24.114  -4.512  -7.273  0.00  0.00     0.275 HD
HETATM   17  H           1     -23.647  -5.735  -6.178  0.00  0.00     0.275 HD
HETATM   18  H           1     -23.400  -4.092  -5.781  0.00  0.00     0.275 HD
ENDBRANCH  13  15
ENDBRANCH   2  13
TORSDOF 6
ENDMDL
MODEL 3
REMARK VINA RESULT:      -5.0      2.238      3.071
REMARK  6 active torsions:
REMARK  status: ('A' for Active; 'I' for Inactive)
REMARK    1  A    between atoms: N_2  and  C_8 
REMARK       I    between atoms: N_2  and  C_3 
REMARK    2  A    between atoms: C_3  and  C_4 
REMARK    3  A    between atoms: C_4  and  N_6 
REMARK    4  A    between atoms: C_8  and  C_12 
REMARK    5  A    between atoms: C_8  and  C_9 
REMARK    6  A    between atoms: C_11  and  C_12 
ROOT
HETATM    1  N           1     -21.892  -4.257  -8.702  0.00  0.00    -0.344 N 
HETATM    2  C           1     -21.292  -5.072  -7.781  0.00  0.00     0.248 C 
HETATM    3  O           1     -20.757  -6.095  -8.138  0.00  0.00    -0.271 OA
HETATM    4  H           1     -22.341  -3.400  -8.404  0.00  0.00     0.163 HD
ENDROOT
BRANCH   1   5
HETATM    5  C           1     -21.888  -4.622 -10.105  0.00  0.00     0.189 C 
BRANCH   5   6
HETATM    6  C           1     -23.190  -4.166 -10.752  0.00  0.00     0.014 C 
HETATM    7  C           1     -23.431  -4.968 -12.024  0.00  0.00     0.012 C 
BRANCH   6   8
HETATM    8  C           1     -24.343  -4.392  -9.783  0.00  0.00     0.002 C 
HETATM    9  C           1     -25.165  -3.116  -9.663  0.00  0.00     0.005 C 
ENDBRANCH   6   8
ENDBRANCH   5   6
BRANCH   5  10
HETATM   10  C           1     -20.724  -3.953 -10.794  0.00  0.00     0.197 C 
HETATM   11  O           1     -19.632  -4.553 -10.901  0.00  0.00    -0.646 OA
HETATM   12  O           1     -20.851  -2.799 -11.256  0.00  0.00    -0.646 OA
ENDBRANCH   5  10
ENDBRANCH   1   5
BRANCH   2  13
HETATM   13  C           1     -21.297  -4.693  -6.321  0.00  0.00     0.270 C 
HETATM   14  C           1     -19.875  -4.743  -5.777  0.00  0.00     0.050 C 
BRANCH  13  15
HETATM   15  N           1     -22.158  -5.656  -5.558  0.00  0.00    -0.067 N 
HETATM   16  H           1     -21.935  -6.633  -5.853  0.00  0.00     0.275 HD
HETATM   17  H           1     -21.976  -5.550  -4.534  0.00  0.00     0.275 HD
HETATM   18  H           1     -23.165  -5.455  -5.757  0.00  0.00     0.275 HD
ENDBRANCH  13  15
ENDBRANCH   2  13
TORSDOF 6
ENDMDL
MODEL 4
REMARK VINA RESULT:      -4.7      7.049      9.323
REMARK  6 active torsions:
REMARK  status: ('A' for Active; 'I' for Inactive)
REMARK    1  A    between atoms: N_2  and  C_8 
REMARK       I    between atoms: N_2  and  C_3 
REMARK    2  A    between atoms: C_3  and  C_4 
REMARK    3  A    between atoms: C_4  and  N_6 
REMARK    4  A    between atoms: C_8  and  C_12 
REMARK    5  A    between atoms: C_8  and  C_9 
REMARK    6  A    between atoms: C_11  and  C_12 
ROOT
HETATM    1  N           1     -21.986  -9.313  -1.532  0.00  0.00    -0.344 N 
HETATM    2  C           1     -21.729 -10.185  -0.509  0.00  0.00     0.248 C 
HETATM    3  O           1     -20.851  -9.942   0.284  0.00  0.00    -0.271 OA
HETATM    4  H           1     -22.722  -9.515  -2.197  0.00  0.00     0.163 HD
ENDROOT
BRANCH   1   5
HETATM    5  C           1     -21.203  -8.099  -1.666  0.00  0.00     0.189 C 
BRANCH   5   6
HETATM    6  C           1     -20.567  -8.056  -3.049  0.00  0.00     0.014 C 
HETATM    7  C           1     -19.275  -8.861  -3.037  0.00  0.00     0.012 C 
BRANCH   6   8
HETATM    8  C           1     -21.528  -8.652  -4.068  0.00  0.00     0.002 C 
HETATM    9  C           1     -21.526  -7.799  -5.329  0.00  0.00     0.005 C 
ENDBRANCH   6   8
ENDBRANCH   5   6
BRANCH   5  10
HETATM   10  C           1     -22.103  -6.900  -1.487  0.00  0.00     0.197 C 
HETATM   11  O           1     -22.008  -5.927  -2.266  0.00  0.00    -0.646 OA
HETATM   12  O           1     -22.941  -6.881  -0.560  0.00  0.00    -0.646 OA
ENDBRANCH   5  10
ENDBRANCH   1   5
BRANCH   2  13
HETATM   13  C           1     -22.543 -11.447  -0.371  0.00  0.00     0.270 C 
HETATM   14  C           1     -24.009 -11.088  -0.165  0.00  0.00     0.050 C 
BRANCH  13  15
HETATM   15  N           1     -22.051 -12.233   0.808  0.00  0.00    -0.067 N 
HETATM   16  H           1     -21.038 -12.459   0.679  0.00  0.00     0.275 HD
HETATM   17  H           1     -22.174 -11.669   1.679  0.00  0.00     0.275 HD
HETATM   18  H           1     -22.597 -13.121   0.887  0.00  0.00     0.275 HD
ENDBRANCH  13  15
ENDBRANCH   2  13
TORSDOF 6
ENDMDL
MODEL 5
REMARK VINA RESULT:      -4.7      4.168      7.125
REMARK  6 active torsions:
REMARK  status: ('A' for Active; 'I' for Inactive)
REMARK    1  A    between atoms: N_2  and  C_8 
REMARK       I    between atoms: N_2  and  C_3 
REMARK    2  A    between atoms: C_3  and  C_4 
REMARK    3  A    between atoms: C_4  and  N_6 
REMARK    4  A    between atoms: C_8  and  C_12 
REMARK    5  A    between atoms: C_8  and  C_9 
REMARK    6  A    between atoms: C_11  and  C_12 
ROOT
HETATM    1  N           1     -20.792  -6.765  -4.612  0.00  0.00    -0.344 N 
HETATM    2  C           1     -21.432  -5.932  -5.490  0.00  0.00     0.248 C 
HETATM    3  O           1     -22.639  -5.877  -5.499  0.00  0.00    -0.271 OA
HETATM    4  H           1     -19.781  -6.812  -4.604  0.00  0.00     0.163 HD
ENDROOT
BRANCH   1   5
HETATM    5  C           1     -21.563  -7.581  -3.693  0.00  0.00     0.189 C 
BRANCH   5   6
HETATM    6  C           1     -20.907  -8.948  -3.558  0.00  0.00     0.014 C 
HETATM    7  C           1     -21.827 -10.012  -4.142  0.00  0.00     0.012 C 
BRANCH   6   8
HETATM    8  C           1     -19.583  -8.952  -4.311  0.00  0.00     0.002 C 
HETATM    9  C           1     -18.461  -9.360  -3.366  0.00  0.00     0.005 C 
ENDBRANCH   6   8
ENDBRANCH   5   6
BRANCH   5  10
HETATM   10  C           1     -21.609  -6.909  -2.343  0.00  0.00     0.197 C 
HETATM   11  O           1     -20.957  -7.381  -1.387  0.00  0.00    -0.646 OA
HETATM   12  O           1     -22.300  -5.880  -2.181  0.00  0.00    -0.646 OA
ENDBRANCH   5  10
ENDBRANCH   1   5
BRANCH   2  13
HETATM   13  C           1     -20.630  -5.084  -6.446  0.00  0.00     0.270 C 
HETATM   14  C           1     -21.551  -4.083  -7.133  0.00  0.00     0.050 C 
BRANCH  13  15
HETATM   15  N           1     -19.990  -5.964  -7.478  0.00  0.00    -0.067 N 
HETATM   16  H           1     -20.372  -5.730  -8.422  0.00  0.00     0.275 HD
HETATM   17  H           1     -18.956  -5.811  -7.472  0.00  0.00     0.275 HD
HETATM   18  H           1     -20.197  -6.965  -7.258  0.00  0.00     0.275 HD
ENDBRANCH  13  15
ENDBRANCH   2  13
TORSDOF 6
ENDMDL
MODEL 6
REMARK VINA RESULT:      -4.7      7.186     10.201
REMARK  6 active torsions:
REMARK  status: ('A' for Active; 'I' for Inactive)
REMARK    1  A    between atoms: N_2  and  C_8 
REMARK       I    between atoms: N_2  and  C_3 
REMARK    2  A    between atoms: C_3  and  C_4 
REMARK    3  A    between atoms: C_4  and  N_6 
REMARK    4  A    between atoms: C_8  and  C_12 
REMARK    5  A    between atoms: C_8  and  C_9 
REMARK    6  A    between atoms: C_11  and  C_12 
ROOT
HETATM    1  N           1     -21.587  -9.106  -2.216  0.00  0.00    -0.344 N 
HETATM    2  C           1     -21.356  -7.904  -2.829  0.00  0.00     0.248 C 
HETATM    3  O           1     -20.819  -7.010  -2.219  0.00  0.00    -0.271 OA
HETATM    4  H           1     -22.037  -9.856  -2.726  0.00  0.00     0.163 HD
ENDROOT
BRANCH   1   5
HETATM    5  C           1     -21.189  -9.306  -0.836  0.00  0.00     0.189 C 
BRANCH   5   6
HETATM    6  C           1     -22.425  -9.561   0.016  0.00  0.00     0.014 C 
HETATM    7  C           1     -23.079  -8.232   0.370  0.00  0.00     0.012 C 
BRANCH   6   8
HETATM    8  C           1     -23.411 -10.420  -0.764  0.00  0.00     0.002 C 
HETATM    9  C           1     -23.768 -11.655   0.052  0.00  0.00     0.005 C 
ENDBRANCH   6   8
ENDBRANCH   5   6
BRANCH   5  10
HETATM   10  C           1     -20.263 -10.495  -0.748  0.00  0.00     0.197 C 
HETATM   11  O           1     -19.694 -10.921  -1.776  0.00  0.00    -0.646 OA
HETATM   12  O           1     -20.067 -11.053   0.353  0.00  0.00    -0.646 OA
ENDBRANCH   5  10
ENDBRANCH   1   5
BRANCH   2  13
HETATM   13  C           1     -21.771  -7.697  -4.264  0.00  0.00     0.270 C 
HETATM   14  C           1     -20.559  -7.859  -5.172  0.00  0.00     0.050 C 
BRANCH  13  15
HETATM   15  N           1     -22.335  -6.316  -4.426  0.00  0.00    -0.067 N 
HETATM   16  H           1     -21.610  -5.610  -4.168  0.00  0.00     0.275 HD
HETATM   17  H           1     -22.623  -6.172  -5.420  0.00  0.00     0.275 HD
HETATM   18  H           1     -23.166  -6.205  -3.801  0.00  0.00     0.275 HD
ENDBRANCH  13  15
ENDBRANCH   2  13
TORSDOF 6
ENDMDL
MODEL 7
REMARK VINA RESULT:      -4.6      5.763      7.803
REMARK  6 active torsions:
REMARK  status: ('A' for Active; 'I' for Inactive)
REMARK    1  A    between atoms: N_2  and  C_8 
REMARK       I    between atoms: N_2  and  C_3 
REMARK    2  A    between atoms: C_3  and  C_4 
REMARK    3  A    between atoms: C_4  and  N_6 
REMARK    4  A    between atoms: C_8  and  C_12 
REMARK    5  A    between atoms: C_8  and  C_9 
REMARK    6  A    between atoms: C_11  and  C_12 
ROOT
HETATM    1  N           1     -20.037  -8.132  -4.041  0.00  0.00    -0.344 N 
HETATM    2  C           1     -20.086  -9.265  -4.808  0.00  0.00     0.248 C 
HETATM    3  O           1     -21.154  -9.746  -5.106  0.00  0.00    -0.271 OA
HETATM    4  H           1     -19.143  -7.729  -3.791  0.00  0.00     0.163 HD
ENDROOT
BRANCH   1   5
HETATM    5  C           1     -21.265  -7.510  -3.586  0.00  0.00     0.189 C 
BRANCH   5   6
HETATM    6  C           1     -21.086  -7.021  -2.155  0.00  0.00     0.014 C 
HETATM    7  C           1     -22.369  -6.348  -1.685  0.00  0.00     0.012 C 
BRANCH   6   8
HETATM    8  C           1     -20.773  -8.206  -1.250  0.00  0.00     0.002 C 
HETATM    9  C           1     -21.610  -8.112   0.019  0.00  0.00     0.005 C 
ENDBRANCH   6   8
ENDBRANCH   5   6
BRANCH   5  10
HETATM   10  C           1     -21.596  -6.339  -4.479  0.00  0.00     0.197 C 
HETATM   11  O           1     -22.720  -6.264  -5.020  0.00  0.00    -0.646 OA
HETATM   12  O           1     -20.745  -5.446  -4.679  0.00  0.00    -0.646 OA
ENDBRANCH   5  10
ENDBRANCH   1   5
BRANCH   2  13
HETATM   13  C           1     -18.809  -9.912  -5.281  0.00  0.00     0.270 C 
HETATM   14  C           1     -17.798  -9.935  -4.142  0.00  0.00     0.050 C 
BRANCH  13  15
HETATM   15  N           1     -18.248  -9.129  -6.431  0.00  0.00    -0.067 N 
HETATM   16  H           1     -19.032  -8.731  -6.997  0.00  0.00     0.275 HD
HETATM   17  H           1     -17.652  -8.353  -6.066  0.00  0.00     0.275 HD
HETATM   18  H           1     -17.671  -9.760  -7.033  0.00  0.00     0.275 HD
ENDBRANCH  13  15
ENDBRANCH   2  13
TORSDOF 6
ENDMDL
MODEL 8
REMARK VINA RESULT:      -4.5      8.419     10.451
REMARK  6 active torsions:
REMARK  status: ('A' for Active; 'I' for Inactive)
REMARK    1  A    between atoms: N_2  and  C_8 
REMARK       I    between atoms: N_2  and  C_3 
REMARK    2  A    between atoms: C_3  and  C_4 
REMARK    3  A    between atoms: C_4  and  N_6 
REMARK    4  A    between atoms: C_8  and  C_12 
REMARK    5  A    between atoms: C_8  and  C_9 
REMARK    6  A    between atoms: C_11  and  C_12 
ROOT
HETATM    1  N           1     -20.905  -9.375  -1.133  0.00  0.00    -0.344 N 
HETATM    2  C           1     -20.382  -9.097  -2.367  0.00  0.00     0.248 C 
HETATM    3  O           1     -21.098  -8.679  -3.246  0.00  0.00    -0.271 OA
HETATM    4  H           1     -20.306  -9.726  -0.397  0.00  0.00     0.163 HD
ENDROOT
BRANCH   1   5
HETATM    5  C           1     -22.318  -9.170  -0.881  0.00  0.00     0.189 C 
BRANCH   5   6
HETATM    6  C           1     -22.854 -10.315  -0.032  0.00  0.00     0.014 C 
HETATM    7  C           1     -23.862 -11.118  -0.843  0.00  0.00     0.012 C 
BRANCH   6   8
HETATM    8  C           1     -21.701 -11.219   0.384  0.00  0.00     0.002 C 
HETATM    9  C           1     -22.251 -12.556   0.864  0.00  0.00     0.005 C 
ENDBRANCH   6   8
ENDBRANCH   5   6
BRANCH   5  10
HETATM   10  C           1     -22.512  -7.866  -0.146  0.00  0.00     0.197 C 
HETATM   11  O           1     -22.479  -7.841   1.103  0.00  0.00    -0.646 OA
HETATM   12  O           1     -22.705  -6.810  -0.788  0.00  0.00    -0.646 OA
ENDBRANCH   5  10
ENDBRANCH   1   5
BRANCH   2  13
HETATM   13  C           1     -18.912  -9.312  -2.630  0.00  0.00     0.270 C 
HETATM   14  C           1     -18.641  -9.203  -4.124  0.00  0.00     0.050 C 
BRANCH  13  15
HETATM   15  N           1     -18.513 -10.675  -2.147  0.00  0.00    -0.067 N 
HETATM   16  H           1     -17.928 -11.146  -2.875  0.00  0.00     0.275 HD
HETATM   17  H           1     -17.963 -10.585  -1.263  0.00  0.00     0.275 HD
HETATM   18  H           1     -19.370 -11.246  -1.969  0.00  0.00     0.275 HD
ENDBRANCH  13  15
ENDBRANCH   2  13
TORSDOF 6
ENDMDL
MODEL 9
REMARK VINA RESULT:      -4.5      8.930     10.389
REMARK  6 active torsions:
REMARK  status: ('A' for Active; 'I' for Inactive)
REMARK    1  A    between atoms: N_2  and  C_8 
REMARK       I    between atoms: N_2  and  C_3 
REMARK    2  A    between atoms: C_3  and  C_4 
REMARK    3  A    between atoms: C_4  and  N_6 
REMARK    4  A    between atoms: C_8  and  C_12 
REMARK    5  A    between atoms: C_8  and  C_9 
REMARK    6  A    between atoms: C_11  and  C_12 
ROOT
HETATM    1  N           1     -20.974 -10.090  -1.369  0.00  0.00    -0.344 N 
HETATM    2  C           1     -19.872 -10.827  -1.026  0.00  0.00     0.248 C 
HETATM    3  O           1     -19.796 -11.321   0.074  0.00  0.00    -0.271 OA
HETATM    4  H           1     -21.038  -9.676  -2.291  0.00  0.00     0.163 HD
ENDROOT
BRANCH   1   5
HETATM    5  C           1     -22.048  -9.901  -0.413  0.00  0.00     0.189 C 
BRANCH   5   6
HETATM    6  C           1     -22.383  -8.419  -0.313  0.00  0.00     0.014 C 
HETATM    7  C           1     -22.075  -7.924   1.093  0.00  0.00     0.012 C 
BRANCH   6   8
HETATM    8  C           1     -21.546  -7.641  -1.320  0.00  0.00     0.002 C 
HETATM    9  C           1     -22.263  -6.349  -1.688  0.00  0.00     0.005 C 
ENDBRANCH   6   8
ENDBRANCH   5   6
BRANCH   5  10
HETATM   10  C           1     -23.267 -10.663  -0.872  0.00  0.00     0.197 C 
HETATM   11  O           1     -24.223 -10.844  -0.087  0.00  0.00    -0.646 OA
HETATM   12  O           1     -23.321 -11.112  -2.037  0.00  0.00    -0.646 OA
ENDBRANCH   5  10
ENDBRANCH   1   5
BRANCH   2  13
HETATM   13  C           1     -18.755 -11.022  -2.020  0.00  0.00     0.270 C 
HETATM   14  C           1     -18.526  -9.728  -2.789  0.00  0.00     0.050 C 
BRANCH  13  15
HETATM   15  N           1     -19.126 -12.115  -2.979  0.00  0.00    -0.067 N 
HETATM   16  H           1     -18.872 -11.826  -3.952  0.00  0.00     0.275 HD
HETATM   17  H           1     -18.610 -12.988  -2.729  0.00  0.00     0.275 HD
HETATM   18  H           1     -20.156 -12.289  -2.927  0.00  0.00     0.275 HD
ENDBRANCH  13  15
ENDBRANCH   2  13
TORSDOF 6
ENDMDL
