MODEL 1
REMARK VINA RESULT:      -6.8      0.000      0.000
REMARK  10 active torsions:
REMARK  status: ('A' for Active; 'I' for Inactive)
REMARK    1  A    between atoms: C_1  and  C_2 
REMARK    2  A    between atoms: C_1  and  C_19 
REMARK    3  A    between atoms: C_1  and  N_13 
REMARK       I    between atoms: C_2  and  N_3 
REMARK    4  A    between atoms: N_3  and  C_12 
REMARK    5  A    between atoms: C_9  and  C_10 
REMARK    6  A    between atoms: C_9  and  C_12 
REMARK    7  A    between atoms: C_10  and  C_14 
REMARK    8  A    between atoms: C_11  and  C_12 
REMARK    9  A    between atoms: C_17  and  C_18 
REMARK   10  A    between atoms: C_18  and  C_19 
ROOT
HETATM    1  C           1     -21.773  -4.737  -7.813  0.00  0.00     0.249 C 
HETATM    2  N           1     -22.211  -4.932  -9.095  0.00  0.00    -0.345 N 
HETATM    3  O           1     -21.827  -3.638  -7.316  0.00  0.00    -0.271 OA
HETATM    4  H           1     -22.165  -5.853  -9.511  0.00  0.00     0.163 HD
ENDROOT
BRANCH   1   5
HETATM    5  C           1     -21.220  -5.896  -7.020  0.00  0.00     0.275 C 
BRANCH   5   6
HETATM    6  C           1     -21.304  -5.582  -5.532  0.00  0.00     0.053 C 
BRANCH   6   7
HETATM    7  C           1     -22.037  -6.709  -4.816  0.00  0.00     0.115 C 
BRANCH   7   8
HETATM    8  C           1     -21.732  -6.650  -3.340  0.00  0.00     0.172 C 
HETATM    9  O           1     -20.845  -7.385  -2.855  0.00  0.00    -0.648 OA
HETATM   10  O           1     -22.366  -5.865  -2.601  0.00  0.00    -0.648 OA
ENDBRANCH   7   8
ENDBRANCH   6   7
ENDBRANCH   5   6
BRANCH   5  11
HETATM   11  N           1     -19.787  -6.124  -7.402  0.00  0.00    -0.066 N 
HETATM   12  H           1     -19.399  -6.916  -6.842  0.00  0.00     0.275 HD
HETATM   13  H           1     -19.233  -5.259  -7.210  0.00  0.00     0.275 HD
HETATM   14  H           1     -19.730  -6.354  -8.420  0.00  0.00     0.275 HD
ENDBRANCH   5  11
ENDBRANCH   1   5
BRANCH   2  15
HETATM   15  C           1     -22.742  -3.818  -9.857  0.00  0.00     0.186 C 
BRANCH  15  16
HETATM   16  C           1     -22.325  -3.956 -11.315  0.00  0.00     0.046 C 
BRANCH  16  17
HETATM   17  C           1     -22.474  -2.613 -12.016  0.00  0.00     0.116 C 
BRANCH  17  18
HETATM   18  C           1     -23.331  -2.778 -13.246  0.00  0.00     0.172 C 
HETATM   19  O           1     -24.563  -2.953 -13.131  0.00  0.00    -0.648 OA
HETATM   20  O           1     -22.809  -2.740 -14.382  0.00  0.00    -0.648 OA
ENDBRANCH  17  18
ENDBRANCH  16  17
ENDBRANCH  15  16
BRANCH  15  21
HETATM   21  C           1     -24.248  -3.817  -9.762  0.00  0.00     0.196 C 
HETATM   22  O           1     -24.885  -4.880  -9.929  0.00  0.00    -0.646 OA
HETATM   23  O           1     -24.858  -2.755  -9.516  0.00  0.00    -0.646 OA
ENDBRANCH  15  21
ENDBRANCH   2  15
TORSDOF 10
ENDMDL
MODEL 2
REMARK VINA RESULT:      -6.7     12.300     14.404
REMARK  10 active torsions:
REMARK  status: ('A' for Active; 'I' for Inactive)
REMARK    1  A    between atoms: C_1  and  C_2 
REMARK    2  A    between atoms: C_1  and  C_19 
REMARK    3  A    between atoms: C_1  and  N_13 
REMARK       I    between atoms: C_2  and  N_3 
REMARK    4  A    between atoms: N_3  and  C_12 
REMARK    5  A    between atoms: C_9  and  C_10 
REMARK    6  A    between atoms: C_9  and  C_12 
REMARK    7  A    between atoms: C_10  and  C_14 
REMARK    8  A    between atoms: C_11  and  C_12 
REMARK    9  A    between atoms: C_17  and  C_18 
REMARK   10  A    between atoms: C_18  and  C_19 
ROOT
HETATM    1  C           1     -34.547  -1.956 -12.381  0.00  0.00     0.249 C 
HETATM    2  N           1     -35.372  -0.883 -12.176  0.00  0.00    -0.345 N 
HETATM    3  O           1     -34.664  -2.627 -13.379  0.00  0.00    -0.271 OA
HETATM    4  H           1     -35.274  -0.321 -11.341  0.00  0.00     0.163 HD
ENDROOT
BRANCH   1   5
HETATM    5  C           1     -33.492  -2.302 -11.359  0.00  0.00     0.275 C 
BRANCH   5   6
HETATM    6  C           1     -33.139  -3.780 -11.472  0.00  0.00     0.053 C 
BRANCH   6   7
HETATM    7  C           1     -34.038  -4.589 -10.547  0.00  0.00     0.115 C 
BRANCH   7   8
HETATM    8  C           1     -34.583  -5.783 -11.292  0.00  0.00     0.172 C 
HETATM    9  O           1     -34.559  -6.914 -10.761  0.00  0.00    -0.648 OA
HETATM   10  O           1     -35.056  -5.641 -12.440  0.00  0.00    -0.648 OA
ENDBRANCH   7   8
ENDBRANCH   6   7
ENDBRANCH   5   6
BRANCH   5  11
HETATM   11  N           1     -34.017  -2.018  -9.983  0.00  0.00    -0.066 N 
HETATM   12  H           1     -33.329  -1.429  -9.462  0.00  0.00     0.275 HD
HETATM   13  H           1     -34.161  -2.919  -9.472  0.00  0.00     0.275 HD
HETATM   14  H           1     -34.928  -1.512 -10.056  0.00  0.00     0.275 HD
ENDBRANCH   5  11
ENDBRANCH   1   5
BRANCH   2  15
HETATM   15  C           1     -36.386  -0.551 -13.159  0.00  0.00     0.186 C 
BRANCH  15  16
HETATM   16  C           1     -37.615   0.003 -12.450  0.00  0.00     0.046 C 
BRANCH  16  17
HETATM   17  C           1     -37.692  -0.572 -11.042  0.00  0.00     0.116 C 
BRANCH  17  18
HETATM   18  C           1     -37.290   0.485 -10.043  0.00  0.00     0.172 C 
HETATM   19  O           1     -36.172   0.425  -9.487  0.00  0.00    -0.648 OA
HETATM   20  O           1     -38.074   1.420  -9.772  0.00  0.00    -0.648 OA
ENDBRANCH  17  18
ENDBRANCH  16  17
ENDBRANCH  15  16
BRANCH  15  21
HETATM   21  C           1     -35.843   0.487 -14.111  0.00  0.00     0.196 C 
HETATM   22  O           1     -34.931   1.257 -13.741  0.00  0.00    -0.646 OA
HETATM   23  O           1     -36.305   0.575 -15.268  0.00  0.00    -0.646 OA
ENDBRANCH  15  21
ENDBRANCH   2  15
TORSDOF 10
ENDMDL
MODEL 3
REMARK VINA RESULT:      -6.7     12.200     13.644
REMARK  10 active torsions:
REMARK  status: ('A' for Active; 'I' for Inactive)
REMARK    1  A    between atoms: C_1  and  C_2 
REMARK    2  A    between atoms: C_1  and  C_19 
REMARK    3  A    between atoms: C_1  and  N_13 
REMARK       I    between atoms: C_2  and  N_3 
REMARK    4  A    between atoms: N_3  and  C_12 
REMARK    5  A    between atoms: C_9  and  C_10 
REMARK    6  A    between atoms: C_9  and  C_12 
REMARK    7  A    between atoms: C_10  and  C_14 
REMARK    8  A    between atoms: C_11  and  C_12 
REMARK    9  A    between atoms: C_17  and  C_18 
REMARK   10  A    between atoms: C_18  and  C_19 
ROOT
HETATM    1  C           1     -34.599  -2.641 -11.777  0.00  0.00     0.249 C 
HETATM    2  N           1     -35.609  -1.959 -12.401  0.00  0.00    -0.345 N 
HETATM    3  O           1     -33.860  -2.062 -11.016  0.00  0.00    -0.271 OA
HETATM    4  H           1     -36.228  -2.444 -13.038  0.00  0.00     0.163 HD
ENDROOT
BRANCH   1   5
HETATM    5  C           1     -34.407  -4.114 -12.041  0.00  0.00     0.275 C 
BRANCH   5   6
HETATM    6  C           1     -34.399  -4.871 -10.720  0.00  0.00     0.053 C 
BRANCH   6   7
HETATM    7  C           1     -33.689  -6.206 -10.904  0.00  0.00     0.115 C 
BRANCH   7   8
HETATM    8  C           1     -34.429  -7.279 -10.144  0.00  0.00     0.172 C 
HETATM    9  O           1     -33.981  -8.446 -10.114  0.00  0.00    -0.648 OA
HETATM   10  O           1     -35.491  -7.002  -9.546  0.00  0.00    -0.648 OA
ENDBRANCH   7   8
ENDBRANCH   6   7
ENDBRANCH   5   6
BRANCH   5  11
HETATM   11  N           1     -33.101  -4.328 -12.747  0.00  0.00    -0.066 N 
HETATM   12  H           1     -32.586  -5.117 -12.295  0.00  0.00     0.275 HD
HETATM   13  H           1     -32.524  -3.458 -12.688  0.00  0.00     0.275 HD
HETATM   14  H           1     -33.281  -4.557 -13.751  0.00  0.00     0.275 HD
ENDBRANCH   5  11
ENDBRANCH   1   5
BRANCH   2  15
HETATM   15  C           1     -35.794  -0.543 -12.147  0.00  0.00     0.186 C 
BRANCH  15  16
HETATM   16  C           1     -36.369   0.123 -13.389  0.00  0.00     0.046 C 
BRANCH  16  17
HETATM   17  C           1     -35.278   0.266 -14.441  0.00  0.00     0.116 C 
BRANCH  17  18
HETATM   18  C           1     -35.584  -0.637 -15.611  0.00  0.00     0.172 C 
HETATM   19  O           1     -36.199  -0.188 -16.602  0.00  0.00    -0.648 OA
HETATM   20  O           1     -35.223  -1.834 -15.589  0.00  0.00    -0.648 OA
ENDBRANCH  17  18
ENDBRANCH  16  17
ENDBRANCH  15  16
BRANCH  15  21
HETATM   21  C           1     -36.746  -0.360 -10.990  0.00  0.00     0.196 C 
HETATM   22  O           1     -37.852  -0.943 -10.993  0.00  0.00    -0.646 OA
HETATM   23  O           1     -36.428   0.374 -10.030  0.00  0.00    -0.646 OA
ENDBRANCH  15  21
ENDBRANCH   2  15
TORSDOF 10
ENDMDL
MODEL 4
REMARK VINA RESULT:      -6.6     10.653     13.036
REMARK  10 active torsions:
REMARK  status: ('A' for Active; 'I' for Inactive)
REMARK    1  A    between atoms: C_1  and  C_2 
REMARK    2  A    between atoms: C_1  and  C_19 
REMARK    3  A    between atoms: C_1  and  N_13 
REMARK       I    between atoms: C_2  and  N_3 
REMARK    4  A    between atoms: N_3  and  C_12 
REMARK    5  A    between atoms: C_9  and  C_10 
REMARK    6  A    between atoms: C_9  and  C_12 
REMARK    7  A    between atoms: C_10  and  C_14 
REMARK    8  A    between atoms: C_11  and  C_12 
REMARK    9  A    between atoms: C_17  and  C_18 
REMARK   10  A    between atoms: C_18  and  C_19 
ROOT
HETATM    1  C           1     -27.059  -6.397 -17.634  0.00  0.00     0.249 C 
HETATM    2  N           1     -28.059  -6.833 -18.462  0.00  0.00    -0.345 N 
HETATM    3  O           1     -27.302  -6.136 -16.480  0.00  0.00    -0.271 OA
HETATM    4  H           1     -27.856  -7.052 -19.429  0.00  0.00     0.163 HD
ENDROOT
BRANCH   1   5
HETATM    5  C           1     -25.656  -6.240 -18.164  0.00  0.00     0.275 C 
BRANCH   5   6
HETATM    6  C           1     -25.663  -6.393 -19.679  0.00  0.00     0.053 C 
BRANCH   6   7
HETATM    7  C           1     -24.661  -7.466 -20.086  0.00  0.00     0.115 C 
BRANCH   7   8
HETATM    8  C           1     -25.118  -8.122 -21.366  0.00  0.00     0.172 C 
HETATM    9  O           1     -24.331  -8.226 -22.331  0.00  0.00    -0.648 OA
HETATM   10  O           1     -26.285  -8.561 -21.461  0.00  0.00    -0.648 OA
ENDBRANCH   7   8
ENDBRANCH   6   7
ENDBRANCH   5   6
BRANCH   5  11
HETATM   11  N           1     -24.774  -7.293 -17.561  0.00  0.00    -0.066 N 
HETATM   12  H           1     -25.322  -8.172 -17.427  0.00  0.00     0.275 HD
HETATM   13  H           1     -24.418  -6.962 -16.635  0.00  0.00     0.275 HD
HETATM   14  H           1     -23.966  -7.477 -18.197  0.00  0.00     0.275 HD
ENDBRANCH   5  11
ENDBRANCH   1   5
BRANCH   2  15
HETATM   15  C           1     -29.408  -6.984 -17.953  0.00  0.00     0.186 C 
BRANCH  15  16
HETATM   16  C           1     -30.145  -5.656 -18.071  0.00  0.00     0.046 C 
BRANCH  16  17
HETATM   17  C           1     -30.844  -5.344 -16.755  0.00  0.00     0.116 C 
BRANCH  17  18
HETATM   18  C           1     -31.783  -4.178 -16.946  0.00  0.00     0.172 C 
HETATM   19  O           1     -31.394  -3.156 -17.552  0.00  0.00    -0.648 OA
HETATM   20  O           1     -32.949  -4.233 -16.499  0.00  0.00    -0.648 OA
ENDBRANCH  17  18
ENDBRANCH  16  17
ENDBRANCH  15  16
BRANCH  15  21
HETATM   21  C           1     -30.134  -8.036 -18.756  0.00  0.00     0.196 C 
HETATM   22  O           1     -31.384  -8.070 -18.756  0.00  0.00    -0.646 OA
HETATM   23  O           1     -29.486  -8.872 -19.419  0.00  0.00    -0.646 OA
ENDBRANCH  15  21
ENDBRANCH   2  15
TORSDOF 10
ENDMDL
MODEL 5
REMARK VINA RESULT:      -6.2      1.864      7.821
REMARK  10 active torsions:
REMARK  status: ('A' for Active; 'I' for Inactive)
REMARK    1  A    between atoms: C_1  and  C_2 
REMARK    2  A    between atoms: C_1  and  C_19 
REMARK    3  A    between atoms: C_1  and  N_13 
REMARK       I    between atoms: C_2  and  N_3 
REMARK    4  A    between atoms: N_3  and  C_12 
REMARK    5  A    between atoms: C_9  and  C_10 
REMARK    6  A    between atoms: C_9  and  C_12 
REMARK    7  A    between atoms: C_10  and  C_14 
REMARK    8  A    between atoms: C_11  and  C_12 
REMARK    9  A    between atoms: C_17  and  C_18 
REMARK   10  A    between atoms: C_18  and  C_19 
ROOT
HETATM    1  C           1     -20.957  -4.670  -7.139  0.00  0.00     0.249 C 
HETATM    2  N           1     -21.684  -5.570  -6.408  0.00  0.00    -0.345 N 
HETATM    3  O           1     -19.807  -4.443  -6.847  0.00  0.00    -0.271 OA
HETATM    4  H           1     -22.647  -5.760  -6.652  0.00  0.00     0.163 HD
ENDROOT
BRANCH   1   5
HETATM    5  C           1     -21.593  -3.959  -8.308  0.00  0.00     0.275 C 
BRANCH   5   6
HETATM    6  C           1     -23.101  -4.165  -8.270  0.00  0.00     0.053 C 
BRANCH   6   7
HETATM    7  C           1     -23.592  -4.579  -9.651  0.00  0.00     0.115 C 
BRANCH   7   8
HETATM    8  C           1     -24.408  -3.461 -10.251  0.00  0.00     0.172 C 
HETATM    9  O           1     -23.973  -2.830 -11.238  0.00  0.00    -0.648 OA
HETATM   10  O           1     -25.520  -3.166  -9.761  0.00  0.00    -0.648 OA
ENDBRANCH   7   8
ENDBRANCH   6   7
ENDBRANCH   5   6
BRANCH   5  11
HETATM   11  N           1     -21.045  -4.515  -9.589  0.00  0.00    -0.066 N 
HETATM   12  H           1     -21.639  -5.316  -9.902  0.00  0.00     0.275 HD
HETATM   13  H           1     -20.066  -4.848  -9.435  0.00  0.00     0.275 HD
HETATM   14  H           1     -21.047  -3.770 -10.322  0.00  0.00     0.275 HD
ENDBRANCH   5  11
ENDBRANCH   1   5
BRANCH   2  15
HETATM   15  C           1     -21.072  -6.253  -5.284  0.00  0.00     0.186 C 
BRANCH  15  16
HETATM   16  C           1     -22.102  -6.425  -4.174  0.00  0.00     0.046 C 
BRANCH  16  17
HETATM   17  C           1     -21.456  -6.119  -2.830  0.00  0.00     0.116 C 
BRANCH  17  18
HETATM   18  C           1     -21.957  -7.096  -1.795  0.00  0.00     0.172 C 
HETATM   19  O           1     -21.683  -8.312  -1.900  0.00  0.00    -0.648 OA
HETATM   20  O           1     -22.645  -6.691  -0.833  0.00  0.00    -0.648 OA
ENDBRANCH  17  18
ENDBRANCH  16  17
ENDBRANCH  15  16
BRANCH  15  21
HETATM   21  C           1     -20.579  -7.609  -5.727  0.00  0.00     0.196 C 
HETATM   22  O           1     -19.407  -7.743  -6.140  0.00  0.00    -0.646 OA
HETATM   23  O           1     -21.343  -8.597  -5.682  0.00  0.00    -0.646 OA
ENDBRANCH  15  21
ENDBRANCH   2  15
TORSDOF 10
ENDMDL
MODEL 6
REMARK VINA RESULT:      -6.1      1.602      7.670
REMARK  10 active torsions:
REMARK  status: ('A' for Active; 'I' for Inactive)
REMARK    1  A    between atoms: C_1  and  C_2 
REMARK    2  A    between atoms: C_1  and  C_19 
REMARK    3  A    between atoms: C_1  and  N_13 
REMARK       I    between atoms: C_2  and  N_3 
REMARK    4  A    between atoms: N_3  and  C_12 
REMARK    5  A    between atoms: C_9  and  C_10 
REMARK    6  A    between atoms: C_9  and  C_12 
REMARK    7  A    between atoms: C_10  and  C_14 
REMARK    8  A    between atoms: C_11  and  C_12 
REMARK    9  A    between atoms: C_17  and  C_18 
REMARK   10  A    between atoms: C_18  and  C_19 
ROOT
HETATM    1  C           1     -23.149  -4.428  -8.543  0.00  0.00     0.249 C 
HETATM    2  N           1     -21.858  -4.868  -8.428  0.00  0.00    -0.345 N 
HETATM    3  O           1     -23.751  -4.060  -7.562  0.00  0.00    -0.271 OA
HETATM    4  H           1     -21.354  -5.177  -9.249  0.00  0.00     0.163 HD
ENDROOT
BRANCH   1   5
HETATM    5  C           1     -23.821  -4.405  -9.894  0.00  0.00     0.275 C 
BRANCH   5   6
HETATM    6  C           1     -23.135  -3.379 -10.786  0.00  0.00     0.053 C 
BRANCH   6   7
HETATM    7  C           1     -23.085  -3.902 -12.216  0.00  0.00     0.115 C 
BRANCH   7   8
HETATM    8  C           1     -24.077  -3.145 -13.063  0.00  0.00     0.172 C 
HETATM    9  O           1     -23.764  -2.779 -14.217  0.00  0.00    -0.648 OA
HETATM   10  O           1     -25.213  -2.883 -12.612  0.00  0.00    -0.648 OA
ENDBRANCH   7   8
ENDBRANCH   6   7
ENDBRANCH   5   6
BRANCH   5  11
HETATM   11  N           1     -25.265  -4.035  -9.727  0.00  0.00    -0.066 N 
HETATM   12  H           1     -25.725  -4.713  -9.078  0.00  0.00     0.275 HD
HETATM   13  H           1     -25.743  -4.065 -10.656  0.00  0.00     0.275 HD
HETATM   14  H           1     -25.335  -3.070  -9.332  0.00  0.00     0.275 HD
ENDBRANCH   5  11
ENDBRANCH   1   5
BRANCH   2  15
HETATM   15  C           1     -21.213  -4.891  -7.129  0.00  0.00     0.186 C 
BRANCH  15  16
HETATM   16  C           1     -21.269  -6.302  -6.560  0.00  0.00     0.046 C 
BRANCH  16  17
HETATM   17  C           1     -22.243  -6.339  -5.390  0.00  0.00     0.116 C 
BRANCH  17  18
HETATM   18  C           1     -21.482  -6.562  -4.106  0.00  0.00     0.172 C 
HETATM   19  O           1     -20.497  -7.332  -4.090  0.00  0.00    -0.648 OA
HETATM   20  O           1     -21.836  -5.978  -3.059  0.00  0.00    -0.648 OA
ENDBRANCH  17  18
ENDBRANCH  16  17
ENDBRANCH  15  16
BRANCH  15  21
HETATM   21  C           1     -19.772  -4.465  -7.277  0.00  0.00     0.196 C 
HETATM   22  O           1     -19.424  -3.764  -8.251  0.00  0.00    -0.646 OA
HETATM   23  O           1     -18.927  -4.813  -6.425  0.00  0.00    -0.646 OA
ENDBRANCH  15  21
ENDBRANCH   2  15
TORSDOF 10
ENDMDL
MODEL 7
REMARK VINA RESULT:      -6.0      1.898      3.253
REMARK  10 active torsions:
REMARK  status: ('A' for Active; 'I' for Inactive)
REMARK    1  A    between atoms: C_1  and  C_2 
REMARK    2  A    between atoms: C_1  and  C_19 
REMARK    3  A    between atoms: C_1  and  N_13 
REMARK       I    between atoms: C_2  and  N_3 
REMARK    4  A    between atoms: N_3  and  C_12 
REMARK    5  A    between atoms: C_9  and  C_10 
REMARK    6  A    between atoms: C_9  and  C_12 
REMARK    7  A    between atoms: C_10  and  C_14 
REMARK    8  A    between atoms: C_11  and  C_12 
REMARK    9  A    between atoms: C_17  and  C_18 
REMARK   10  A    between atoms: C_18  and  C_19 
ROOT
HETATM    1  C           1     -21.696  -6.478  -5.947  0.00  0.00     0.249 C 
HETATM    2  N           1     -22.396  -5.403  -6.426  0.00  0.00    -0.345 N 
HETATM    3  O           1     -20.821  -6.975  -6.615  0.00  0.00    -0.271 OA
HETATM    4  H           1     -23.129  -4.986  -5.866  0.00  0.00     0.163 HD
ENDROOT
BRANCH   1   5
HETATM    5  C           1     -22.019  -7.042  -4.586  0.00  0.00     0.275 C 
BRANCH   5   6
HETATM    6  C           1     -21.269  -6.256  -3.518  0.00  0.00     0.053 C 
BRANCH   6   7
HETATM    7  C           1     -22.166  -6.073  -2.300  0.00  0.00     0.115 C 
BRANCH   7   8
HETATM    8  C           1     -21.891  -7.171  -1.303  0.00  0.00     0.172 C 
HETATM    9  O           1     -20.886  -7.902  -1.439  0.00  0.00    -0.648 OA
HETATM   10  O           1     -22.669  -7.352  -0.341  0.00  0.00    -0.648 OA
ENDBRANCH   7   8
ENDBRANCH   6   7
ENDBRANCH   5   6
BRANCH   5  11
HETATM   11  N           1     -21.602  -8.482  -4.531  0.00  0.00    -0.066 N 
HETATM   12  H           1     -22.239  -9.005  -3.888  0.00  0.00     0.275 HD
HETATM   13  H           1     -20.621  -8.548  -4.176  0.00  0.00     0.275 HD
HETATM   14  H           1     -21.654  -8.897  -5.488  0.00  0.00     0.275 HD
ENDBRANCH   5  11
ENDBRANCH   1   5
BRANCH   2  15
HETATM   15  C           1     -22.086  -4.860  -7.735  0.00  0.00     0.186 C 
BRANCH  15  16
HETATM   16  C           1     -23.340  -4.241  -8.337  0.00  0.00     0.046 C 
BRANCH  16  17
HETATM   17  C           1     -23.063  -3.829  -9.776  0.00  0.00     0.116 C 
BRANCH  17  18
HETATM   18  C           1     -24.335  -3.323 -10.410  0.00  0.00     0.172 C 
HETATM   19  O           1     -25.386  -3.260  -9.736  0.00  0.00    -0.648 OA
HETATM   20  O           1     -24.338  -2.965 -11.608  0.00  0.00    -0.648 OA
ENDBRANCH  17  18
ENDBRANCH  16  17
ENDBRANCH  15  16
BRANCH  15  21
HETATM   21  C           1     -21.017  -3.803  -7.600  0.00  0.00     0.196 C 
HETATM   22  O           1     -21.239  -2.772  -6.928  0.00  0.00    -0.646 OA
HETATM   23  O           1     -19.911  -3.958  -8.159  0.00  0.00    -0.646 OA
ENDBRANCH  15  21
ENDBRANCH   2  15
TORSDOF 10
ENDMDL
MODEL 8
REMARK VINA RESULT:      -5.9      9.170     12.390
REMARK  10 active torsions:
REMARK  status: ('A' for Active; 'I' for Inactive)
REMARK    1  A    between atoms: C_1  and  C_2 
REMARK    2  A    between atoms: C_1  and  C_19 
REMARK    3  A    between atoms: C_1  and  N_13 
REMARK       I    between atoms: C_2  and  N_3 
REMARK    4  A    between atoms: N_3  and  C_12 
REMARK    5  A    between atoms: C_9  and  C_10 
REMARK    6  A    between atoms: C_9  and  C_12 
REMARK    7  A    between atoms: C_10  and  C_14 
REMARK    8  A    between atoms: C_11  and  C_12 
REMARK    9  A    between atoms: C_17  and  C_18 
REMARK   10  A    between atoms: C_18  and  C_19 
ROOT
HETATM    1  C           1     -27.110  -6.144 -19.187  0.00  0.00     0.249 C 
HETATM    2  N           1     -26.389  -6.636 -18.132  0.00  0.00    -0.345 N 
HETATM    3  O           1     -28.060  -5.426 -18.987  0.00  0.00    -0.271 OA
HETATM    4  H           1     -25.593  -7.237 -18.299  0.00  0.00     0.163 HD
ENDROOT
BRANCH   1   5
HETATM    5  C           1     -26.717  -6.501 -20.600  0.00  0.00     0.275 C 
BRANCH   5   6
HETATM    6  C           1     -26.198  -7.932 -20.638  0.00  0.00     0.053 C 
BRANCH   6   7
HETATM    7  C           1     -24.978  -8.005 -21.547  0.00  0.00     0.115 C 
BRANCH   7   8
HETATM    8  C           1     -23.726  -8.058 -20.707  0.00  0.00     0.172 C 
HETATM    9  O           1     -23.722  -7.564 -19.559  0.00  0.00    -0.648 OA
HETATM   10  O           1     -22.692  -8.596 -21.159  0.00  0.00    -0.648 OA
ENDBRANCH   7   8
ENDBRANCH   6   7
ENDBRANCH   5   6
BRANCH   5  11
HETATM   11  N           1     -25.642  -5.566 -21.070  0.00  0.00    -0.066 N 
HETATM   12  H           1     -25.693  -4.675 -20.527  0.00  0.00     0.275 HD
HETATM   13  H           1     -25.778  -5.361 -22.086  0.00  0.00     0.275 HD
HETATM   14  H           1     -24.707  -6.011 -20.928  0.00  0.00     0.275 HD
ENDBRANCH   5  11
ENDBRANCH   1   5
BRANCH   2  15
HETATM   15  C           1     -26.766  -6.293 -16.774  0.00  0.00     0.186 C 
BRANCH  15  16
HETATM   16  C           1     -27.902  -7.200 -16.320  0.00  0.00     0.046 C 
BRANCH  16  17
HETATM   17  C           1     -28.965  -6.368 -15.615  0.00  0.00     0.116 C 
BRANCH  17  18
HETATM   18  C           1     -30.143  -6.170 -16.537  0.00  0.00     0.172 C 
HETATM   19  O           1     -30.499  -7.091 -17.304  0.00  0.00    -0.648 OA
HETATM   20  O           1     -30.764  -5.084 -16.534  0.00  0.00    -0.648 OA
ENDBRANCH  17  18
ENDBRANCH  16  17
ENDBRANCH  15  16
BRANCH  15  21
HETATM   21  C           1     -25.579  -6.478 -15.861  0.00  0.00     0.196 C 
HETATM   22  O           1     -25.194  -7.629 -15.561  0.00  0.00    -0.646 OA
HETATM   23  O           1     -24.981  -5.480 -15.404  0.00  0.00    -0.646 OA
ENDBRANCH  15  21
ENDBRANCH   2  15
TORSDOF 10
ENDMDL
MODEL 9
REMARK VINA RESULT:      -5.8      1.544      2.240
REMARK  10 active torsions:
REMARK  status: ('A' for Active; 'I' for Inactive)
REMARK    1  A    between atoms: C_1  and  C_2 
REMARK    2  A    between atoms: C_1  and  C_19 
REMARK    3  A    between atoms: C_1  and  N_13 
REMARK       I    between atoms: C_2  and  N_3 
REMARK    4  A    between atoms: N_3  and  C_12 
REMARK    5  A    between atoms: C_9  and  C_10 
REMARK    6  A    between atoms: C_9  and  C_12 
REMARK    7  A    between atoms: C_10  and  C_14 
REMARK    8  A    between atoms: C_11  and  C_12 
REMARK    9  A    between atoms: C_17  and  C_18 
REMARK   10  A    between atoms: C_18  and  C_19 
ROOT
HETATM    1  C           1     -21.930  -4.448  -7.941  0.00  0.00     0.249 C 
HETATM    2  N           1     -22.593  -4.631  -9.125  0.00  0.00    -0.345 N 
HETATM    3  O           1     -21.930  -3.363  -7.410  0.00  0.00    -0.271 OA
HETATM    4  H           1     -22.593  -5.540  -9.570  0.00  0.00     0.163 HD
ENDROOT
BRANCH   1   5
HETATM    5  C           1     -21.197  -5.601  -7.301  0.00  0.00     0.275 C 
BRANCH   5   6
HETATM    6  C           1     -21.665  -5.765  -5.861  0.00  0.00     0.053 C 
BRANCH   6   7
HETATM    7  C           1     -20.690  -6.663  -5.110  0.00  0.00     0.115 C 
BRANCH   7   8
HETATM    8  C           1     -21.218  -6.928  -3.721  0.00  0.00     0.172 C 
HETATM    9  O           1     -21.892  -6.056  -3.132  0.00  0.00    -0.648 OA
HETATM   10  O           1     -20.980  -8.020  -3.160  0.00  0.00    -0.648 OA
ENDBRANCH   7   8
ENDBRANCH   6   7
ENDBRANCH   5   6
BRANCH   5  11
HETATM   11  N           1     -19.722  -5.326  -7.318  0.00  0.00    -0.066 N 
HETATM   12  H           1     -19.544  -4.412  -7.792  0.00  0.00     0.275 HD
HETATM   13  H           1     -19.230  -6.088  -7.838  0.00  0.00     0.275 HD
HETATM   14  H           1     -19.364  -5.287  -6.337  0.00  0.00     0.275 HD
ENDBRANCH   5  11
ENDBRANCH   1   5
BRANCH   2  15
HETATM   15  C           1     -23.298  -3.522  -9.740  0.00  0.00     0.186 C 
BRANCH  15  16
HETATM   16  C           1     -22.795  -3.331 -11.164  0.00  0.00     0.046 C 
BRANCH  16  17
HETATM   17  C           1     -21.825  -4.451 -11.516  0.00  0.00     0.116 C 
BRANCH  17  18
HETATM   18  C           1     -20.431  -4.064 -11.087  0.00  0.00     0.172 C 
HETATM   19  O           1     -19.684  -4.912 -10.553  0.00  0.00    -0.648 OA
HETATM   20  O           1     -20.024  -2.895 -11.264  0.00  0.00    -0.648 OA
ENDBRANCH  17  18
ENDBRANCH  16  17
ENDBRANCH  15  16
BRANCH  15  21
HETATM   21  C           1     -24.778  -3.819  -9.764  0.00  0.00     0.196 C 
HETATM   22  O           1     -25.603  -2.881  -9.806  0.00  0.00    -0.646 OA
HETATM   23  O           1     -25.178  -5.002  -9.743  0.00  0.00    -0.646 OA
ENDBRANCH  15  21
ENDBRANCH   2  15
TORSDOF 10
ENDMDL
