MODEL 1
REMARK VINA RESULT:      -7.9      0.000      0.000
REMARK  11 active torsions:
REMARK  status: ('A' for Active; 'I' for Inactive)
REMARK    1  A    between atoms: N_5  and  C_18 
REMARK    2  A    between atoms: O_10  and  P_11 
REMARK    3  A    between atoms: P_11  and  O_12 
REMARK    4  A    between atoms: O_12  and  C_13 
REMARK    5  A    between atoms: C_16  and  C_17 
REMARK    6  A    between atoms: C_17  and  C_18 
REMARK    7  A    between atoms: C_18  and  C_19 
REMARK       I    between atoms: C_19  and  N_20 
REMARK    8  A    between atoms: N_20  and  C_24 
REMARK    9  A    between atoms: C_23  and  C_24 
REMARK   10  A    between atoms: C_24  and  C_25 
REMARK   11  A    between atoms: C_25  and  C_27 
REMARK       I    between atoms: N_26  and  C_27 
ROOT
HETATM    1  C           1     -20.987  -4.942  -6.337  0.00  0.00     0.278 C 
ENDROOT
BRANCH   1   2
HETATM    2  N           1     -19.686  -4.516  -5.725  0.00  0.00    -0.066 N 
HETATM    3  H           1     -19.862  -3.775  -5.009  0.00  0.00     0.275 HD
HETATM    4  H           1     -19.230  -5.339  -5.268  0.00  0.00     0.275 HD
HETATM    5  H           1     -19.057  -4.138  -6.469  0.00  0.00     0.275 HD
ENDBRANCH   1   2
BRANCH   1   6
HETATM    6  C           1     -20.719  -5.632  -7.668  0.00  0.00     0.081 C 
BRANCH   6   7
HETATM    7  C           1     -21.291  -4.811  -8.782  0.00  0.00    -0.056 A 
HETATM    8  C           1     -20.501  -4.482  -9.884  0.00  0.00     0.010 A 
HETATM    9  C           1     -21.036  -3.717 -10.921  0.00  0.00     0.038 A 
HETATM   10  C           1     -22.359  -3.281 -10.856  0.00  0.00     0.081 A 
HETATM   11  C           1     -23.148  -3.608  -9.754  0.00  0.00     0.038 A 
HETATM   12  C           1     -22.615  -4.373  -8.717  0.00  0.00     0.010 A 
BRANCH  10  13
HETATM   13  O           1     -22.877  -2.537 -11.863  0.00  0.00    -0.247 OA
BRANCH  13  14
HETATM   14  P           1     -23.886  -3.261 -12.897  0.00  0.00     0.411 P 
HETATM   15  O           1     -23.588  -2.808 -14.274  0.00  0.00    -0.624 OA
HETATM   16  O           1     -25.281  -2.909 -12.553  0.00  0.00    -0.624 OA
BRANCH  14  17
HETATM   17  O           1     -23.696  -4.862 -12.804  0.00  0.00    -0.300 OA
HETATM   18  H           1     -22.917  -5.044 -13.303  0.00  0.00     0.223 HD
ENDBRANCH  14  17
ENDBRANCH  13  14
ENDBRANCH  10  13
ENDBRANCH   6   7
ENDBRANCH   1   6
BRANCH   1  19
HETATM   19  C           1     -21.690  -5.899  -5.407  0.00  0.00     0.249 C 
HETATM   20  O           1     -22.897  -5.906  -5.346  0.00  0.00    -0.271 OA
HETATM   21  N           1     -20.961  -6.757  -4.630  0.00  0.00    -0.344 N 
HETATM   22  H           1     -19.950  -6.751  -4.680  0.00  0.00     0.163 HD
BRANCH  21  23
HETATM   23  C           1     -21.636  -7.676  -3.734  0.00  0.00     0.194 C 
BRANCH  23  24
HETATM   24  C           1     -21.412  -7.241  -2.306  0.00  0.00     0.197 C 
HETATM   25  O           1     -20.548  -7.816  -1.607  0.00  0.00    -0.646 OA
HETATM   26  O           1     -22.089  -6.309  -1.823  0.00  0.00    -0.646 OA
ENDBRANCH  23  24
BRANCH  23  27
HETATM   27  C           1     -21.079  -9.079  -3.930  0.00  0.00     0.138 C 
BRANCH  27  28
HETATM   28  C           1     -19.702  -8.993  -4.541  0.00  0.00     0.217 C 
HETATM   29  N           1     -18.594  -9.011  -3.737  0.00  0.00    -0.370 N 
HETATM   30  H           1     -17.671  -8.954  -4.147  0.00  0.00     0.159 HD
HETATM   31  H           1     -18.699  -9.083  -2.733  0.00  0.00     0.159 HD
HETATM   32  O           1     -19.576  -8.909  -5.740  0.00  0.00    -0.274 OA
ENDBRANCH  27  28
ENDBRANCH  23  27
ENDBRANCH  21  23
ENDBRANCH   1  19
TORSDOF 11
ENDMDL
MODEL 2
REMARK VINA RESULT:      -7.6      1.474      2.747
REMARK  11 active torsions:
REMARK  status: ('A' for Active; 'I' for Inactive)
REMARK    1  A    between atoms: N_5  and  C_18 
REMARK    2  A    between atoms: O_10  and  P_11 
REMARK    3  A    between atoms: P_11  and  O_12 
REMARK    4  A    between atoms: O_12  and  C_13 
REMARK    5  A    between atoms: C_16  and  C_17 
REMARK    6  A    between atoms: C_17  and  C_18 
REMARK    7  A    between atoms: C_18  and  C_19 
REMARK       I    between atoms: C_19  and  N_20 
REMARK    8  A    between atoms: N_20  and  C_24 
REMARK    9  A    between atoms: C_23  and  C_24 
REMARK   10  A    between atoms: C_24  and  C_25 
REMARK   11  A    between atoms: C_25  and  C_27 
REMARK       I    between atoms: N_26  and  C_27 
ROOT
HETATM    1  C           1     -21.778  -4.838  -7.178  0.00  0.00     0.278 C 
ENDROOT
BRANCH   1   2
HETATM    2  N           1     -21.434  -3.383  -7.055  0.00  0.00    -0.066 N 
HETATM    3  H           1     -20.519  -3.281  -6.561  0.00  0.00     0.275 HD
HETATM    4  H           1     -21.364  -2.960  -8.008  0.00  0.00     0.275 HD
HETATM    5  H           1     -22.179  -2.893  -6.510  0.00  0.00     0.275 HD
ENDBRANCH   1   2
BRANCH   1   6
HETATM    6  C           1     -21.259  -5.370  -8.508  0.00  0.00     0.081 C 
BRANCH   6   7
HETATM    7  C           1     -21.702  -4.465  -9.616  0.00  0.00    -0.056 A 
HETATM    8  C           1     -23.056  -4.171  -9.776  0.00  0.00     0.010 A 
HETATM    9  C           1     -23.467  -3.327 -10.808  0.00  0.00     0.038 A 
HETATM   10  C           1     -22.526  -2.779 -11.679  0.00  0.00     0.081 A 
HETATM   11  C           1     -21.172  -3.073 -11.518  0.00  0.00     0.038 A 
HETATM   12  C           1     -20.760  -3.916 -10.487  0.00  0.00     0.010 A 
BRANCH  10  13
HETATM   13  O           1     -22.926  -1.959 -12.681  0.00  0.00    -0.247 OA
BRANCH  13  14
HETATM   14  P           1     -23.479  -2.637 -14.040  0.00  0.00     0.411 P 
HETATM   15  O           1     -24.269  -1.644 -14.800  0.00  0.00    -0.624 OA
HETATM   16  O           1     -24.337  -3.794 -13.699  0.00  0.00    -0.624 OA
BRANCH  14  17
HETATM   17  O           1     -22.233  -3.137 -14.938  0.00  0.00    -0.300 OA
HETATM   18  H           1     -22.564  -3.875 -15.422  0.00  0.00     0.223 HD
ENDBRANCH  14  17
ENDBRANCH  13  14
ENDBRANCH  10  13
ENDBRANCH   6   7
ENDBRANCH   1   6
BRANCH   1  19
HETATM   19  C           1     -21.138  -5.603  -6.046  0.00  0.00     0.249 C 
HETATM   20  O           1     -20.564  -5.008  -5.165  0.00  0.00    -0.271 OA
HETATM   21  N           1     -21.206  -6.969  -6.018  0.00  0.00    -0.344 N 
HETATM   22  H           1     -21.686  -7.467  -6.757  0.00  0.00     0.163 HD
BRANCH  21  23
HETATM   23  C           1     -20.589  -7.704  -4.930  0.00  0.00     0.194 C 
BRANCH  23  24
HETATM   24  C           1     -19.968  -8.970  -5.469  0.00  0.00     0.197 C 
HETATM   25  O           1     -20.688  -9.962  -5.715  0.00  0.00    -0.646 OA
HETATM   26  O           1     -18.735  -9.026  -5.667  0.00  0.00    -0.646 OA
ENDBRANCH  23  24
BRANCH  23  27
HETATM   27  C           1     -21.646  -8.059  -3.894  0.00  0.00     0.138 C 
BRANCH  27  28
HETATM   28  C           1     -21.432  -7.229  -2.652  0.00  0.00     0.217 C 
HETATM   29  N           1     -22.107  -6.048  -2.492  0.00  0.00    -0.370 N 
HETATM   30  H           1     -21.965  -5.493  -1.660  0.00  0.00     0.159 HD
HETATM   31  H           1     -22.750  -5.733  -3.208  0.00  0.00     0.159 HD
HETATM   32  O           1     -20.665  -7.606  -1.797  0.00  0.00    -0.274 OA
ENDBRANCH  27  28
ENDBRANCH  23  27
ENDBRANCH  21  23
ENDBRANCH   1  19
TORSDOF 11
ENDMDL
MODEL 3
REMARK VINA RESULT:      -7.1      1.918      2.878
REMARK  11 active torsions:
REMARK  status: ('A' for Active; 'I' for Inactive)
REMARK    1  A    between atoms: N_5  and  C_18 
REMARK    2  A    between atoms: O_10  and  P_11 
REMARK    3  A    between atoms: P_11  and  O_12 
REMARK    4  A    between atoms: O_12  and  C_13 
REMARK    5  A    between atoms: C_16  and  C_17 
REMARK    6  A    between atoms: C_17  and  C_18 
REMARK    7  A    between atoms: C_18  and  C_19 
REMARK       I    between atoms: C_19  and  N_20 
REMARK    8  A    between atoms: N_20  and  C_24 
REMARK    9  A    between atoms: C_23  and  C_24 
REMARK   10  A    between atoms: C_24  and  C_25 
REMARK   11  A    between atoms: C_25  and  C_27 
REMARK       I    between atoms: N_26  and  C_27 
ROOT
HETATM    1  C           1     -21.444  -6.605  -5.737  0.00  0.00     0.278 C 
ENDROOT
BRANCH   1   2
HETATM    2  N           1     -21.969  -6.062  -4.441  0.00  0.00    -0.066 N 
HETATM    3  H           1     -21.388  -5.245  -4.144  0.00  0.00     0.275 HD
HETATM    4  H           1     -22.960  -5.755  -4.568  0.00  0.00     0.275 HD
HETATM    5  H           1     -21.924  -6.804  -3.707  0.00  0.00     0.275 HD
ENDBRANCH   1   2
BRANCH   1   6
HETATM    6  C           1     -20.391  -5.656  -6.295  0.00  0.00     0.081 C 
BRANCH   6   7
HETATM    7  C           1     -20.927  -4.978  -7.518  0.00  0.00    -0.056 A 
HETATM    8  C           1     -22.189  -4.384  -7.489  0.00  0.00     0.010 A 
HETATM    9  C           1     -22.688  -3.752  -8.629  0.00  0.00     0.038 A 
HETATM   10  C           1     -21.926  -3.716  -9.796  0.00  0.00     0.081 A 
HETATM   11  C           1     -20.665  -4.311  -9.826  0.00  0.00     0.038 A 
HETATM   12  C           1     -20.166  -4.942  -8.687  0.00  0.00     0.010 A 
BRANCH  10  13
HETATM   13  O           1     -22.411  -3.103 -10.903  0.00  0.00    -0.247 OA
BRANCH  13  14
HETATM   14  P           1     -23.732  -3.723 -11.596  0.00  0.00     0.411 P 
HETATM   15  O           1     -23.673  -5.201 -11.535  0.00  0.00    -0.624 OA
HETATM   16  O           1     -23.797  -3.290 -13.009  0.00  0.00    -0.624 OA
BRANCH  14  17
HETATM   17  O           1     -25.046  -3.205 -10.813  0.00  0.00    -0.300 OA
HETATM   18  H           1     -24.720  -2.842 -10.006  0.00  0.00     0.223 HD
ENDBRANCH  14  17
ENDBRANCH  13  14
ENDBRANCH  10  13
ENDBRANCH   6   7
ENDBRANCH   1   6
BRANCH   1  19
HETATM   19  C           1     -20.824  -7.960  -5.498  0.00  0.00     0.249 C 
HETATM   20  O           1     -21.338  -8.949  -5.962  0.00  0.00    -0.271 OA
HETATM   21  N           1     -19.680  -8.067  -4.754  0.00  0.00    -0.344 N 
HETATM   22  H           1     -19.250  -7.238  -4.365  0.00  0.00     0.163 HD
BRANCH  21  23
HETATM   23  C           1     -19.085  -9.369  -4.524  0.00  0.00     0.194 C 
BRANCH  23  24
HETATM   24  C           1     -18.536  -9.428  -3.119  0.00  0.00     0.197 C 
HETATM   25  O           1     -19.311  -9.596  -2.152  0.00  0.00    -0.646 OA
HETATM   26  O           1     -17.307  -9.309  -2.923  0.00  0.00    -0.646 OA
ENDBRANCH  23  24
BRANCH  23  27
HETATM   27  C           1     -17.955  -9.595  -5.519  0.00  0.00     0.138 C 
BRANCH  27  28
HETATM   28  C           1     -18.154 -10.920  -6.214  0.00  0.00     0.217 C 
HETATM   29  N           1     -19.375 -11.238  -6.745  0.00  0.00    -0.370 N 
HETATM   30  H           1     -19.508 -12.126  -7.211  0.00  0.00     0.159 HD
HETATM   31  H           1     -20.144 -10.584  -6.672  0.00  0.00     0.159 HD
HETATM   32  O           1     -17.235 -11.700  -6.302  0.00  0.00    -0.274 OA
ENDBRANCH  27  28
ENDBRANCH  23  27
ENDBRANCH  21  23
ENDBRANCH   1  19
TORSDOF 11
ENDMDL
MODEL 4
REMARK VINA RESULT:      -7.1      2.031      3.016
REMARK  11 active torsions:
REMARK  status: ('A' for Active; 'I' for Inactive)
REMARK    1  A    between atoms: N_5  and  C_18 
REMARK    2  A    between atoms: O_10  and  P_11 
REMARK    3  A    between atoms: P_11  and  O_12 
REMARK    4  A    between atoms: O_12  and  C_13 
REMARK    5  A    between atoms: C_16  and  C_17 
REMARK    6  A    between atoms: C_17  and  C_18 
REMARK    7  A    between atoms: C_18  and  C_19 
REMARK       I    between atoms: C_19  and  N_20 
REMARK    8  A    between atoms: N_20  and  C_24 
REMARK    9  A    between atoms: C_23  and  C_24 
REMARK   10  A    between atoms: C_24  and  C_25 
REMARK   11  A    between atoms: C_25  and  C_27 
REMARK       I    between atoms: N_26  and  C_27 
ROOT
HETATM    1  C           1     -21.533  -6.612  -5.222  0.00  0.00     0.278 C 
ENDROOT
BRANCH   1   2
HETATM    2  N           1     -21.904  -5.986  -3.910  0.00  0.00    -0.066 N 
HETATM    3  H           1     -22.506  -6.645  -3.366  0.00  0.00     0.275 HD
HETATM    4  H           1     -21.036  -5.780  -3.365  0.00  0.00     0.275 HD
HETATM    5  H           1     -22.428  -5.098  -4.081  0.00  0.00     0.275 HD
ENDBRANCH   1   2
BRANCH   1   6
HETATM    6  C           1     -20.422  -5.799  -5.874  0.00  0.00     0.081 C 
BRANCH   6   7
HETATM    7  C           1     -20.946  -5.143  -7.115  0.00  0.00    -0.056 A 
HETATM    8  C           1     -20.157  -5.097  -8.265  0.00  0.00     0.010 A 
HETATM    9  C           1     -20.646  -4.486  -9.421  0.00  0.00     0.038 A 
HETATM   10  C           1     -21.921  -3.923  -9.426  0.00  0.00     0.081 A 
HETATM   11  C           1     -22.709  -3.969  -8.276  0.00  0.00     0.038 A 
HETATM   12  C           1     -22.222  -4.579  -7.121  0.00  0.00     0.010 A 
BRANCH  10  13
HETATM   13  O           1     -22.395  -3.330 -10.548  0.00  0.00    -0.247 OA
BRANCH  13  14
HETATM   14  P           1     -23.678  -3.994 -11.273  0.00  0.00     0.411 P 
HETATM   15  O           1     -24.884  -3.191 -10.971  0.00  0.00    -0.624 OA
HETATM   16  O           1     -23.866  -5.374 -10.774  0.00  0.00    -0.624 OA
BRANCH  14  17
HETATM   17  O           1     -23.439  -4.026 -12.870  0.00  0.00    -0.300 OA
HETATM   18  H           1     -22.668  -3.502 -13.010  0.00  0.00     0.223 HD
ENDBRANCH  14  17
ENDBRANCH  13  14
ENDBRANCH  10  13
ENDBRANCH   6   7
ENDBRANCH   1   6
BRANCH   1  19
HETATM   19  C           1     -21.053  -8.022  -4.987  0.00  0.00     0.249 C 
HETATM   20  O           1     -20.220  -8.506  -5.716  0.00  0.00    -0.271 OA
HETATM   21  N           1     -21.563  -8.755  -3.949  0.00  0.00    -0.344 N 
HETATM   22  H           1     -22.261  -8.350  -3.339  0.00  0.00     0.163 HD
BRANCH  21  23
HETATM   23  C           1     -21.102 -10.111  -3.724  0.00  0.00     0.194 C 
BRANCH  23  24
HETATM   24  C           1     -22.270 -11.062  -3.831  0.00  0.00     0.197 C 
HETATM   25  O           1     -23.099 -11.139  -2.899  0.00  0.00    -0.646 OA
HETATM   26  O           1     -22.407 -11.772  -4.851  0.00  0.00    -0.646 OA
ENDBRANCH  23  24
BRANCH  23  27
HETATM   27  C           1     -20.489 -10.216  -2.335  0.00  0.00     0.138 C 
BRANCH  27  28
HETATM   28  C           1     -20.959  -9.059  -1.488  0.00  0.00     0.217 C 
HETATM   29  N           1     -22.049  -9.205  -0.672  0.00  0.00    -0.370 N 
HETATM   30  H           1     -22.363  -8.429  -0.105  0.00  0.00     0.159 HD
HETATM   31  H           1     -22.538 -10.090  -0.637  0.00  0.00     0.159 HD
HETATM   32  O           1     -20.373  -8.002  -1.530  0.00  0.00    -0.274 OA
ENDBRANCH  27  28
ENDBRANCH  23  27
ENDBRANCH  21  23
ENDBRANCH   1  19
TORSDOF 11
ENDMDL
MODEL 5
REMARK VINA RESULT:      -6.9      2.720      4.301
REMARK  11 active torsions:
REMARK  status: ('A' for Active; 'I' for Inactive)
REMARK    1  A    between atoms: N_5  and  C_18 
REMARK    2  A    between atoms: O_10  and  P_11 
REMARK    3  A    between atoms: P_11  and  O_12 
REMARK    4  A    between atoms: O_12  and  C_13 
REMARK    5  A    between atoms: C_16  and  C_17 
REMARK    6  A    between atoms: C_17  and  C_18 
REMARK    7  A    between atoms: C_18  and  C_19 
REMARK       I    between atoms: C_19  and  N_20 
REMARK    8  A    between atoms: N_20  and  C_24 
REMARK    9  A    between atoms: C_23  and  C_24 
REMARK   10  A    between atoms: C_24  and  C_25 
REMARK   11  A    between atoms: C_25  and  C_27 
REMARK       I    between atoms: N_26  and  C_27 
ROOT
HETATM    1  C           1     -20.362  -7.861  -4.672  0.00  0.00     0.278 C 
ENDROOT
BRANCH   1   2
HETATM    2  N           1     -21.134  -8.781  -5.570  0.00  0.00    -0.066 N 
HETATM    3  H           1     -20.663  -8.838  -6.501  0.00  0.00     0.275 HD
HETATM    4  H           1     -21.173  -9.734  -5.142  0.00  0.00     0.275 HD
HETATM    5  H           1     -22.105  -8.415  -5.694  0.00  0.00     0.275 HD
ENDBRANCH   1   2
BRANCH   1   6
HETATM    6  C           1     -21.157  -6.580  -4.455  0.00  0.00     0.081 C 
BRANCH   6   7
HETATM    7  C           1     -21.059  -5.719  -5.677  0.00  0.00    -0.056 A 
HETATM    8  C           1     -22.218  -5.316  -6.340  0.00  0.00     0.010 A 
HETATM    9  C           1     -22.127  -4.514  -7.478  0.00  0.00     0.038 A 
HETATM   10  C           1     -20.877  -4.116  -7.952  0.00  0.00     0.081 A 
HETATM   11  C           1     -19.718  -4.520  -7.289  0.00  0.00     0.038 A 
HETATM   12  C           1     -19.809  -5.321  -6.152  0.00  0.00     0.010 A 
BRANCH  10  13
HETATM   13  O           1     -20.789  -3.337  -9.058  0.00  0.00    -0.247 OA
BRANCH  13  14
HETATM   14  P           1     -20.810  -4.064 -10.501  0.00  0.00     0.411 P 
HETATM   15  O           1     -22.151  -4.642 -10.741  0.00  0.00    -0.624 OA
HETATM   16  O           1     -19.796  -5.141 -10.525  0.00  0.00    -0.624 OA
BRANCH  14  17
HETATM   17  O           1     -20.476  -2.983 -11.653  0.00  0.00    -0.300 OA
HETATM   18  H           1     -19.635  -2.630 -11.418  0.00  0.00     0.223 HD
ENDBRANCH  14  17
ENDBRANCH  13  14
ENDBRANCH  10  13
ENDBRANCH   6   7
ENDBRANCH   1   6
BRANCH   1  19
HETATM   19  C           1     -20.127  -8.538  -3.344  0.00  0.00     0.249 C 
HETATM   20  O           1     -19.060  -9.054  -3.110  0.00  0.00    -0.271 OA
HETATM   21  N           1     -21.122  -8.567  -2.405  0.00  0.00    -0.344 N 
HETATM   22  H           1     -22.016  -8.135  -2.601  0.00  0.00     0.163 HD
BRANCH  21  23
HETATM   23  C           1     -20.896  -9.219  -1.129  0.00  0.00     0.194 C 
BRANCH  23  24
HETATM   24  C           1     -21.822 -10.405  -1.001  0.00  0.00     0.197 C 
HETATM   25  O           1     -21.525 -11.348  -0.235  0.00  0.00    -0.646 OA
HETATM   26  O           1     -22.883 -10.444  -1.660  0.00  0.00    -0.646 OA
ENDBRANCH  23  24
BRANCH  23  27
HETATM   27  C           1     -21.174  -8.235  -0.000  0.00  0.00     0.138 C 
BRANCH  27  28
HETATM   28  C           1     -22.534  -7.613  -0.198  0.00  0.00     0.217 C 
HETATM   29  N           1     -23.609  -8.077   0.512  0.00  0.00    -0.370 N 
HETATM   30  H           1     -24.521  -7.659   0.380  0.00  0.00     0.159 HD
HETATM   31  H           1     -23.491  -8.838   1.169  0.00  0.00     0.159 HD
HETATM   32  O           1     -22.675  -6.704  -0.981  0.00  0.00    -0.274 OA
ENDBRANCH  27  28
ENDBRANCH  23  27
ENDBRANCH  21  23
ENDBRANCH   1  19
TORSDOF 11
ENDMDL
MODEL 6
REMARK VINA RESULT:      -6.8      1.984      3.258
REMARK  11 active torsions:
REMARK  status: ('A' for Active; 'I' for Inactive)
REMARK    1  A    between atoms: N_5  and  C_18 
REMARK    2  A    between atoms: O_10  and  P_11 
REMARK    3  A    between atoms: P_11  and  O_12 
REMARK    4  A    between atoms: O_12  and  C_13 
REMARK    5  A    between atoms: C_16  and  C_17 
REMARK    6  A    between atoms: C_17  and  C_18 
REMARK    7  A    between atoms: C_18  and  C_19 
REMARK       I    between atoms: C_19  and  N_20 
REMARK    8  A    between atoms: N_20  and  C_24 
REMARK    9  A    between atoms: C_23  and  C_24 
REMARK   10  A    between atoms: C_24  and  C_25 
REMARK   11  A    between atoms: C_25  and  C_27 
REMARK       I    between atoms: N_26  and  C_27 
ROOT
HETATM    1  C           1     -21.375  -6.703  -5.444  0.00  0.00     0.278 C 
ENDROOT
BRANCH   1   2
HETATM    2  N           1     -22.435  -6.207  -4.505  0.00  0.00    -0.066 N 
HETATM    3  H           1     -23.211  -5.771  -5.053  0.00  0.00     0.275 HD
HETATM    4  H           1     -22.810  -7.008  -3.949  0.00  0.00     0.275 HD
HETATM    5  H           1     -22.023  -5.495  -3.859  0.00  0.00     0.275 HD
ENDBRANCH   1   2
BRANCH   1   6
HETATM    6  C           1     -20.476  -5.543  -5.852  0.00  0.00     0.081 C 
BRANCH   6   7
HETATM    7  C           1     -20.978  -4.948  -7.132  0.00  0.00    -0.056 A 
HETATM    8  C           1     -20.196  -5.015  -8.285  0.00  0.00     0.010 A 
HETATM    9  C           1     -20.664  -4.461  -9.477  0.00  0.00     0.038 A 
HETATM   10  C           1     -21.913  -3.841  -9.515  0.00  0.00     0.081 A 
HETATM   11  C           1     -22.694  -3.774  -8.361  0.00  0.00     0.038 A 
HETATM   12  C           1     -22.227  -4.328  -7.170  0.00  0.00     0.010 A 
BRANCH  10  13
HETATM   13  O           1     -22.367  -3.303 -10.672  0.00  0.00    -0.247 OA
BRANCH  13  14
HETATM   14  P           1     -23.694  -3.943 -11.337  0.00  0.00     0.411 P 
HETATM   15  O           1     -23.787  -5.374 -10.970  0.00  0.00    -0.624 OA
HETATM   16  O           1     -23.620  -3.813 -12.808  0.00  0.00    -0.624 OA
BRANCH  14  17
HETATM   17  O           1     -25.000  -3.162 -10.792  0.00  0.00    -0.300 OA
HETATM   18  H           1     -24.834  -2.253 -10.979  0.00  0.00     0.223 HD
ENDBRANCH  14  17
ENDBRANCH  13  14
ENDBRANCH  10  13
ENDBRANCH   6   7
ENDBRANCH   1   6
BRANCH   1  19
HETATM   19  C           1     -20.550  -7.761  -4.754  0.00  0.00     0.249 C 
HETATM   20  O           1     -20.524  -7.815  -3.547  0.00  0.00    -0.271 OA
HETATM   21  N           1     -19.829  -8.658  -5.495  0.00  0.00    -0.344 N 
HETATM   22  H           1     -19.850  -8.612  -6.505  0.00  0.00     0.163 HD
BRANCH  21  23
HETATM   23  C           1     -19.034  -9.674  -4.831  0.00  0.00     0.194 C 
BRANCH  23  24
HETATM   24  C           1     -17.706  -9.811  -5.535  0.00  0.00     0.197 C 
HETATM   25  O           1     -16.767 -10.423  -4.982  0.00  0.00    -0.646 OA
HETATM   26  O           1     -17.546  -9.313  -6.670  0.00  0.00    -0.646 OA
ENDBRANCH  23  24
BRANCH  23  27
HETATM   27  C           1     -19.772 -11.005  -4.876  0.00  0.00     0.138 C 
BRANCH  27  28
HETATM   28  C           1     -20.270 -11.258  -6.278  0.00  0.00     0.217 C 
HETATM   29  N           1     -19.447 -11.846  -7.201  0.00  0.00    -0.370 N 
HETATM   30  H           1     -19.781 -12.017  -8.140  0.00  0.00     0.159 HD
HETATM   31  H           1     -18.505 -12.112  -6.942  0.00  0.00     0.159 HD
HETATM   32  O           1     -21.394 -10.942  -6.586  0.00  0.00    -0.274 OA
ENDBRANCH  27  28
ENDBRANCH  23  27
ENDBRANCH  21  23
ENDBRANCH   1  19
TORSDOF 11
ENDMDL
MODEL 7
REMARK VINA RESULT:      -6.7      2.001      3.215
REMARK  11 active torsions:
REMARK  status: ('A' for Active; 'I' for Inactive)
REMARK    1  A    between atoms: N_5  and  C_18 
REMARK    2  A    between atoms: O_10  and  P_11 
REMARK    3  A    between atoms: P_11  and  O_12 
REMARK    4  A    between atoms: O_12  and  C_13 
REMARK    5  A    between atoms: C_16  and  C_17 
REMARK    6  A    between atoms: C_17  and  C_18 
REMARK    7  A    between atoms: C_18  and  C_19 
REMARK       I    between atoms: C_19  and  N_20 
REMARK    8  A    between atoms: N_20  and  C_24 
REMARK    9  A    between atoms: C_23  and  C_24 
REMARK   10  A    between atoms: C_24  and  C_25 
REMARK   11  A    between atoms: C_25  and  C_27 
REMARK       I    between atoms: N_26  and  C_27 
ROOT
HETATM    1  C           1     -21.453  -6.361  -5.251  0.00  0.00     0.278 C 
ENDROOT
BRANCH   1   2
HETATM    2  N           1     -22.902  -5.991  -5.372  0.00  0.00    -0.066 N 
HETATM    3  H           1     -23.031  -4.989  -5.100  0.00  0.00     0.275 HD
HETATM    4  H           1     -23.214  -6.125  -6.361  0.00  0.00     0.275 HD
HETATM    5  H           1     -23.472  -6.598  -4.741  0.00  0.00     0.275 HD
ENDBRANCH   1   2
BRANCH   1   6
HETATM    6  C           1     -20.591  -5.175  -5.665  0.00  0.00     0.081 C 
BRANCH   6   7
HETATM    7  C           1     -20.977  -4.735  -7.044  0.00  0.00    -0.056 A 
HETATM    8  C           1     -22.096  -3.924  -7.230  0.00  0.00     0.010 A 
HETATM    9  C           1     -22.454  -3.514  -8.514  0.00  0.00     0.038 A 
HETATM   10  C           1     -21.693  -3.915  -9.612  0.00  0.00     0.081 A 
HETATM   11  C           1     -20.574  -4.727  -9.426  0.00  0.00     0.038 A 
HETATM   12  C           1     -20.216  -5.137  -8.143  0.00  0.00     0.010 A 
BRANCH  10  13
HETATM   13  O           1     -22.041  -3.517 -10.859  0.00  0.00    -0.247 OA
BRANCH  13  14
HETATM   14  P           1     -23.491  -3.959 -11.420  0.00  0.00     0.411 P 
HETATM   15  O           1     -23.779  -5.348 -10.999  0.00  0.00    -0.624 OA
HETATM   16  O           1     -23.494  -3.880 -12.897  0.00  0.00    -0.624 OA
BRANCH  14  17
HETATM   17  O           1     -24.623  -2.971 -10.825  0.00  0.00    -0.300 OA
HETATM   18  H           1     -24.393  -2.857  -9.918  0.00  0.00     0.223 HD
ENDBRANCH  14  17
ENDBRANCH  13  14
ENDBRANCH  10  13
ENDBRANCH   6   7
ENDBRANCH   1   6
BRANCH   1  19
HETATM   19  C           1     -21.148  -6.729  -3.820  0.00  0.00     0.249 C 
HETATM   20  O           1     -21.191  -5.885  -2.957  0.00  0.00    -0.271 OA
HETATM   21  N           1     -20.821  -8.020  -3.501  0.00  0.00    -0.344 N 
HETATM   22  H           1     -20.785  -8.726  -4.224  0.00  0.00     0.163 HD
BRANCH  21  23
HETATM   23  C           1     -20.526  -8.373  -2.126  0.00  0.00     0.194 C 
BRANCH  23  24
HETATM   24  C           1     -19.451  -9.433  -2.100  0.00  0.00     0.197 C 
HETATM   25  O           1     -19.635 -10.493  -1.464  0.00  0.00    -0.646 OA
HETATM   26  O           1     -18.377  -9.248  -2.713  0.00  0.00    -0.646 OA
ENDBRANCH  23  24
BRANCH  23  27
HETATM   27  C           1     -21.784  -8.913  -1.459  0.00  0.00     0.138 C 
BRANCH  27  28
HETATM   28  C           1     -22.150  -8.034  -0.288  0.00  0.00     0.217 C 
HETATM   29  N           1     -21.590  -8.264   0.941  0.00  0.00    -0.370 N 
HETATM   30  H           1     -21.834  -7.675   1.726  0.00  0.00     0.159 HD
HETATM   31  H           1     -20.931  -9.023   1.062  0.00  0.00     0.159 HD
HETATM   32  O           1     -22.935  -7.128  -0.433  0.00  0.00    -0.274 OA
ENDBRANCH  27  28
ENDBRANCH  23  27
ENDBRANCH  21  23
ENDBRANCH   1  19
TORSDOF 11
ENDMDL
MODEL 8
REMARK VINA RESULT:      -6.4      2.761      4.192
REMARK  11 active torsions:
REMARK  status: ('A' for Active; 'I' for Inactive)
REMARK    1  A    between atoms: N_5  and  C_18 
REMARK    2  A    between atoms: O_10  and  P_11 
REMARK    3  A    between atoms: P_11  and  O_12 
REMARK    4  A    between atoms: O_12  and  C_13 
REMARK    5  A    between atoms: C_16  and  C_17 
REMARK    6  A    between atoms: C_17  and  C_18 
REMARK    7  A    between atoms: C_18  and  C_19 
REMARK       I    between atoms: C_19  and  N_20 
REMARK    8  A    between atoms: N_20  and  C_24 
REMARK    9  A    between atoms: C_23  and  C_24 
REMARK   10  A    between atoms: C_24  and  C_25 
REMARK   11  A    between atoms: C_25  and  C_27 
REMARK       I    between atoms: N_26  and  C_27 
ROOT
HETATM    1  C           1     -21.416  -7.513  -4.907  0.00  0.00     0.278 C 
ENDROOT
BRANCH   1   2
HETATM    2  N           1     -21.255  -6.880  -3.557  0.00  0.00    -0.066 N 
HETATM    3  H           1     -21.265  -7.621  -2.820  0.00  0.00     0.275 HD
HETATM    4  H           1     -20.346  -6.365  -3.521  0.00  0.00     0.275 HD
HETATM    5  H           1     -22.041  -6.212  -3.389  0.00  0.00     0.275 HD
ENDBRANCH   1   2
BRANCH   1   6
HETATM    6  C           1     -20.395  -6.921  -5.870  0.00  0.00     0.081 C 
BRANCH   6   7
HETATM    7  C           1     -21.069  -5.926  -6.763  0.00  0.00    -0.056 A 
HETATM    8  C           1     -22.313  -5.403  -6.410  0.00  0.00     0.010 A 
HETATM    9  C           1     -22.940  -4.475  -7.243  0.00  0.00     0.038 A 
HETATM   10  C           1     -22.324  -4.072  -8.427  0.00  0.00     0.081 A 
HETATM   11  C           1     -21.081  -4.596  -8.781  0.00  0.00     0.038 A 
HETATM   12  C           1     -20.453  -5.523  -7.949  0.00  0.00     0.010 A 
BRANCH  10  13
HETATM   13  O           1     -22.934  -3.172  -9.236  0.00  0.00    -0.247 OA
BRANCH  13  14
HETATM   14  P           1     -24.004  -3.723 -10.314  0.00  0.00     0.411 P 
HETATM   15  O           1     -25.364  -3.288  -9.924  0.00  0.00    -0.624 OA
HETATM   16  O           1     -23.950  -5.201 -10.350  0.00  0.00    -0.624 OA
BRANCH  14  17
HETATM   17  O           1     -23.649  -3.135 -11.775  0.00  0.00    -0.300 OA
HETATM   18  H           1     -24.360  -2.552 -11.982  0.00  0.00     0.223 HD
ENDBRANCH  14  17
ENDBRANCH  13  14
ENDBRANCH  10  13
ENDBRANCH   6   7
ENDBRANCH   1   6
BRANCH   1  19
HETATM   19  C           1     -21.195  -9.001  -4.792  0.00  0.00     0.249 C 
HETATM   20  O           1     -21.335  -9.552  -3.726  0.00  0.00    -0.271 OA
HETATM   21  N           1     -20.834  -9.727  -5.895  0.00  0.00    -0.344 N 
HETATM   22  H           1     -20.716  -9.266  -6.788  0.00  0.00     0.163 HD
BRANCH  21  23
HETATM   23  C           1     -20.620 -11.157  -5.784  0.00  0.00     0.194 C 
BRANCH  23  24
HETATM   24  C           1     -19.268 -11.508  -6.357  0.00  0.00     0.197 C 
HETATM   25  O           1     -18.998 -12.697  -6.633  0.00  0.00    -0.646 OA
HETATM   26  O           1     -18.421 -10.611  -6.554  0.00  0.00    -0.646 OA
ENDBRANCH  23  24
BRANCH  23  27
HETATM   27  C           1     -21.705 -11.895  -6.557  0.00  0.00     0.138 C 
BRANCH  27  28
HETATM   28  C           1     -22.587 -12.648  -5.591  0.00  0.00     0.217 C 
HETATM   29  N           1     -22.506 -12.393  -4.249  0.00  0.00    -0.370 N 
HETATM   30  H           1     -23.098 -12.898  -3.602  0.00  0.00     0.159 HD
HETATM   31  H           1     -21.855 -11.699  -3.904  0.00  0.00     0.159 HD
HETATM   32  O           1     -23.365 -13.476  -6.003  0.00  0.00    -0.274 OA
ENDBRANCH  27  28
ENDBRANCH  23  27
ENDBRANCH  21  23
ENDBRANCH   1  19
TORSDOF 11
ENDMDL
MODEL 9
REMARK VINA RESULT:      -6.3     13.674     17.196
REMARK  11 active torsions:
REMARK  status: ('A' for Active; 'I' for Inactive)
REMARK    1  A    between atoms: N_5  and  C_18 
REMARK    2  A    between atoms: O_10  and  P_11 
REMARK    3  A    between atoms: P_11  and  O_12 
REMARK    4  A    between atoms: O_12  and  C_13 
REMARK    5  A    between atoms: C_16  and  C_17 
REMARK    6  A    between atoms: C_17  and  C_18 
REMARK    7  A    between atoms: C_18  and  C_19 
REMARK       I    between atoms: C_19  and  N_20 
REMARK    8  A    between atoms: N_20  and  C_24 
REMARK    9  A    between atoms: C_23  and  C_24 
REMARK   10  A    between atoms: C_24  and  C_25 
REMARK   11  A    between atoms: C_25  and  C_27 
REMARK       I    between atoms: N_26  and  C_27 
ROOT
HETATM    1  C           1     -36.103  -0.388 -11.648  0.00  0.00     0.278 C 
ENDROOT
BRANCH   1   2
HETATM    2  N           1     -36.586  -1.459 -10.716  0.00  0.00    -0.066 N 
HETATM    3  H           1     -36.334  -1.208  -9.733  0.00  0.00     0.275 HD
HETATM    4  H           1     -37.625  -1.547 -10.796  0.00  0.00     0.275 HD
HETATM    5  H           1     -36.139  -2.369 -10.968  0.00  0.00     0.275 HD
ENDBRANCH   1   2
BRANCH   1   6
HETATM    6  C           1     -34.623  -0.602 -11.941  0.00  0.00     0.081 C 
BRANCH   6   7
HETATM    7  C           1     -34.273  -2.041 -11.719  0.00  0.00    -0.056 A 
HETATM    8  C           1     -33.862  -2.471 -10.457  0.00  0.00     0.010 A 
HETATM    9  C           1     -33.536  -3.812 -10.251  0.00  0.00     0.038 A 
HETATM   10  C           1     -33.621  -4.721 -11.305  0.00  0.00     0.081 A 
HETATM   11  C           1     -34.031  -4.290 -12.567  0.00  0.00     0.038 A 
HETATM   12  C           1     -34.357  -2.950 -12.774  0.00  0.00     0.010 A 
BRANCH  10  13
HETATM   13  O           1     -33.304  -6.023 -11.104  0.00  0.00    -0.247 OA
BRANCH  13  14
HETATM   14  P           1     -34.490  -7.035 -10.681  0.00  0.00     0.411 P 
HETATM   15  O           1     -35.370  -6.377  -9.691  0.00  0.00    -0.624 OA
HETATM   16  O           1     -33.906  -8.258 -10.087  0.00  0.00    -0.624 OA
BRANCH  14  17
HETATM   17  O           1     -35.353  -7.431 -11.989  0.00  0.00    -0.300 OA
HETATM   18  H           1     -36.059  -6.807 -12.011  0.00  0.00     0.223 HD
ENDBRANCH  14  17
ENDBRANCH  13  14
ENDBRANCH  10  13
ENDBRANCH   6   7
ENDBRANCH   1   6
BRANCH   1  19
HETATM   19  C           1     -36.886  -0.452 -12.936  0.00  0.00     0.249 C 
HETATM   20  O           1     -38.075  -0.663 -12.909  0.00  0.00    -0.271 OA
HETATM   21  N           1     -36.248  -0.274 -14.134  0.00  0.00    -0.344 N 
HETATM   22  H           1     -35.252  -0.098 -14.155  0.00  0.00     0.163 HD
BRANCH  21  23
HETATM   23  C           1     -37.001  -0.337 -15.372  0.00  0.00     0.194 C 
BRANCH  23  24
HETATM   24  C           1     -36.122  -0.895 -16.465  0.00  0.00     0.197 C 
HETATM   25  O           1     -34.977  -1.316 -16.192  0.00  0.00    -0.646 OA
HETATM   26  O           1     -36.539  -0.935 -17.643  0.00  0.00    -0.646 OA
ENDBRANCH  23  24
BRANCH  23  27
HETATM   27  C           1     -37.463   1.061 -15.757  0.00  0.00     0.138 C 
BRANCH  27  28
HETATM   28  C           1     -36.267   1.974 -15.871  0.00  0.00     0.217 C 
HETATM   29  N           1     -36.276   3.006 -16.771  0.00  0.00    -0.370 N 
HETATM   30  H           1     -35.475   3.618 -16.847  0.00  0.00     0.159 HD
HETATM   31  H           1     -37.086   3.156 -17.360  0.00  0.00     0.159 HD
HETATM   32  O           1     -35.301   1.795 -15.168  0.00  0.00    -0.274 OA
ENDBRANCH  27  28
ENDBRANCH  23  27
ENDBRANCH  21  23
ENDBRANCH   1  19
TORSDOF 11
ENDMDL
