MODEL 1
REMARK VINA RESULT:      -6.0      0.000      0.000
REMARK  8 active torsions:
REMARK  status: ('A' for Active; 'I' for Inactive)
REMARK    1  A    between atoms: C_2  and  C_17 
REMARK    2  A    between atoms: C_2  and  C_16 
REMARK    3  A    between atoms: C_2  and  N_9 
REMARK    4  A    between atoms: C_5  and  C_6 
REMARK    5  A    between atoms: C_5  and  C_14 
REMARK    6  A    between atoms: C_5  and  N_19 
REMARK    7  A    between atoms: C_6  and  O_7 
REMARK    8  A    between atoms: O_11  and  C_16 
REMARK       I    between atoms: C_17  and  N_19 
ROOT
HETATM    1  O           1     -36.706  -1.163 -12.704  0.00  0.00    -0.271 OA
HETATM    2  C           1     -35.519  -1.023 -12.877  0.00  0.00     0.251 C 
HETATM    3  N           1     -35.057  -0.446 -14.029  0.00  0.00    -0.343 N 
HETATM    4  H           1     -34.062  -0.329 -14.172  0.00  0.00     0.163 HD
ENDROOT
BRANCH   2   5
HETATM    5  C           1     -34.545  -1.484 -11.820  0.00  0.00     0.302 C 
BRANCH   5   6
HETATM    6  C           1     -34.090  -2.903 -12.132  0.00  0.00     0.153 C 
HETATM    7  C           1     -34.797  -3.878 -11.199  0.00  0.00     0.042 C 
BRANCH   6   8
HETATM    8  O           1     -34.409  -3.216 -13.461  0.00  0.00    -0.393 OA
HETATM    9  H           1     -34.934  -3.996 -13.440  0.00  0.00     0.210 HD
ENDBRANCH   6   8
ENDBRANCH   5   6
BRANCH   5  10
HETATM   10  N           1     -35.215  -1.458 -10.478  0.00  0.00    -0.064 N 
HETATM   11  H           1     -35.966  -2.184 -10.449  0.00  0.00     0.275 HD
HETATM   12  H           1     -34.510  -1.655  -9.732  0.00  0.00     0.275 HD
HETATM   13  H           1     -35.636  -0.515 -10.318  0.00  0.00     0.275 HD
ENDBRANCH   5  10
ENDBRANCH   2   5
BRANCH   3  14
HETATM   14  C           1     -35.993  -0.004 -15.043  0.00  0.00     0.209 C 
BRANCH  14  15
HETATM   15  C           1     -35.619   1.400 -15.501  0.00  0.00     0.200 C 
BRANCH  15  16
HETATM   16  O           1     -36.723   2.001 -16.121  0.00  0.00    -0.398 OA
HETATM   17  H           1     -36.616   2.932 -16.028  0.00  0.00     0.209 HD
ENDBRANCH  15  16
ENDBRANCH  14  15
BRANCH  14  18
HETATM   18  C           1     -35.943  -0.947 -16.220  0.00  0.00     0.198 C 
HETATM   19  O           1     -36.710  -0.775 -17.192  0.00  0.00    -0.646 OA
HETATM   20  O           1     -35.134  -1.900 -16.223  0.00  0.00    -0.646 OA
ENDBRANCH  14  18
ENDBRANCH   3  14
TORSDOF 8
ENDMDL
MODEL 2
REMARK VINA RESULT:      -5.5     12.879     14.528
REMARK  8 active torsions:
REMARK  status: ('A' for Active; 'I' for Inactive)
REMARK    1  A    between atoms: C_2  and  C_17 
REMARK    2  A    between atoms: C_2  and  C_16 
REMARK    3  A    between atoms: C_2  and  N_9 
REMARK    4  A    between atoms: C_5  and  C_6 
REMARK    5  A    between atoms: C_5  and  C_14 
REMARK    6  A    between atoms: C_5  and  N_19 
REMARK    7  A    between atoms: C_6  and  O_7 
REMARK    8  A    between atoms: O_11  and  C_16 
REMARK       I    between atoms: C_17  and  N_19 
ROOT
HETATM    1  O           1     -20.637  -4.041  -9.615  0.00  0.00    -0.271 OA
HETATM    2  C           1     -21.576  -4.558  -9.060  0.00  0.00     0.251 C 
HETATM    3  N           1     -22.840  -4.406  -9.564  0.00  0.00    -0.343 N 
HETATM    4  H           1     -23.626  -4.841  -9.098  0.00  0.00     0.163 HD
ENDROOT
BRANCH   2   5
HETATM    5  C           1     -21.355  -5.373  -7.809  0.00  0.00     0.302 C 
BRANCH   5   6
HETATM    6  C           1     -21.496  -4.477  -6.586  0.00  0.00     0.153 C 
HETATM    7  C           1     -20.266  -4.630  -5.701  0.00  0.00     0.042 C 
BRANCH   6   8
HETATM    8  O           1     -21.612  -3.141  -6.995  0.00  0.00    -0.393 OA
HETATM    9  H           1     -22.488  -2.866  -6.786  0.00  0.00     0.210 HD
ENDBRANCH   6   8
ENDBRANCH   5   6
BRANCH   5  10
HETATM   10  N           1     -19.978  -5.968  -7.837  0.00  0.00    -0.064 N 
HETATM   11  H           1     -19.277  -5.232  -7.594  0.00  0.00     0.275 HD
HETATM   12  H           1     -19.920  -6.747  -7.143  0.00  0.00     0.275 HD
HETATM   13  H           1     -19.778  -6.337  -8.794  0.00  0.00     0.275 HD
ENDBRANCH   5  10
ENDBRANCH   2   5
BRANCH   3  14
HETATM   14  C           1     -23.051  -3.623 -10.765  0.00  0.00     0.209 C 
BRANCH  14  15
HETATM   15  C           1     -22.618  -4.433 -11.981  0.00  0.00     0.200 C 
BRANCH  15  16
HETATM   16  O           1     -21.533  -3.801 -12.603  0.00  0.00    -0.398 OA
HETATM   17  H           1     -21.649  -3.909 -13.531  0.00  0.00     0.209 HD
ENDBRANCH  15  16
ENDBRANCH  14  15
BRANCH  14  18
HETATM   18  C           1     -24.514  -3.274 -10.888  0.00  0.00     0.198 C 
HETATM   19  O           1     -25.231  -3.217  -9.865  0.00  0.00    -0.646 OA
HETATM   20  O           1     -25.008  -3.041 -12.012  0.00  0.00    -0.646 OA
ENDBRANCH  14  18
ENDBRANCH   3  14
TORSDOF 8
ENDMDL
MODEL 3
REMARK VINA RESULT:      -5.4     10.507     11.584
REMARK  8 active torsions:
REMARK  status: ('A' for Active; 'I' for Inactive)
REMARK    1  A    between atoms: C_2  and  C_17 
REMARK    2  A    between atoms: C_2  and  C_16 
REMARK    3  A    between atoms: C_2  and  N_9 
REMARK    4  A    between atoms: C_5  and  C_6 
REMARK    5  A    between atoms: C_5  and  C_14 
REMARK    6  A    between atoms: C_5  and  N_19 
REMARK    7  A    between atoms: C_6  and  O_7 
REMARK    8  A    between atoms: O_11  and  C_16 
REMARK       I    between atoms: C_17  and  N_19 
ROOT
HETATM    1  O           1     -28.493  -5.256 -19.194  0.00  0.00    -0.271 OA
HETATM    2  C           1     -28.301  -6.313 -18.643  0.00  0.00     0.251 C 
HETATM    3  N           1     -27.407  -7.207 -19.169  0.00  0.00    -0.343 N 
HETATM    4  H           1     -27.246  -8.093 -18.707  0.00  0.00     0.163 HD
ENDROOT
BRANCH   2   5
HETATM    5  C           1     -29.047  -6.649 -17.375  0.00  0.00     0.302 C 
BRANCH   5   6
HETATM    6  C           1     -28.161  -6.356 -16.171  0.00  0.00     0.153 C 
HETATM    7  C           1     -27.966  -7.632 -15.363  0.00  0.00     0.042 C 
BRANCH   6   8
HETATM    8  O           1     -26.915  -5.886 -16.610  0.00  0.00    -0.393 OA
HETATM    9  H           1     -26.350  -6.636 -16.683  0.00  0.00     0.210 HD
ENDBRANCH   6   8
ENDBRANCH   5   6
BRANCH   5  10
HETATM   10  N           1     -29.414  -8.104 -17.382  0.00  0.00    -0.064 N 
HETATM   11  H           1     -29.744  -8.375 -18.335  0.00  0.00     0.275 HD
HETATM   12  H           1     -28.578  -8.676 -17.125  0.00  0.00     0.275 HD
HETATM   13  H           1     -30.178  -8.272 -16.688  0.00  0.00     0.275 HD
ENDBRANCH   5  10
ENDBRANCH   2   5
BRANCH   3  14
HETATM   14  C           1     -26.691  -6.884 -20.387  0.00  0.00     0.209 C 
BRANCH  14  15
HETATM   15  C           1     -25.311  -6.344 -20.036  0.00  0.00     0.200 C 
BRANCH  15  16
HETATM   16  O           1     -24.890  -6.892 -18.816  0.00  0.00    -0.398 OA
HETATM   17  H           1     -24.498  -6.192 -18.323  0.00  0.00     0.209 HD
ENDBRANCH  15  16
ENDBRANCH  14  15
BRANCH  14  18
HETATM   18  C           1     -26.546  -8.127 -21.231  0.00  0.00     0.198 C 
HETATM   19  O           1     -25.421  -8.462 -21.662  0.00  0.00    -0.646 OA
HETATM   20  O           1     -27.551  -8.822 -21.497  0.00  0.00    -0.646 OA
ENDBRANCH  14  18
ENDBRANCH   3  14
TORSDOF 8
ENDMDL
MODEL 4
REMARK VINA RESULT:      -5.3      9.992     11.513
REMARK  8 active torsions:
REMARK  status: ('A' for Active; 'I' for Inactive)
REMARK    1  A    between atoms: C_2  and  C_17 
REMARK    2  A    between atoms: C_2  and  C_16 
REMARK    3  A    between atoms: C_2  and  N_9 
REMARK    4  A    between atoms: C_5  and  C_6 
REMARK    5  A    between atoms: C_5  and  C_14 
REMARK    6  A    between atoms: C_5  and  N_19 
REMARK    7  A    between atoms: C_6  and  O_7 
REMARK    8  A    between atoms: O_11  and  C_16 
REMARK       I    between atoms: C_17  and  N_19 
ROOT
HETATM    1  O           1     -28.208  -5.400 -19.326  0.00  0.00    -0.271 OA
HETATM    2  C           1     -27.378  -6.147 -18.866  0.00  0.00     0.251 C 
HETATM    3  N           1     -27.625  -6.807 -17.693  0.00  0.00    -0.343 N 
HETATM    4  H           1     -26.929  -7.434 -17.309  0.00  0.00     0.163 HD
ENDROOT
BRANCH   2   5
HETATM    5  C           1     -26.068  -6.352 -19.586  0.00  0.00     0.302 C 
BRANCH   5   6
HETATM    6  C           1     -26.288  -7.244 -20.800  0.00  0.00     0.153 C 
HETATM    7  C           1     -25.005  -8.003 -21.112  0.00  0.00     0.042 C 
BRANCH   6   8
HETATM    8  O           1     -27.316  -8.158 -20.529  0.00  0.00    -0.393 OA
HETATM    9  H           1     -27.246  -8.845 -21.168  0.00  0.00     0.210 HD
ENDBRANCH   6   8
ENDBRANCH   5   6
BRANCH   5  10
HETATM   10  N           1     -25.085  -7.004 -18.659  0.00  0.00    -0.064 N 
HETATM   11  H           1     -24.993  -6.432 -17.790  0.00  0.00     0.275 HD
HETATM   12  H           1     -25.421  -7.963 -18.412  0.00  0.00     0.275 HD
HETATM   13  H           1     -24.155  -7.073 -19.131  0.00  0.00     0.275 HD
ENDBRANCH   5  10
ENDBRANCH   2   5
BRANCH   3  14
HETATM   14  C           1     -28.884  -6.610 -17.002  0.00  0.00     0.209 C 
BRANCH  14  15
HETATM   15  C           1     -29.817  -7.776 -17.305  0.00  0.00     0.200 C 
BRANCH  15  16
HETATM   16  O           1     -29.549  -8.269 -18.590  0.00  0.00    -0.398 OA
HETATM   17  H           1     -28.727  -8.724 -18.542  0.00  0.00     0.209 HD
ENDBRANCH  15  16
ENDBRANCH  14  15
BRANCH  14  18
HETATM   18  C           1     -28.637  -6.537 -15.515  0.00  0.00     0.198 C 
HETATM   19  O           1     -29.110  -5.591 -14.849  0.00  0.00    -0.646 OA
HETATM   20  O           1     -27.958  -7.422 -14.951  0.00  0.00    -0.646 OA
ENDBRANCH  14  18
ENDBRANCH   3  14
TORSDOF 8
ENDMDL
MODEL 5
REMARK VINA RESULT:      -5.3      2.035      5.129
REMARK  8 active torsions:
REMARK  status: ('A' for Active; 'I' for Inactive)
REMARK    1  A    between atoms: C_2  and  C_17 
REMARK    2  A    between atoms: C_2  and  C_16 
REMARK    3  A    between atoms: C_2  and  N_9 
REMARK    4  A    between atoms: C_5  and  C_6 
REMARK    5  A    between atoms: C_5  and  C_14 
REMARK    6  A    between atoms: C_5  and  N_19 
REMARK    7  A    between atoms: C_6  and  O_7 
REMARK    8  A    between atoms: O_11  and  C_16 
REMARK       I    between atoms: C_17  and  N_19 
ROOT
HETATM    1  O           1     -36.626  -1.135 -12.188  0.00  0.00    -0.271 OA
HETATM    2  C           1     -35.800  -0.918 -13.042  0.00  0.00     0.251 C 
HETATM    3  N           1     -34.747  -1.775 -13.212  0.00  0.00    -0.343 N 
HETATM    4  H           1     -34.055  -1.593 -13.928  0.00  0.00     0.163 HD
ENDROOT
BRANCH   2   5
HETATM    5  C           1     -35.929   0.301 -13.922  0.00  0.00     0.302 C 
BRANCH   5   6
HETATM    6  C           1     -36.961   0.035 -15.011  0.00  0.00     0.153 C 
HETATM    7  C           1     -36.278  -0.612 -16.209  0.00  0.00     0.042 C 
BRANCH   6   8
HETATM    8  O           1     -37.951  -0.826 -14.518  0.00  0.00    -0.393 OA
HETATM    9  H           1     -37.524  -1.429 -13.935  0.00  0.00     0.210 HD
ENDBRANCH   6   8
ENDBRANCH   5   6
BRANCH   5  10
HETATM   10  N           1     -34.603   0.604 -14.555  0.00  0.00    -0.064 N 
HETATM   11  H           1     -34.118  -0.290 -14.791  0.00  0.00     0.275 HD
HETATM   12  H           1     -34.751   1.162 -15.426  0.00  0.00     0.275 HD
HETATM   13  H           1     -34.017   1.153 -13.886  0.00  0.00     0.275 HD
ENDBRANCH   5  10
ENDBRANCH   2   5
BRANCH   3  14
HETATM   14  C           1     -34.623  -2.946 -12.366  0.00  0.00     0.209 C 
BRANCH  14  15
HETATM   15  C           1     -34.353  -4.171 -13.231  0.00  0.00     0.200 C 
BRANCH  15  16
HETATM   16  O           1     -34.663  -5.332 -12.508  0.00  0.00    -0.398 OA
HETATM   17  H           1     -35.472  -5.663 -12.858  0.00  0.00     0.209 HD
ENDBRANCH  15  16
ENDBRANCH  14  15
BRANCH  14  18
HETATM   18  C           1     -33.480  -2.750 -11.400  0.00  0.00     0.198 C 
HETATM   19  O           1     -32.477  -3.495 -11.459  0.00  0.00    -0.646 OA
HETATM   20  O           1     -33.536  -1.843 -10.541  0.00  0.00    -0.646 OA
ENDBRANCH  14  18
ENDBRANCH   3  14
TORSDOF 8
ENDMDL
MODEL 6
REMARK VINA RESULT:      -5.2     13.113     14.791
REMARK  8 active torsions:
REMARK  status: ('A' for Active; 'I' for Inactive)
REMARK    1  A    between atoms: C_2  and  C_17 
REMARK    2  A    between atoms: C_2  and  C_16 
REMARK    3  A    between atoms: C_2  and  N_9 
REMARK    4  A    between atoms: C_5  and  C_6 
REMARK    5  A    between atoms: C_5  and  C_14 
REMARK    6  A    between atoms: C_5  and  N_19 
REMARK    7  A    between atoms: C_6  and  O_7 
REMARK    8  A    between atoms: O_11  and  C_16 
REMARK       I    between atoms: C_17  and  N_19 
ROOT
HETATM    1  O           1     -20.222  -4.700 -10.007  0.00  0.00    -0.271 OA
HETATM    2  C           1     -20.955  -4.222  -9.175  0.00  0.00     0.251 C 
HETATM    3  N           1     -22.277  -4.017  -9.462  0.00  0.00    -0.343 N 
HETATM    4  H           1     -22.891  -3.617  -8.763  0.00  0.00     0.163 HD
ENDROOT
BRANCH   2   5
HETATM    5  C           1     -20.411  -3.851  -7.817  0.00  0.00     0.302 C 
BRANCH   5   6
HETATM    6  C           1     -19.961  -5.110  -7.087  0.00  0.00     0.153 C 
HETATM    7  C           1     -20.139  -4.918  -5.587  0.00  0.00     0.042 C 
BRANCH   6   8
HETATM    8  O           1     -20.735  -6.199  -7.512  0.00  0.00    -0.393 OA
HETATM    9  H           1     -20.419  -6.443  -8.365  0.00  0.00     0.210 HD
ENDBRANCH   6   8
ENDBRANCH   5   6
BRANCH   5  10
HETATM   10  N           1     -21.482  -3.168  -7.019  0.00  0.00    -0.064 N 
HETATM   11  H           1     -21.663  -2.220  -7.419  0.00  0.00     0.275 HD
HETATM   12  H           1     -22.359  -3.735  -7.055  0.00  0.00     0.275 HD
HETATM   13  H           1     -21.169  -3.074  -6.026  0.00  0.00     0.275 HD
ENDBRANCH   5  10
ENDBRANCH   2   5
BRANCH   3  14
HETATM   14  C           1     -22.798  -4.374 -10.767  0.00  0.00     0.209 C 
BRANCH  14  15
HETATM   15  C           1     -24.037  -5.245 -10.597  0.00  0.00     0.200 C 
BRANCH  15  16
HETATM   16  O           1     -24.911  -4.643  -9.682  0.00  0.00    -0.398 OA
HETATM   17  H           1     -25.541  -4.156 -10.185  0.00  0.00     0.209 HD
ENDBRANCH  15  16
ENDBRANCH  14  15
BRANCH  14  18
HETATM   18  C           1     -23.165  -3.119 -11.522  0.00  0.00     0.198 C 
HETATM   19  O           1     -22.267  -2.365 -11.956  0.00  0.00    -0.646 OA
HETATM   20  O           1     -24.368  -2.835 -11.714  0.00  0.00    -0.646 OA
ENDBRANCH  14  18
ENDBRANCH   3  14
TORSDOF 8
ENDMDL
MODEL 7
REMARK VINA RESULT:      -5.1     13.327     14.976
REMARK  8 active torsions:
REMARK  status: ('A' for Active; 'I' for Inactive)
REMARK    1  A    between atoms: C_2  and  C_17 
REMARK    2  A    between atoms: C_2  and  C_16 
REMARK    3  A    between atoms: C_2  and  N_9 
REMARK    4  A    between atoms: C_5  and  C_6 
REMARK    5  A    between atoms: C_5  and  C_14 
REMARK    6  A    between atoms: C_5  and  N_19 
REMARK    7  A    between atoms: C_6  and  O_7 
REMARK    8  A    between atoms: O_11  and  C_16 
REMARK       I    between atoms: C_17  and  N_19 
ROOT
HETATM    1  O           1     -21.598  -3.500  -7.510  0.00  0.00    -0.271 OA
HETATM    2  C           1     -21.690  -4.630  -7.925  0.00  0.00     0.251 C 
HETATM    3  N           1     -22.173  -4.860  -9.185  0.00  0.00    -0.343 N 
HETATM    4  H           1     -22.249  -5.807  -9.533  0.00  0.00     0.163 HD
ENDROOT
BRANCH   2   5
HETATM    5  C           1     -21.271  -5.789  -7.054  0.00  0.00     0.302 C 
BRANCH   5   6
HETATM    6  C           1     -21.324  -5.371  -5.591  0.00  0.00     0.153 C 
HETATM    7  C           1     -21.404  -6.612  -4.712  0.00  0.00     0.042 C 
BRANCH   6   8
HETATM    8  O           1     -20.169  -4.645  -5.269  0.00  0.00    -0.393 OA
HETATM    9  H           1     -20.352  -4.178  -4.473  0.00  0.00     0.210 HD
ENDBRANCH   6   8
ENDBRANCH   5   6
BRANCH   5  10
HETATM   10  N           1     -19.872  -6.198  -7.406  0.00  0.00    -0.064 N 
HETATM   11  H           1     -19.474  -6.779  -6.634  0.00  0.00     0.275 HD
HETATM   12  H           1     -19.882  -6.754  -8.291  0.00  0.00     0.275 HD
HETATM   13  H           1     -19.283  -5.345  -7.538  0.00  0.00     0.275 HD
ENDBRANCH   5  10
ENDBRANCH   2   5
BRANCH   3  14
HETATM   14  C           1     -22.575  -3.746 -10.021  0.00  0.00     0.209 C 
BRANCH  14  15
HETATM   15  C           1     -21.796  -3.787 -11.330  0.00  0.00     0.200 C 
BRANCH  15  16
HETATM   16  O           1     -22.538  -4.484 -12.294  0.00  0.00    -0.398 OA
HETATM   17  H           1     -22.239  -4.186 -13.136  0.00  0.00     0.209 HD
ENDBRANCH  15  16
ENDBRANCH  14  15
BRANCH  14  18
HETATM   18  C           1     -24.053  -3.842 -10.312  0.00  0.00     0.198 C 
HETATM   19  O           1     -24.630  -2.920 -10.927  0.00  0.00    -0.646 OA
HETATM   20  O           1     -24.699  -4.845  -9.937  0.00  0.00    -0.646 OA
ENDBRANCH  14  18
ENDBRANCH   3  14
TORSDOF 8
ENDMDL
MODEL 8
REMARK VINA RESULT:      -5.0     13.443     15.659
REMARK  8 active torsions:
REMARK  status: ('A' for Active; 'I' for Inactive)
REMARK    1  A    between atoms: C_2  and  C_17 
REMARK    2  A    between atoms: C_2  and  C_16 
REMARK    3  A    between atoms: C_2  and  N_9 
REMARK    4  A    between atoms: C_5  and  C_6 
REMARK    5  A    between atoms: C_5  and  C_14 
REMARK    6  A    between atoms: C_5  and  N_19 
REMARK    7  A    between atoms: C_6  and  O_7 
REMARK    8  A    between atoms: O_11  and  C_16 
REMARK       I    between atoms: C_17  and  N_19 
ROOT
HETATM    1  O           1     -20.620  -4.809 -11.202  0.00  0.00    -0.271 OA
HETATM    2  C           1     -21.371  -4.051 -10.636  0.00  0.00     0.251 C 
HETATM    3  N           1     -21.431  -4.038  -9.269  0.00  0.00    -0.343 N 
HETATM    4  H           1     -22.060  -3.402  -8.795  0.00  0.00     0.163 HD
ENDROOT
BRANCH   2   5
HETATM    5  C           1     -22.244  -3.117 -11.438  0.00  0.00     0.302 C 
BRANCH   5   6
HETATM    6  C           1     -23.709  -3.425 -11.160  0.00  0.00     0.153 C 
HETATM    7  C           1     -24.544  -3.066 -12.382  0.00  0.00     0.042 C 
BRANCH   6   8
HETATM    8  O           1     -23.855  -4.790 -10.879  0.00  0.00    -0.393 OA
HETATM    9  H           1     -24.220  -4.855 -10.014  0.00  0.00     0.210 HD
ENDBRANCH   6   8
ENDBRANCH   5   6
BRANCH   5  10
HETATM   10  N           1     -21.964  -3.304 -12.900  0.00  0.00    -0.064 N 
HETATM   11  H           1     -21.282  -4.085 -13.027  0.00  0.00     0.275 HD
HETATM   12  H           1     -22.853  -3.533 -13.399  0.00  0.00     0.275 HD
HETATM   13  H           1     -21.562  -2.423 -13.293  0.00  0.00     0.275 HD
ENDBRANCH   5  10
ENDBRANCH   2   5
BRANCH   3  14
HETATM   14  C           1     -20.592  -4.935  -8.499  0.00  0.00     0.209 C 
BRANCH  14  15
HETATM   15  C           1     -19.411  -4.160  -7.927  0.00  0.00     0.200 C 
BRANCH  15  16
HETATM   16  O           1     -19.268  -4.462  -6.566  0.00  0.00    -0.398 OA
HETATM   17  H           1     -18.434  -4.888  -6.466  0.00  0.00     0.209 HD
ENDBRANCH  15  16
ENDBRANCH  14  15
BRANCH  14  18
HETATM   18  C           1     -21.396  -5.531  -7.370  0.00  0.00     0.198 C 
HETATM   19  O           1     -21.126  -6.676  -6.946  0.00  0.00    -0.646 OA
HETATM   20  O           1     -22.333  -4.880  -6.858  0.00  0.00    -0.646 OA
ENDBRANCH  14  18
ENDBRANCH   3  14
TORSDOF 8
ENDMDL
MODEL 9
REMARK VINA RESULT:      -5.0      2.304      5.255
REMARK  8 active torsions:
REMARK  status: ('A' for Active; 'I' for Inactive)
REMARK    1  A    between atoms: C_2  and  C_17 
REMARK    2  A    between atoms: C_2  and  C_16 
REMARK    3  A    between atoms: C_2  and  N_9 
REMARK    4  A    between atoms: C_5  and  C_6 
REMARK    5  A    between atoms: C_5  and  C_14 
REMARK    6  A    between atoms: C_5  and  N_19 
REMARK    7  A    between atoms: C_6  and  O_7 
REMARK    8  A    between atoms: O_11  and  C_16 
REMARK       I    between atoms: C_17  and  N_19 
ROOT
HETATM    1  O           1     -35.036  -2.021 -14.172  0.00  0.00    -0.271 OA
HETATM    2  C           1     -35.058  -1.463 -13.101  0.00  0.00     0.251 C 
HETATM    3  N           1     -34.678  -2.134 -11.970  0.00  0.00    -0.343 N 
HETATM    4  H           1     -34.696  -1.666 -11.073  0.00  0.00     0.163 HD
ENDROOT
BRANCH   2   5
HETATM    5  C           1     -35.506  -0.025 -13.010  0.00  0.00     0.302 C 
BRANCH   5   6
HETATM    6  C           1     -36.969   0.028 -12.590  0.00  0.00     0.153 C 
HETATM    7  C           1     -37.854  -0.083 -13.825  0.00  0.00     0.042 C 
BRANCH   6   8
HETATM    8  O           1     -37.245  -1.037 -11.721  0.00  0.00    -0.393 OA
HETATM    9  H           1     -38.161  -0.988 -11.511  0.00  0.00     0.210 HD
ENDBRANCH   6   8
ENDBRANCH   5   6
BRANCH   5  10
HETATM   10  N           1     -35.346   0.634 -14.348  0.00  0.00    -0.064 N 
HETATM   11  H           1     -35.660  -0.023 -15.099  0.00  0.00     0.275 HD
HETATM   12  H           1     -35.926   1.503 -14.381  0.00  0.00     0.275 HD
HETATM   13  H           1     -34.341   0.879 -14.498  0.00  0.00     0.275 HD
ENDBRANCH   5  10
ENDBRANCH   2   5
BRANCH   3  14
HETATM   14  C           1     -34.248  -3.516 -12.059  0.00  0.00     0.209 C 
BRANCH  14  15
HETATM   15  C           1     -32.791  -3.623 -11.626  0.00  0.00     0.200 C 
BRANCH  15  16
HETATM   16  O           1     -32.203  -4.742 -12.232  0.00  0.00    -0.398 OA
HETATM   17  H           1     -32.133  -5.407 -11.569  0.00  0.00     0.209 HD
ENDBRANCH  15  16
ENDBRANCH  14  15
BRANCH  14  18
HETATM   18  C           1     -35.105  -4.369 -11.155  0.00  0.00     0.198 C 
HETATM   19  O           1     -36.189  -3.923 -10.719  0.00  0.00    -0.646 OA
HETATM   20  O           1     -34.731  -5.520 -10.843  0.00  0.00    -0.646 OA
ENDBRANCH  14  18
ENDBRANCH   3  14
TORSDOF 8
ENDMDL
