MODEL 1
REMARK VINA RESULT:      -7.7      0.000      0.000
REMARK  8 active torsions:
REMARK  status: ('A' for Active; 'I' for Inactive)
REMARK    1  A    between atoms: C_2  and  C_10 
REMARK    2  A    between atoms: N_8  and  C_10 
REMARK       I    between atoms: N_8  and  C_14 
REMARK    3  A    between atoms: C_10  and  C_13 
REMARK    4  A    between atoms: C_11  and  C_13 
REMARK    5  A    between atoms: C_14  and  C_15 
REMARK    6  A    between atoms: C_15  and  C_23 
REMARK    7  A    between atoms: C_15  and  N_27 
REMARK    8  A    between atoms: C_23  and  O_24 
ROOT
HETATM    1  C           1     -23.031  -3.665 -10.847  0.00  0.00     0.190 C 
ENDROOT
BRANCH   1   2
HETATM    2  C           1     -23.918  -4.886 -10.821  0.00  0.00     0.197 C 
HETATM    3  O           1     -24.823  -4.982  -9.965  0.00  0.00    -0.646 OA
HETATM    4  O           1     -23.748  -5.800 -11.657  0.00  0.00    -0.646 OA
ENDBRANCH   1   2
BRANCH   1   5
HETATM    5  N           1     -23.731  -2.572 -11.492  0.00  0.00    -0.344 N 
HETATM    6  H           1     -23.996  -1.755 -10.959  0.00  0.00     0.163 HD
HETATM    7  C           1     -24.037  -2.648 -12.825  0.00  0.00     0.251 C 
HETATM    8  O           1     -25.087  -3.129 -13.178  0.00  0.00    -0.271 OA
BRANCH   7   9
HETATM    9  C           1     -23.062  -2.127 -13.853  0.00  0.00     0.297 C 
BRANCH   9  10
HETATM   10  C           1     -23.826  -1.423 -14.967  0.00  0.00     0.206 C 
BRANCH  10  11
HETATM   11  O           1     -24.900  -0.709 -14.419  0.00  0.00    -0.398 OA
HETATM   12  H           1     -25.592  -1.329 -14.265  0.00  0.00     0.209 HD
ENDBRANCH  10  11
ENDBRANCH   9  10
BRANCH   9  13
HETATM   13  N           1     -22.285  -3.275 -14.428  0.00  0.00    -0.064 N 
HETATM   14  H           1     -21.465  -3.482 -13.815  0.00  0.00     0.275 HD
HETATM   15  H           1     -22.899  -4.118 -14.486  0.00  0.00     0.275 HD
HETATM   16  H           1     -21.948  -3.022 -15.386  0.00  0.00     0.275 HD
ENDBRANCH   9  13
ENDBRANCH   7   9
ENDBRANCH   1   5
BRANCH   1  17
HETATM   17  C           1     -22.674  -3.266  -9.421  0.00  0.00     0.077 C 
BRANCH  17  18
HETATM   18  C           1     -21.526  -4.100  -8.941  0.00  0.00    -0.028 A 
HETATM   19  C           1     -20.325  -4.276  -9.590  0.00  0.00     0.096 A 
HETATM   20  N           1     -19.553  -5.106  -8.822  0.00  0.00    -0.365 N 
HETATM   21  H           1     -18.581  -5.419  -9.066  0.00  0.00     0.165 HD
HETATM   22  C           1     -20.234  -5.473  -7.683  0.00  0.00     0.042 A 
HETATM   23  C           1     -19.845  -6.299  -6.622  0.00  0.00     0.030 A 
HETATM   24  C           1     -21.482  -4.850  -7.735  0.00  0.00    -0.002 A 
HETATM   25  C           1     -20.762  -6.492  -5.584  0.00  0.00     0.002 A 
HETATM   26  C           1     -22.015  -5.884  -5.609  0.00  0.00     0.001 A 
HETATM   27  C           1     -22.388  -5.061  -6.677  0.00  0.00     0.014 A 
ENDBRANCH  17  18
ENDBRANCH   1  17
TORSDOF 8
ENDMDL
MODEL 2
REMARK VINA RESULT:      -7.0      3.789      7.551
REMARK  8 active torsions:
REMARK  status: ('A' for Active; 'I' for Inactive)
REMARK    1  A    between atoms: C_2  and  C_10 
REMARK    2  A    between atoms: N_8  and  C_10 
REMARK       I    between atoms: N_8  and  C_14 
REMARK    3  A    between atoms: C_10  and  C_13 
REMARK    4  A    between atoms: C_11  and  C_13 
REMARK    5  A    between atoms: C_14  and  C_15 
REMARK    6  A    between atoms: C_15  and  C_23 
REMARK    7  A    between atoms: C_15  and  N_27 
REMARK    8  A    between atoms: C_23  and  O_24 
ROOT
HETATM    1  C           1     -21.403  -4.976  -7.613  0.00  0.00     0.190 C 
ENDROOT
BRANCH   1   2
HETATM    2  C           1     -19.945  -5.360  -7.559  0.00  0.00     0.197 C 
HETATM    3  O           1     -19.065  -4.472  -7.552  0.00  0.00    -0.646 OA
HETATM    4  O           1     -19.616  -6.566  -7.524  0.00  0.00    -0.646 OA
ENDBRANCH   1   2
BRANCH   1   5
HETATM    5  N           1     -21.912  -4.826  -6.264  0.00  0.00    -0.344 N 
HETATM    6  H           1     -22.653  -4.165  -6.073  0.00  0.00     0.163 HD
HETATM    7  C           1     -21.389  -5.580  -5.248  0.00  0.00     0.251 C 
HETATM    8  O           1     -20.448  -5.169  -4.614  0.00  0.00    -0.271 OA
BRANCH   7   9
HETATM    9  C           1     -21.992  -6.925  -4.919  0.00  0.00     0.297 C 
BRANCH   9  10
HETATM   10  C           1     -21.848  -7.194  -3.427  0.00  0.00     0.206 C 
BRANCH  10  11
HETATM   11  O           1     -22.353  -6.105  -2.704  0.00  0.00    -0.398 OA
HETATM   12  H           1     -22.737  -6.453  -1.916  0.00  0.00     0.209 HD
ENDBRANCH  10  11
ENDBRANCH   9  10
BRANCH   9  13
HETATM   13  N           1     -21.275  -7.994  -5.690  0.00  0.00    -0.064 N 
HETATM   14  H           1     -20.356  -7.625  -6.024  0.00  0.00     0.275 HD
HETATM   15  H           1     -21.116  -8.822  -5.073  0.00  0.00     0.275 HD
HETATM   16  H           1     -21.855  -8.278  -6.513  0.00  0.00     0.275 HD
ENDBRANCH   9  13
ENDBRANCH   7   9
ENDBRANCH   1   5
BRANCH   1  17
HETATM   17  C           1     -21.555  -3.658  -8.361  0.00  0.00     0.077 C 
BRANCH  17  18
HETATM   18  C           1     -22.801  -3.694  -9.190  0.00  0.00    -0.028 A 
HETATM   19  C           1     -24.060  -4.031  -8.747  0.00  0.00     0.096 A 
HETATM   20  N           1     -24.916  -3.939  -9.813  0.00  0.00    -0.365 N 
HETATM   21  H           1     -25.946  -4.140  -9.775  0.00  0.00     0.165 HD
HETATM   22  C           1     -24.233  -3.548 -10.942  0.00  0.00     0.042 A 
HETATM   23  C           1     -24.690  -3.326 -12.246  0.00  0.00     0.030 A 
HETATM   24  C           1     -22.896  -3.386 -10.575  0.00  0.00    -0.002 A 
HETATM   25  C           1     -23.750  -2.927 -13.202  0.00  0.00     0.002 A 
HETATM   26  C           1     -22.409  -2.758 -12.864  0.00  0.00     0.001 A 
HETATM   27  C           1     -21.968  -2.983 -11.556  0.00  0.00     0.014 A 
ENDBRANCH  17  18
ENDBRANCH   1  17
TORSDOF 8
ENDMDL
MODEL 3
REMARK VINA RESULT:      -6.8     11.856     13.724
REMARK  8 active torsions:
REMARK  status: ('A' for Active; 'I' for Inactive)
REMARK    1  A    between atoms: C_2  and  C_10 
REMARK    2  A    between atoms: N_8  and  C_10 
REMARK       I    between atoms: N_8  and  C_14 
REMARK    3  A    between atoms: C_10  and  C_13 
REMARK    4  A    between atoms: C_11  and  C_13 
REMARK    5  A    between atoms: C_14  and  C_15 
REMARK    6  A    between atoms: C_15  and  C_23 
REMARK    7  A    between atoms: C_15  and  N_27 
REMARK    8  A    between atoms: C_23  and  O_24 
ROOT
HETATM    1  C           1     -36.858  -0.475 -11.111  0.00  0.00     0.190 C 
ENDROOT
BRANCH   1   2
HETATM    2  C           1     -37.029   0.398  -9.892  0.00  0.00     0.197 C 
HETATM    3  O           1     -37.935   1.258  -9.862  0.00  0.00    -0.646 OA
HETATM    4  O           1     -36.263   0.262  -8.913  0.00  0.00    -0.646 OA
ENDBRANCH   1   2
BRANCH   1   5
HETATM    5  N           1     -37.119   0.305 -12.304  0.00  0.00    -0.344 N 
HETATM    6  H           1     -37.517   1.231 -12.227  0.00  0.00     0.163 HD
HETATM    7  C           1     -36.827  -0.213 -13.538  0.00  0.00     0.251 C 
HETATM    8  O           1     -37.660  -0.849 -14.138  0.00  0.00    -0.271 OA
BRANCH   7   9
HETATM    9  C           1     -35.465   0.013 -14.148  0.00  0.00     0.297 C 
BRANCH   9  10
HETATM   10  C           1     -35.522   1.210 -15.088  0.00  0.00     0.206 C 
BRANCH  10  11
HETATM   11  O           1     -36.739   1.201 -15.784  0.00  0.00    -0.398 OA
HETATM   12  H           1     -37.424   1.236 -15.138  0.00  0.00     0.209 HD
ENDBRANCH  10  11
ENDBRANCH   9  10
BRANCH   9  13
HETATM   13  N           1     -35.056  -1.208 -14.919  0.00  0.00    -0.064 N 
HETATM   14  H           1     -35.908  -1.696 -15.276  0.00  0.00     0.275 HD
HETATM   15  H           1     -34.452  -0.926 -15.723  0.00  0.00     0.275 HD
HETATM   16  H           1     -34.522  -1.853 -14.292  0.00  0.00     0.275 HD
ENDBRANCH   9  13
ENDBRANCH   7   9
ENDBRANCH   1   5
BRANCH   1  17
HETATM   17  C           1     -35.432  -1.010 -11.157  0.00  0.00     0.077 C 
BRANCH  17  18
HETATM   18  C           1     -35.448  -2.494 -10.957  0.00  0.00    -0.028 A 
HETATM   19  C           1     -36.507  -3.238 -10.488  0.00  0.00     0.096 A 
HETATM   20  N           1     -36.114  -4.549 -10.454  0.00  0.00    -0.365 N 
HETATM   21  H           1     -36.717  -5.349 -10.137  0.00  0.00     0.165 HD
HETATM   22  C           1     -34.815  -4.670 -10.895  0.00  0.00     0.042 A 
HETATM   23  C           1     -34.008  -5.805 -11.031  0.00  0.00     0.030 A 
HETATM   24  C           1     -34.373  -3.387 -11.219  0.00  0.00    -0.002 A 
HETATM   25  C           1     -32.708  -5.618 -11.513  0.00  0.00     0.002 A 
HETATM   26  C           1     -32.239  -4.349 -11.844  0.00  0.00     0.001 A 
HETATM   27  C           1     -33.060  -3.225 -11.702  0.00  0.00     0.014 A 
ENDBRANCH  17  18
ENDBRANCH   1  17
TORSDOF 8
ENDMDL
MODEL 4
REMARK VINA RESULT:      -6.7      5.916      9.592
REMARK  8 active torsions:
REMARK  status: ('A' for Active; 'I' for Inactive)
REMARK    1  A    between atoms: C_2  and  C_10 
REMARK    2  A    between atoms: N_8  and  C_10 
REMARK       I    between atoms: N_8  and  C_14 
REMARK    3  A    between atoms: C_10  and  C_13 
REMARK    4  A    between atoms: C_11  and  C_13 
REMARK    5  A    between atoms: C_14  and  C_15 
REMARK    6  A    between atoms: C_15  and  C_23 
REMARK    7  A    between atoms: C_15  and  N_27 
REMARK    8  A    between atoms: C_23  and  O_24 
ROOT
HETATM    1  C           1     -21.341  -8.968  -3.912  0.00  0.00     0.190 C 
ENDROOT
BRANCH   1   2
HETATM    2  C           1     -21.241 -10.162  -4.829  0.00  0.00     0.197 C 
HETATM    3  O           1     -21.030  -9.997  -6.049  0.00  0.00    -0.646 OA
HETATM    4  O           1     -21.371 -11.317  -4.368  0.00  0.00    -0.646 OA
ENDBRANCH   1   2
BRANCH   1   5
HETATM    5  N           1     -20.955  -9.356  -2.570  0.00  0.00    -0.344 N 
HETATM    6  H           1     -20.077  -9.833  -2.414  0.00  0.00     0.163 HD
HETATM    7  C           1     -21.779  -9.077  -1.513  0.00  0.00     0.251 C 
HETATM    8  O           1     -22.620  -9.875  -1.176  0.00  0.00    -0.271 OA
BRANCH   7   9
HETATM    9  C           1     -21.635  -7.772  -0.768  0.00  0.00     0.297 C 
BRANCH   9  10
HETATM   10  C           1     -22.134  -7.945   0.661  0.00  0.00     0.206 C 
BRANCH  10  11
HETATM   11  O           1     -23.536  -7.950   0.669  0.00  0.00    -0.398 OA
HETATM   12  H           1     -23.809  -7.232   1.216  0.00  0.00     0.209 HD
ENDBRANCH  10  11
ENDBRANCH   9  10
BRANCH   9  13
HETATM   13  N           1     -22.447  -6.714  -1.455  0.00  0.00    -0.064 N 
HETATM   14  H           1     -22.058  -5.772  -1.224  0.00  0.00     0.275 HD
HETATM   15  H           1     -22.411  -6.863  -2.489  0.00  0.00     0.275 HD
HETATM   16  H           1     -23.440  -6.769  -1.130  0.00  0.00     0.275 HD
ENDBRANCH   9  13
ENDBRANCH   7   9
ENDBRANCH   1   5
BRANCH   1  17
HETATM   17  C           1     -20.413  -7.866  -4.409  0.00  0.00     0.077 C 
BRANCH  17  18
HETATM   18  C           1     -21.215  -6.820  -5.119  0.00  0.00    -0.028 A 
HETATM   19  C           1     -22.562  -6.585  -4.962  0.00  0.00     0.096 A 
HETATM   20  N           1     -22.904  -5.547  -5.788  0.00  0.00    -0.365 N 
HETATM   21  H           1     -23.870  -5.147  -5.881  0.00  0.00     0.165 HD
HETATM   22  C           1     -21.799  -5.103  -6.479  0.00  0.00     0.042 A 
HETATM   23  C           1     -21.673  -4.076  -7.422  0.00  0.00     0.030 A 
HETATM   24  C           1     -20.720  -5.890  -6.074  0.00  0.00    -0.002 A 
HETATM   25  C           1     -20.404  -3.849  -7.965  0.00  0.00     0.002 A 
HETATM   26  C           1     -19.309  -4.619  -7.580  0.00  0.00     0.001 A 
HETATM   27  C           1     -19.452  -5.642  -6.636  0.00  0.00     0.014 A 
ENDBRANCH  17  18
ENDBRANCH   1  17
TORSDOF 8
ENDMDL
MODEL 5
REMARK VINA RESULT:      -6.6      1.603      2.048
REMARK  8 active torsions:
REMARK  status: ('A' for Active; 'I' for Inactive)
REMARK    1  A    between atoms: C_2  and  C_10 
REMARK    2  A    between atoms: N_8  and  C_10 
REMARK       I    between atoms: N_8  and  C_14 
REMARK    3  A    between atoms: C_10  and  C_13 
REMARK    4  A    between atoms: C_11  and  C_13 
REMARK    5  A    between atoms: C_14  and  C_15 
REMARK    6  A    between atoms: C_15  and  C_23 
REMARK    7  A    between atoms: C_15  and  N_27 
REMARK    8  A    between atoms: C_23  and  O_24 
ROOT
HETATM    1  C           1     -23.176  -4.564  -9.520  0.00  0.00     0.190 C 
ENDROOT
BRANCH   1   2
HETATM    2  C           1     -24.536  -3.911  -9.558  0.00  0.00     0.197 C 
HETATM    3  O           1     -24.632  -2.666  -9.517  0.00  0.00    -0.646 OA
HETATM    4  O           1     -25.567  -4.615  -9.630  0.00  0.00    -0.646 OA
ENDBRANCH   1   2
BRANCH   1   5
HETATM    5  N           1     -22.806  -4.987 -10.856  0.00  0.00    -0.344 N 
HETATM    6  H           1     -23.026  -5.922 -11.171  0.00  0.00     0.163 HD
HETATM    7  C           1     -22.155  -4.118 -11.692  0.00  0.00     0.251 C 
HETATM    8  O           1     -20.949  -4.076 -11.698  0.00  0.00    -0.271 OA
BRANCH   7   9
HETATM    9  C           1     -22.947  -3.217 -12.607  0.00  0.00     0.297 C 
BRANCH   9  10
HETATM   10  C           1     -24.312  -3.837 -12.875  0.00  0.00     0.206 C 
BRANCH  10  11
HETATM   11  O           1     -25.318  -2.932 -12.509  0.00  0.00    -0.398 OA
HETATM   12  H           1     -25.630  -3.198 -11.660  0.00  0.00     0.209 HD
ENDBRANCH  10  11
ENDBRANCH   9  10
BRANCH   9  13
HETATM   13  N           1     -22.211  -3.052 -13.904  0.00  0.00    -0.064 N 
HETATM   14  H           1     -21.739  -2.119 -13.920  0.00  0.00     0.275 HD
HETATM   15  H           1     -21.495  -3.807 -13.997  0.00  0.00     0.275 HD
HETATM   16  H           1     -22.887  -3.113 -14.699  0.00  0.00     0.275 HD
ENDBRANCH   9  13
ENDBRANCH   7   9
ENDBRANCH   1   5
BRANCH   1  17
HETATM   17  C           1     -22.148  -3.568  -8.999  0.00  0.00     0.077 C 
BRANCH  17  18
HETATM   18  C           1     -21.156  -4.280  -8.133  0.00  0.00    -0.028 A 
HETATM   19  C           1     -19.788  -4.275  -8.292  0.00  0.00     0.096 A 
HETATM   20  N           1     -19.249  -5.045  -7.296  0.00  0.00    -0.365 N 
HETATM   21  H           1     -18.223  -5.225  -7.165  0.00  0.00     0.165 HD
HETATM   22  C           1     -20.245  -5.551  -6.491  0.00  0.00     0.042 A 
HETATM   23  C           1     -20.166  -6.378  -5.365  0.00  0.00     0.030 A 
HETATM   24  C           1     -21.458  -5.082  -6.999  0.00  0.00    -0.002 A 
HETATM   25  C           1     -21.365  -6.736  -4.741  0.00  0.00     0.002 A 
HETATM   26  C           1     -22.591  -6.283  -5.225  0.00  0.00     0.001 A 
HETATM   27  C           1     -22.652  -5.457  -6.352  0.00  0.00     0.014 A 
ENDBRANCH  17  18
ENDBRANCH   1  17
TORSDOF 8
ENDMDL
MODEL 6
REMARK VINA RESULT:      -6.6     11.230     12.892
REMARK  8 active torsions:
REMARK  status: ('A' for Active; 'I' for Inactive)
REMARK    1  A    between atoms: C_2  and  C_10 
REMARK    2  A    between atoms: N_8  and  C_10 
REMARK       I    between atoms: N_8  and  C_14 
REMARK    3  A    between atoms: C_10  and  C_13 
REMARK    4  A    between atoms: C_11  and  C_13 
REMARK    5  A    between atoms: C_14  and  C_15 
REMARK    6  A    between atoms: C_15  and  C_23 
REMARK    7  A    between atoms: C_15  and  N_27 
REMARK    8  A    between atoms: C_23  and  O_24 
ROOT
HETATM    1  C           1     -35.375  -1.917 -12.187  0.00  0.00     0.190 C 
ENDROOT
BRANCH   1   2
HETATM    2  C           1     -36.216  -0.732 -11.777  0.00  0.00     0.197 C 
HETATM    3  O           1     -35.695   0.216 -11.153  0.00  0.00    -0.646 OA
HETATM    4  O           1     -37.433  -0.702 -12.061  0.00  0.00    -0.646 OA
ENDBRANCH   1   2
BRANCH   1   5
HETATM    5  N           1     -34.862  -1.704 -13.526  0.00  0.00    -0.344 N 
HETATM    6  H           1     -34.246  -2.387 -13.947  0.00  0.00     0.163 HD
HETATM    7  C           1     -35.211  -0.577 -14.221  0.00  0.00     0.251 C 
HETATM    8  O           1     -34.538   0.421 -14.131  0.00  0.00    -0.271 OA
BRANCH   7   9
HETATM    9  C           1     -36.437  -0.583 -15.102  0.00  0.00     0.297 C 
BRANCH   9  10
HETATM   10  C           1     -36.027  -0.870 -16.540  0.00  0.00     0.206 C 
BRANCH  10  11
HETATM   11  O           1     -34.772  -1.493 -16.554  0.00  0.00    -0.398 OA
HETATM   12  H           1     -34.599  -1.780 -15.673  0.00  0.00     0.209 HD
ENDBRANCH  10  11
ENDBRANCH   9  10
BRANCH   9  13
HETATM   13  N           1     -37.108   0.757 -15.032  0.00  0.00    -0.064 N 
HETATM   14  H           1     -37.698   0.895 -15.884  0.00  0.00     0.275 HD
HETATM   15  H           1     -37.709   0.802 -14.179  0.00  0.00     0.275 HD
HETATM   16  H           1     -36.382   1.509 -14.987  0.00  0.00     0.275 HD
ENDBRANCH   9  13
ENDBRANCH   7   9
ENDBRANCH   1   5
BRANCH   1  17
HETATM   17  C           1     -34.211  -2.075 -11.217  0.00  0.00     0.077 C 
BRANCH  17  18
HETATM   18  C           1     -33.625  -3.445 -11.359  0.00  0.00    -0.028 A 
HETATM   19  C           1     -32.467  -3.767 -12.030  0.00  0.00     0.096 A 
HETATM   20  N           1     -32.283  -5.120 -11.922  0.00  0.00    -0.365 N 
HETATM   21  H           1     -31.480  -5.652 -12.338  0.00  0.00     0.165 HD
HETATM   22  C           1     -33.305  -5.683 -11.191  0.00  0.00     0.042 A 
HETATM   23  C           1     -33.531  -7.016 -10.829  0.00  0.00     0.030 A 
HETATM   24  C           1     -34.164  -4.647 -10.823  0.00  0.00    -0.002 A 
HETATM   25  C           1     -34.672  -7.295 -10.070  0.00  0.00     0.002 A 
HETATM   26  C           1     -35.548  -6.281  -9.688  0.00  0.00     0.001 A 
HETATM   27  C           1     -35.306  -4.953 -10.058  0.00  0.00     0.014 A 
ENDBRANCH  17  18
ENDBRANCH   1  17
TORSDOF 8
ENDMDL
MODEL 7
REMARK VINA RESULT:      -6.6      4.062      7.637
REMARK  8 active torsions:
REMARK  status: ('A' for Active; 'I' for Inactive)
REMARK    1  A    between atoms: C_2  and  C_10 
REMARK    2  A    between atoms: N_8  and  C_10 
REMARK       I    between atoms: N_8  and  C_14 
REMARK    3  A    between atoms: C_10  and  C_13 
REMARK    4  A    between atoms: C_11  and  C_13 
REMARK    5  A    between atoms: C_14  and  C_15 
REMARK    6  A    between atoms: C_15  and  C_23 
REMARK    7  A    between atoms: C_15  and  N_27 
REMARK    8  A    between atoms: C_23  and  O_24 
ROOT
HETATM    1  C           1     -21.521  -5.492  -6.859  0.00  0.00     0.190 C 
ENDROOT
BRANCH   1   2
HETATM    2  C           1     -20.043  -5.572  -6.567  0.00  0.00     0.197 C 
HETATM    3  O           1     -19.460  -4.608  -6.025  0.00  0.00    -0.646 OA
HETATM    4  O           1     -19.400  -6.601  -6.870  0.00  0.00    -0.646 OA
ENDBRANCH   1   2
BRANCH   1   5
HETATM    5  N           1     -22.267  -5.747  -5.643  0.00  0.00    -0.344 N 
HETATM    6  H           1     -23.200  -5.373  -5.533  0.00  0.00     0.163 HD
HETATM    7  C           1     -21.707  -6.494  -4.640  0.00  0.00     0.251 C 
HETATM    8  O           1     -21.063  -5.955  -3.773  0.00  0.00    -0.271 OA
BRANCH   7   9
HETATM    9  C           1     -21.897  -7.992  -4.620  0.00  0.00     0.297 C 
BRANCH   9  10
HETATM   10  C           1     -21.453  -8.542  -3.271  0.00  0.00     0.206 C 
BRANCH  10  11
HETATM   11  O           1     -20.054  -8.624  -3.238  0.00  0.00    -0.398 OA
HETATM   12  H           1     -19.755  -7.962  -2.637  0.00  0.00     0.209 HD
ENDBRANCH  10  11
ENDBRANCH   9  10
BRANCH   9  13
HETATM   13  N           1     -21.073  -8.614  -5.709  0.00  0.00    -0.064 N 
HETATM   14  H           1     -20.450  -9.345  -5.298  0.00  0.00     0.275 HD
HETATM   15  H           1     -21.704  -9.050  -6.418  0.00  0.00     0.275 HD
HETATM   16  H           1     -20.490  -7.877  -6.168  0.00  0.00     0.275 HD
ENDBRANCH   9  13
ENDBRANCH   7   9
ENDBRANCH   1   5
BRANCH   1  17
HETATM   17  C           1     -21.862  -4.102  -7.381  0.00  0.00     0.077 C 
BRANCH  17  18
HETATM   18  C           1     -21.568  -4.033  -8.848  0.00  0.00    -0.028 A 
HETATM   19  C           1     -20.339  -4.220  -9.438  0.00  0.00     0.096 A 
HETATM   20  N           1     -20.498  -4.074 -10.790  0.00  0.00    -0.365 N 
HETATM   21  H           1     -19.729  -4.161 -11.499  0.00  0.00     0.165 HD
HETATM   22  C           1     -21.813  -3.794 -11.088  0.00  0.00     0.042 A 
HETATM   23  C           1     -22.434  -3.569 -12.323  0.00  0.00     0.030 A 
HETATM   24  C           1     -22.509  -3.764  -9.879  0.00  0.00    -0.002 A 
HETATM   25  C           1     -23.807  -3.305 -12.317  0.00  0.00     0.002 A 
HETATM   26  C           1     -24.527  -3.268 -11.125  0.00  0.00     0.001 A 
HETATM   27  C           1     -23.892  -3.495  -9.900  0.00  0.00     0.014 A 
ENDBRANCH  17  18
ENDBRANCH   1  17
TORSDOF 8
ENDMDL
MODEL 8
REMARK VINA RESULT:      -6.5      7.823      9.936
REMARK  8 active torsions:
REMARK  status: ('A' for Active; 'I' for Inactive)
REMARK    1  A    between atoms: C_2  and  C_10 
REMARK    2  A    between atoms: N_8  and  C_10 
REMARK       I    between atoms: N_8  and  C_14 
REMARK    3  A    between atoms: C_10  and  C_13 
REMARK    4  A    between atoms: C_11  and  C_13 
REMARK    5  A    between atoms: C_14  and  C_15 
REMARK    6  A    between atoms: C_15  and  C_23 
REMARK    7  A    between atoms: C_15  and  N_27 
REMARK    8  A    between atoms: C_23  and  O_24 
ROOT
HETATM    1  C           1     -21.245  -7.860  -3.033  0.00  0.00     0.190 C 
ENDROOT
BRANCH   1   2
HETATM    2  C           1     -21.773  -6.447  -3.049  0.00  0.00     0.197 C 
HETATM    3  O           1     -21.571  -5.716  -4.042  0.00  0.00    -0.646 OA
HETATM    4  O           1     -22.413  -6.007  -2.069  0.00  0.00    -0.646 OA
ENDBRANCH   1   2
BRANCH   1   5
HETATM    5  N           1     -20.304  -8.037  -4.121  0.00  0.00    -0.344 N 
HETATM    6  H           1     -19.396  -7.594  -4.082  0.00  0.00     0.163 HD
HETATM    7  C           1     -20.646  -8.802  -5.204  0.00  0.00     0.251 C 
HETATM    8  O           1     -21.187  -8.294  -6.156  0.00  0.00    -0.271 OA
BRANCH   7   9
HETATM    9  C           1     -20.344 -10.281  -5.207  0.00  0.00     0.297 C 
BRANCH   9  10
HETATM   10  C           1     -18.856 -10.495  -5.449  0.00  0.00     0.206 C 
BRANCH  10  11
HETATM   11  O           1     -18.329  -9.391  -6.135  0.00  0.00    -0.398 OA
HETATM   12  H           1     -18.171  -9.670  -7.021  0.00  0.00     0.209 HD
ENDBRANCH  10  11
ENDBRANCH   9  10
BRANCH   9  13
HETATM   13  N           1     -21.127 -10.947  -6.300  0.00  0.00    -0.064 N 
HETATM   14  H           1     -21.916 -10.326  -6.591  0.00  0.00     0.275 HD
HETATM   15  H           1     -20.502 -11.124  -7.119  0.00  0.00     0.275 HD
HETATM   16  H           1     -21.511 -11.855  -5.951  0.00  0.00     0.275 HD
ENDBRANCH   9  13
ENDBRANCH   7   9
ENDBRANCH   1   5
BRANCH   1  17
HETATM   17  C           1     -20.542  -8.124  -1.707  0.00  0.00     0.077 C 
BRANCH  17  18
HETATM   18  C           1     -20.648  -9.579  -1.366  0.00  0.00    -0.028 A 
HETATM   19  C           1     -19.656 -10.521  -1.514  0.00  0.00     0.096 A 
HETATM   20  N           1     -20.155 -11.724  -1.089  0.00  0.00    -0.365 N 
HETATM   21  H           1     -19.622 -12.628  -1.086  0.00  0.00     0.165 HD
HETATM   22  C           1     -21.458 -11.577  -0.667  0.00  0.00     0.042 A 
HETATM   23  C           1     -22.356 -12.522  -0.157  0.00  0.00     0.030 A 
HETATM   24  C           1     -21.792 -10.232  -0.832  0.00  0.00    -0.002 A 
HETATM   25  C           1     -23.634 -12.075   0.194  0.00  0.00     0.002 A 
HETATM   26  C           1     -23.996 -10.739   0.041  0.00  0.00     0.001 A 
HETATM   27  C           1     -23.086  -9.807  -0.470  0.00  0.00     0.014 A 
ENDBRANCH  17  18
ENDBRANCH   1  17
TORSDOF 8
ENDMDL
MODEL 9
REMARK VINA RESULT:      -6.4      3.324      7.029
REMARK  8 active torsions:
REMARK  status: ('A' for Active; 'I' for Inactive)
REMARK    1  A    between atoms: C_2  and  C_10 
REMARK    2  A    between atoms: N_8  and  C_10 
REMARK       I    between atoms: N_8  and  C_14 
REMARK    3  A    between atoms: C_10  and  C_13 
REMARK    4  A    between atoms: C_11  and  C_13 
REMARK    5  A    between atoms: C_14  and  C_15 
REMARK    6  A    between atoms: C_15  and  C_23 
REMARK    7  A    between atoms: C_15  and  N_27 
REMARK    8  A    between atoms: C_23  and  O_24 
ROOT
HETATM    1  C           1     -20.371  -4.613  -7.283  0.00  0.00     0.190 C 
ENDROOT
BRANCH   1   2
HETATM    2  C           1     -21.592  -3.816  -6.893  0.00  0.00     0.197 C 
HETATM    3  O           1     -22.620  -4.403  -6.493  0.00  0.00    -0.646 OA
HETATM    4  O           1     -21.575  -2.568  -6.970  0.00  0.00    -0.646 OA
ENDBRANCH   1   2
BRANCH   1   5
HETATM    5  N           1     -19.920  -5.391  -6.147  0.00  0.00    -0.344 N 
HETATM    6  H           1     -19.532  -4.927  -5.337  0.00  0.00     0.163 HD
HETATM    7  C           1     -20.017  -6.757  -6.170  0.00  0.00     0.251 C 
HETATM    8  O           1     -19.105  -7.420  -6.602  0.00  0.00    -0.271 OA
BRANCH   7   9
HETATM    9  C           1     -21.264  -7.433  -5.655  0.00  0.00     0.297 C 
BRANCH   9  10
HETATM   10  C           1     -21.420  -7.146  -4.167  0.00  0.00     0.206 C 
BRANCH  10  11
HETATM   11  O           1     -22.098  -5.932  -3.993  0.00  0.00    -0.398 OA
HETATM   12  H           1     -21.984  -5.681  -3.092  0.00  0.00     0.209 HD
ENDBRANCH  10  11
ENDBRANCH   9  10
BRANCH   9  13
HETATM   13  N           1     -21.153  -8.914  -5.868  0.00  0.00    -0.064 N 
HETATM   14  H           1     -20.171  -9.154  -6.136  0.00  0.00     0.275 HD
HETATM   15  H           1     -21.406  -9.413  -4.986  0.00  0.00     0.275 HD
HETATM   16  H           1     -21.803  -9.206  -6.633  0.00  0.00     0.275 HD
ENDBRANCH   9  13
ENDBRANCH   7   9
ENDBRANCH   1   5
BRANCH   1  17
HETATM   17  C           1     -20.723  -5.550  -8.432  0.00  0.00     0.077 C 
BRANCH  17  18
HETATM   18  C           1     -20.830  -4.765  -9.702  0.00  0.00    -0.028 A 
HETATM   19  C           1     -19.786  -4.411 -10.527  0.00  0.00     0.096 A 
HETATM   20  N           1     -20.306  -3.702 -11.577  0.00  0.00    -0.365 N 
HETATM   21  H           1     -19.744  -3.300 -12.368  0.00  0.00     0.165 HD
HETATM   22  C           1     -21.673  -3.589 -11.448  0.00  0.00     0.042 A 
HETATM   23  C           1     -22.611  -2.958 -12.272  0.00  0.00     0.030 A 
HETATM   24  C           1     -22.027  -4.252 -10.272  0.00  0.00    -0.002 A 
HETATM   25  C           1     -23.953  -3.008 -11.880  0.00  0.00     0.002 A 
HETATM   26  C           1     -24.336  -3.663 -10.711  0.00  0.00     0.001 A 
HETATM   27  C           1     -23.385  -4.289  -9.898  0.00  0.00     0.014 A 
ENDBRANCH  17  18
ENDBRANCH   1  17
TORSDOF 8
ENDMDL
