MODEL 1
REMARK VINA RESULT:      -6.5      0.000      0.000
REMARK  5 active torsions:
REMARK  status: ('A' for Active; 'I' for Inactive)
REMARK    1  A    between atoms: C_2  and  C_24 
REMARK    2  A    between atoms: C_5  and  C_6 
REMARK    3  A    between atoms: C_6  and  C_20 
REMARK    4  A    between atoms: C_6  and  N_23 
REMARK    5  A    between atoms: O_18  and  C_20 
REMARK       I    between atoms: N_23  and  C_24 
ROOT
HETATM    1  C           1     -35.289  -1.265 -11.259  0.00  0.00     0.274 C 
HETATM    2  C           1     -33.378  -4.206 -11.840  0.00  0.00     0.027 C 
HETATM    3  C           1     -34.017  -2.998 -12.512  0.00  0.00     0.004 C 
HETATM    4  C           1     -34.090  -4.491 -10.524  0.00  0.00     0.229 C 
HETATM    5  H           1     -37.023  -1.984 -10.330  0.00  0.00     0.275 HD
HETATM    6  H           1     -36.150  -3.173 -11.191  0.00  0.00     0.275 HD
HETATM    7  C           1     -33.898  -1.785 -11.598  0.00  0.00     0.042 C 
HETATM    8  N           1     -36.069  -2.342 -10.563  0.00  0.00    -0.067 N 
HETATM    9  H           1     -35.977  -3.946 -11.249  0.00  0.00     0.274 HD
HETATM   10  H           1     -35.575  -2.617  -9.684  0.00  0.00     0.275 HD
HETATM   11  H           1     -35.620  -5.607 -11.417  0.00  0.00     0.274 HD
HETATM   12  H           1     -36.027  -4.971  -9.886  0.00  0.00     0.274 HD
HETATM   13  N           1     -35.539  -4.775 -10.789  0.00  0.00    -0.079 N 
ENDROOT
BRANCH   1  14
HETATM   14  C           1     -36.002  -0.869 -12.529  0.00  0.00     0.249 C 
HETATM   15  O           1     -37.195  -1.034 -12.627  0.00  0.00    -0.271 OA
HETATM   16  N           1     -35.298  -0.325 -13.568  0.00  0.00    -0.343 N 
HETATM   17  H           1     -34.298  -0.188 -13.486  0.00  0.00     0.163 HD
BRANCH  16  18
HETATM   18  C           1     -35.984   0.056 -14.787  0.00  0.00     0.209 C 
BRANCH  18  19
HETATM   19  C           1     -35.680  -0.950 -15.871  0.00  0.00     0.198 C 
HETATM   20  O           1     -34.938  -1.925 -15.627  0.00  0.00    -0.646 OA
HETATM   21  O           1     -36.171  -0.807 -17.011  0.00  0.00    -0.646 OA
ENDBRANCH  18  19
BRANCH  18  22
HETATM   22  C           1     -35.509   1.435 -15.227  0.00  0.00     0.200 C 
BRANCH  22  23
HETATM   23  O           1     -36.421   1.974 -16.146  0.00  0.00    -0.398 OA
HETATM   24  H           1     -36.862   2.683 -15.711  0.00  0.00     0.209 HD
ENDBRANCH  22  23
ENDBRANCH  18  22
ENDBRANCH  16  18
ENDBRANCH   1  14
TORSDOF 5
ENDMDL
MODEL 2
REMARK VINA RESULT:      -6.5     13.169     14.691
REMARK  5 active torsions:
REMARK  status: ('A' for Active; 'I' for Inactive)
REMARK    1  A    between atoms: C_2  and  C_24 
REMARK    2  A    between atoms: C_5  and  C_6 
REMARK    3  A    between atoms: C_6  and  C_20 
REMARK    4  A    between atoms: C_6  and  N_23 
REMARK    5  A    between atoms: O_18  and  C_20 
REMARK       I    between atoms: N_23  and  C_24 
ROOT
HETATM    1  C           1     -20.479  -3.696  -7.870  0.00  0.00     0.274 C 
HETATM    2  C           1     -20.118  -6.652  -5.929  0.00  0.00     0.027 C 
HETATM    3  C           1     -20.167  -6.109  -7.350  0.00  0.00     0.004 C 
HETATM    4  C           1     -20.838  -5.689  -4.993  0.00  0.00     0.229 C 
HETATM    5  H           1     -22.319  -2.919  -7.240  0.00  0.00     0.275 HD
HETATM    6  H           1     -22.105  -4.575  -6.885  0.00  0.00     0.275 HD
HETATM    7  C           1     -19.483  -4.749  -7.399  0.00  0.00     0.042 C 
HETATM    8  N           1     -21.636  -3.641  -6.917  0.00  0.00    -0.067 N 
HETATM    9  H           1     -22.300  -5.172  -6.399  0.00  0.00     0.274 HD
HETATM   10  H           1     -21.291  -3.392  -5.962  0.00  0.00     0.275 HD
HETATM   11  H           1     -22.736  -6.479  -5.392  0.00  0.00     0.274 HD
HETATM   12  H           1     -22.761  -4.886  -4.782  0.00  0.00     0.274 HD
HETATM   13  N           1     -22.267  -5.545  -5.424  0.00  0.00    -0.079 N 
ENDROOT
BRANCH   1  14
HETATM   14  C           1     -20.979  -4.056  -9.247  0.00  0.00     0.249 C 
HETATM   15  O           1     -20.199  -4.415 -10.098  0.00  0.00    -0.271 OA
HETATM   16  N           1     -22.315  -3.975  -9.533  0.00  0.00    -0.343 N 
HETATM   17  H           1     -22.968  -3.674  -8.821  0.00  0.00     0.163 HD
BRANCH  16  18
HETATM   18  C           1     -22.795  -4.321 -10.857  0.00  0.00     0.209 C 
BRANCH  18  19
HETATM   19  C           1     -23.187  -3.064 -11.594  0.00  0.00     0.198 C 
HETATM   20  O           1     -24.394  -2.811 -11.798  0.00  0.00    -0.646 OA
HETATM   21  O           1     -22.306  -2.277 -12.001  0.00  0.00    -0.646 OA
ENDBRANCH  18  19
BRANCH  18  22
HETATM   22  C           1     -24.006  -5.237 -10.734  0.00  0.00     0.200 C 
BRANCH  22  23
HETATM   23  O           1     -24.877  -4.734  -9.757  0.00  0.00    -0.398 OA
HETATM   24  H           1     -25.212  -5.474  -9.281  0.00  0.00     0.209 HD
ENDBRANCH  22  23
ENDBRANCH  18  22
ENDBRANCH  16  18
ENDBRANCH   1  14
TORSDOF 5
ENDMDL
MODEL 3
REMARK VINA RESULT:      -5.8     13.683     15.572
REMARK  5 active torsions:
REMARK  status: ('A' for Active; 'I' for Inactive)
REMARK    1  A    between atoms: C_2  and  C_24 
REMARK    2  A    between atoms: C_5  and  C_6 
REMARK    3  A    between atoms: C_6  and  C_20 
REMARK    4  A    between atoms: C_6  and  N_23 
REMARK    5  A    between atoms: O_18  and  C_20 
REMARK       I    between atoms: N_23  and  C_24 
ROOT
HETATM    1  C           1     -22.036  -3.004 -10.356  0.00  0.00     0.274 C 
HETATM    2  C           1     -24.191  -4.384 -12.822  0.00  0.00     0.027 C 
HETATM    3  C           1     -23.386  -4.704 -11.571  0.00  0.00     0.004 C 
HETATM    4  C           1     -23.607  -3.150 -13.500  0.00  0.00     0.229 C 
HETATM    5  H           1     -20.455  -2.209 -11.477  0.00  0.00     0.275 HD
HETATM    6  H           1     -21.381  -3.377 -12.310  0.00  0.00     0.275 HD
HETATM    7  C           1     -23.445  -3.522 -10.611  0.00  0.00     0.042 C 
HETATM    8  N           1     -21.422  -2.566 -11.653  0.00  0.00    -0.067 N 
HETATM    9  H           1     -21.628  -3.634 -13.020  0.00  0.00     0.274 HD
HETATM   10  H           1     -22.002  -1.805 -12.074  0.00  0.00     0.275 HD
HETATM   11  H           1     -22.140  -4.227 -14.536  0.00  0.00     0.274 HD
HETATM   12  H           1     -21.780  -2.570 -14.344  0.00  0.00     0.274 HD
HETATM   13  N           1     -22.181  -3.415 -13.879  0.00  0.00    -0.079 N 
ENDROOT
BRANCH   1  14
HETATM   14  C           1     -21.197  -4.102  -9.749  0.00  0.00     0.249 C 
HETATM   15  O           1     -20.383  -4.685 -10.426  0.00  0.00    -0.271 OA
HETATM   16  N           1     -21.358  -4.437  -8.432  0.00  0.00    -0.343 N 
HETATM   17  H           1     -22.040  -3.950  -7.865  0.00  0.00     0.163 HD
BRANCH  16  18
HETATM   18  C           1     -20.552  -5.492  -7.849  0.00  0.00     0.209 C 
BRANCH  18  19
HETATM   19  C           1     -21.328  -6.167  -6.745  0.00  0.00     0.198 C 
HETATM   20  O           1     -22.280  -5.572  -6.197  0.00  0.00    -0.646 OA
HETATM   21  O           1     -21.018  -7.322  -6.378  0.00  0.00    -0.646 OA
ENDBRANCH  18  19
BRANCH  18  22
HETATM   22  C           1     -19.272  -4.895  -7.278  0.00  0.00     0.200 C 
BRANCH  22  23
HETATM   23  O           1     -19.463  -4.584  -5.925  0.00  0.00    -0.398 OA
HETATM   24  H           1     -20.058  -3.856  -5.892  0.00  0.00     0.209 HD
ENDBRANCH  22  23
ENDBRANCH  18  22
ENDBRANCH  16  18
ENDBRANCH   1  14
TORSDOF 5
ENDMDL
MODEL 4
REMARK VINA RESULT:      -5.7      2.951      5.529
REMARK  5 active torsions:
REMARK  status: ('A' for Active; 'I' for Inactive)
REMARK    1  A    between atoms: C_2  and  C_24 
REMARK    2  A    between atoms: C_5  and  C_6 
REMARK    3  A    between atoms: C_6  and  C_20 
REMARK    4  A    between atoms: C_6  and  N_23 
REMARK    5  A    between atoms: O_18  and  C_20 
REMARK       I    between atoms: N_23  and  C_24 
ROOT
HETATM    1  C           1     -36.021  -0.132 -11.898  0.00  0.00     0.274 C 
HETATM    2  C           1     -36.772   0.357 -15.337  0.00  0.00     0.027 C 
HETATM    3  C           1     -36.904  -0.614 -14.173  0.00  0.00     0.004 C 
HETATM    4  C           1     -35.596   1.293 -15.087  0.00  0.00     0.229 C 
HETATM    5  H           1     -33.939   0.075 -11.817  0.00  0.00     0.275 HD
HETATM    6  H           1     -34.545  -0.257 -13.378  0.00  0.00     0.275 HD
HETATM    7  C           1     -37.142   0.164 -12.885  0.00  0.00     0.042 C 
HETATM    8  N           1     -34.707   0.278 -12.495  0.00  0.00    -0.067 N 
HETATM    9  H           1     -34.426  -0.175 -14.159  0.00  0.00     0.274 HD
HETATM   10  H           1     -34.725   1.302 -12.707  0.00  0.00     0.275 HD
HETATM   11  H           1     -34.173  -0.044 -15.842  0.00  0.00     0.274 HD
HETATM   12  H           1     -33.529   1.133 -14.788  0.00  0.00     0.274 HD
HETATM   13  N           1     -34.335   0.491 -14.959  0.00  0.00    -0.079 N 
ENDROOT
BRANCH   1  14
HETATM   14  C           1     -35.995  -1.610 -11.593  0.00  0.00     0.249 C 
HETATM   15  O           1     -36.822  -2.088 -10.854  0.00  0.00    -0.271 OA
HETATM   16  N           1     -35.034  -2.407 -12.153  0.00  0.00    -0.343 N 
HETATM   17  H           1     -34.340  -2.006 -12.772  0.00  0.00     0.163 HD
BRANCH  16  18
HETATM   18  C           1     -35.009  -3.826 -11.859  0.00  0.00     0.209 C 
BRANCH  18  19
HETATM   19  C           1     -34.019  -4.094 -10.753  0.00  0.00     0.198 C 
HETATM   20  O           1     -33.244  -3.190 -10.376  0.00  0.00    -0.646 OA
HETATM   21  O           1     -33.974  -5.221 -10.213  0.00  0.00    -0.646 OA
ENDBRANCH  18  19
BRANCH  18  22
HETATM   22  C           1     -34.596  -4.595 -13.108  0.00  0.00     0.200 C 
BRANCH  22  23
HETATM   23  O           1     -35.038  -5.922 -13.009  0.00  0.00    -0.398 OA
HETATM   24  H           1     -35.684  -6.046 -13.684  0.00  0.00     0.209 HD
ENDBRANCH  22  23
ENDBRANCH  18  22
ENDBRANCH  16  18
ENDBRANCH   1  14
TORSDOF 5
ENDMDL
MODEL 5
REMARK VINA RESULT:      -5.5     12.656     13.992
REMARK  5 active torsions:
REMARK  status: ('A' for Active; 'I' for Inactive)
REMARK    1  A    between atoms: C_2  and  C_24 
REMARK    2  A    between atoms: C_5  and  C_6 
REMARK    3  A    between atoms: C_6  and  C_20 
REMARK    4  A    between atoms: C_6  and  N_23 
REMARK    5  A    between atoms: O_18  and  C_20 
REMARK       I    between atoms: N_23  and  C_24 
ROOT
HETATM    1  C           1     -22.591  -3.796  -7.668  0.00  0.00     0.274 C 
HETATM    2  C           1     -19.591  -5.458  -6.735  0.00  0.00     0.027 C 
HETATM    3  C           1     -20.431  -5.003  -7.921  0.00  0.00     0.004 C 
HETATM    4  C           1     -20.482  -5.602  -5.507  0.00  0.00     0.229 C 
HETATM    5  H           1     -24.086  -4.911  -6.713  0.00  0.00     0.275 HD
HETATM    6  H           1     -22.603  -5.740  -6.888  0.00  0.00     0.275 HD
HETATM    7  C           1     -21.076  -3.661  -7.602  0.00  0.00     0.042 C 
HETATM    8  N           1     -23.045  -4.819  -6.668  0.00  0.00    -0.067 N 
HETATM    9  H           1     -22.128  -6.304  -6.593  0.00  0.00     0.274 HD
HETATM   10  H           1     -22.763  -4.518  -5.708  0.00  0.00     0.275 HD
HETATM   11  H           1     -21.109  -7.538  -6.000  0.00  0.00     0.274 HD
HETATM   12  H           1     -22.162  -6.716  -4.938  0.00  0.00     0.274 HD
HETATM   13  N           1     -21.552  -6.617  -5.780  0.00  0.00    -0.079 N 
ENDROOT
BRANCH   1  14
HETATM   14  C           1     -22.999  -4.232  -9.053  0.00  0.00     0.249 C 
HETATM   15  O           1     -23.400  -5.356  -9.239  0.00  0.00    -0.271 OA
HETATM   16  N           1     -22.914  -3.354 -10.100  0.00  0.00    -0.343 N 
HETATM   17  H           1     -22.577  -2.412  -9.945  0.00  0.00     0.163 HD
BRANCH  16  18
HETATM   18  C           1     -23.306  -3.774 -11.431  0.00  0.00     0.209 C 
BRANCH  18  19
HETATM   19  C           1     -22.165  -3.535 -12.390  0.00  0.00     0.198 C 
HETATM   20  O           1     -20.993  -3.790 -12.042  0.00  0.00    -0.646 OA
HETATM   21  O           1     -22.394  -3.083 -13.533  0.00  0.00    -0.646 OA
ENDBRANCH  18  19
BRANCH  18  22
HETATM   22  C           1     -24.522  -2.972 -11.878  0.00  0.00     0.200 C 
BRANCH  22  23
HETATM   23  O           1     -25.036  -3.520 -13.062  0.00  0.00    -0.398 OA
HETATM   24  H           1     -24.298  -3.750 -13.600  0.00  0.00     0.209 HD
ENDBRANCH  22  23
ENDBRANCH  18  22
ENDBRANCH  16  18
ENDBRANCH   1  14
TORSDOF 5
ENDMDL
MODEL 6
REMARK VINA RESULT:      -5.5     15.337     17.392
REMARK  5 active torsions:
REMARK  status: ('A' for Active; 'I' for Inactive)
REMARK    1  A    between atoms: C_2  and  C_24 
REMARK    2  A    between atoms: C_5  and  C_6 
REMARK    3  A    between atoms: C_6  and  C_20 
REMARK    4  A    between atoms: C_6  and  N_23 
REMARK    5  A    between atoms: O_18  and  C_20 
REMARK       I    between atoms: N_23  and  C_24 
ROOT
HETATM    1  C           1     -20.424  -4.324  -7.050  0.00  0.00     0.274 C 
HETATM    2  C           1     -22.398  -3.808  -9.960  0.00  0.00     0.027 C 
HETATM    3  C           1     -22.340  -4.533  -8.623  0.00  0.00     0.004 C 
HETATM    4  C           1     -20.985  -3.470 -10.417  0.00  0.00     0.229 C 
HETATM    5  H           1     -18.612  -5.049  -7.810  0.00  0.00     0.275 HD
HETATM    6  H           1     -19.928  -5.194  -8.889  0.00  0.00     0.275 HD
HETATM    7  C           1     -21.673  -3.638  -7.587  0.00  0.00     0.042 C 
HETATM    8  N           1     -19.470  -4.579  -8.180  0.00  0.00    -0.067 N 
HETATM    9  H           1     -20.150  -5.230  -9.651  0.00  0.00     0.274 HD
HETATM   10  H           1     -19.205  -3.671  -8.625  0.00  0.00     0.275 HD
HETATM   11  H           1     -20.649  -5.348 -11.279  0.00  0.00     0.274 HD
HETATM   12  H           1     -19.222  -4.501 -10.883  0.00  0.00     0.274 HD
HETATM   13  N           1     -20.191  -4.733 -10.569  0.00  0.00    -0.079 N 
ENDROOT
BRANCH   1  14
HETATM   14  C           1     -20.805  -5.635  -6.409  0.00  0.00     0.249 C 
HETATM   15  O           1     -21.010  -6.607  -7.097  0.00  0.00    -0.271 OA
HETATM   16  N           1     -20.920  -5.723  -5.047  0.00  0.00    -0.343 N 
HETATM   17  H           1     -20.750  -4.908  -4.471  0.00  0.00     0.163 HD
BRANCH  16  18
HETATM   18  C           1     -21.286  -6.983  -4.432  0.00  0.00     0.209 C 
BRANCH  18  19
HETATM   19  C           1     -21.595  -6.759  -2.972  0.00  0.00     0.198 C 
HETATM   20  O           1     -20.971  -7.396  -2.097  0.00  0.00    -0.646 OA
HETATM   21  O           1     -22.476  -5.937  -2.638  0.00  0.00    -0.646 OA
ENDBRANCH  18  19
BRANCH  18  22
HETATM   22  C           1     -20.129  -7.966  -4.561  0.00  0.00     0.200 C 
BRANCH  22  23
HETATM   23  O           1     -20.467  -8.969  -5.481  0.00  0.00    -0.398 OA
HETATM   24  H           1     -20.506  -9.778  -5.002  0.00  0.00     0.209 HD
ENDBRANCH  22  23
ENDBRANCH  18  22
ENDBRANCH  16  18
ENDBRANCH   1  14
TORSDOF 5
ENDMDL
MODEL 7
REMARK VINA RESULT:      -5.5     14.931     16.903
REMARK  5 active torsions:
REMARK  status: ('A' for Active; 'I' for Inactive)
REMARK    1  A    between atoms: C_2  and  C_24 
REMARK    2  A    between atoms: C_5  and  C_6 
REMARK    3  A    between atoms: C_6  and  C_20 
REMARK    4  A    between atoms: C_6  and  N_23 
REMARK    5  A    between atoms: O_18  and  C_20 
REMARK       I    between atoms: N_23  and  C_24 
ROOT
HETATM    1  C           1     -20.310  -3.896  -7.367  0.00  0.00     0.274 C 
HETATM    2  C           1     -22.523  -4.226 -10.128  0.00  0.00     0.027 C 
HETATM    3  C           1     -22.233  -4.715  -8.715  0.00  0.00     0.004 C 
HETATM    4  C           1     -21.242  -3.690 -10.753  0.00  0.00     0.229 C 
HETATM    5  H           1     -18.437  -4.358  -8.183  0.00  0.00     0.275 HD
HETATM    6  H           1     -19.758  -4.921  -9.108  0.00  0.00     0.275 HD
HETATM    7  C           1     -21.705  -3.559  -7.876  0.00  0.00     0.042 C 
HETATM    8  N           1     -19.394  -4.127  -8.533  0.00  0.00    -0.067 N 
HETATM    9  H           1     -20.014  -5.115  -9.834  0.00  0.00     0.274 HD
HETATM   10  H           1     -19.352  -3.263  -9.120  0.00  0.00     0.275 HD
HETATM   11  H           1     -20.577  -5.575 -11.378  0.00  0.00     0.274 HD
HETATM   12  H           1     -19.336  -4.413 -11.233  0.00  0.00     0.274 HD
HETATM   13  N           1     -20.214  -4.781 -10.804  0.00  0.00    -0.079 N 
ENDROOT
BRANCH   1  14
HETATM   14  C           1     -20.370  -5.144  -6.521  0.00  0.00     0.249 C 
HETATM   15  O           1     -19.929  -6.185  -6.948  0.00  0.00    -0.271 OA
HETATM   16  N           1     -20.925  -5.097  -5.270  0.00  0.00    -0.343 N 
HETATM   17  H           1     -21.295  -4.226  -4.913  0.00  0.00     0.163 HD
BRANCH  16  18
HETATM   18  C           1     -20.982  -6.297  -4.458  0.00  0.00     0.209 C 
BRANCH  18  19
HETATM   19  C           1     -22.216  -7.088  -4.816  0.00  0.00     0.198 C 
HETATM   20  O           1     -23.260  -6.495  -5.163  0.00  0.00    -0.646 OA
HETATM   21  O           1     -22.195  -8.337  -4.765  0.00  0.00    -0.646 OA
ENDBRANCH  18  19
BRANCH  18  22
HETATM   22  C           1     -21.036  -5.910  -2.986  0.00  0.00     0.200 C 
BRANCH  22  23
HETATM   23  O           1     -22.357  -5.999  -2.526  0.00  0.00    -0.398 OA
HETATM   24  H           1     -22.401  -6.751  -1.962  0.00  0.00     0.209 HD
ENDBRANCH  22  23
ENDBRANCH  18  22
ENDBRANCH  16  18
ENDBRANCH   1  14
TORSDOF 5
ENDMDL
MODEL 8
REMARK VINA RESULT:      -5.3     21.911     23.146
REMARK  5 active torsions:
REMARK  status: ('A' for Active; 'I' for Inactive)
REMARK    1  A    between atoms: C_2  and  C_24 
REMARK    2  A    between atoms: C_5  and  C_6 
REMARK    3  A    between atoms: C_6  and  C_20 
REMARK    4  A    between atoms: C_6  and  N_23 
REMARK    5  A    between atoms: O_18  and  C_20 
REMARK       I    between atoms: N_23  and  C_24 
ROOT
HETATM    1  C           1     -15.822 -16.105 -16.809  0.00  0.00     0.274 C 
HETATM    2  C           1     -17.976 -15.887 -13.991  0.00  0.00     0.027 C 
HETATM    3  C           1     -17.560 -15.194 -15.281  0.00  0.00     0.004 C 
HETATM    4  C           1     -16.848 -16.794 -13.515  0.00  0.00     0.229 C 
HETATM    5  H           1     -13.912 -16.220 -15.958  0.00  0.00     0.275 HD
HETATM    6  H           1     -15.105 -15.593 -14.909  0.00  0.00     0.275 HD
HETATM    7  C           1     -17.267 -16.240 -16.348  0.00  0.00     0.042 C 
HETATM    8  N           1     -14.903 -16.312 -15.640  0.00  0.00    -0.067 N 
HETATM    9  H           1     -15.331 -15.501 -14.154  0.00  0.00     0.274 HD
HETATM   10  H           1     -15.055 -17.266 -15.242  0.00  0.00     0.275 HD
HETATM   11  H           1     -15.818 -15.257 -12.536  0.00  0.00     0.274 HD
HETATM   12  H           1     -14.844 -16.598 -12.941  0.00  0.00     0.274 HD
HETATM   13  N           1     -15.617 -15.976 -13.267  0.00  0.00    -0.079 N 
ENDROOT
BRANCH   1  14
HETATM   14  C           1     -15.602 -14.727 -17.383  0.00  0.00     0.249 C 
HETATM   15  O           1     -14.660 -14.065 -17.018  0.00  0.00    -0.271 OA
HETATM   16  N           1     -16.469 -14.229 -18.317  0.00  0.00    -0.343 N 
HETATM   17  H           1     -17.259 -14.784 -18.623  0.00  0.00     0.163 HD
BRANCH  16  18
HETATM   18  C           1     -16.257 -12.905 -18.868  0.00  0.00     0.209 C 
BRANCH  18  19
HETATM   19  C           1     -16.923 -11.879 -17.984  0.00  0.00     0.198 C 
HETATM   20  O           1     -16.273 -10.894 -17.572  0.00  0.00    -0.646 OA
HETATM   21  O           1     -18.124 -12.015 -17.664  0.00  0.00    -0.646 OA
ENDBRANCH  18  19
BRANCH  18  22
HETATM   22  C           1     -16.857 -12.835 -20.267  0.00  0.00     0.200 C 
BRANCH  22  23
HETATM   23  O           1     -17.408 -11.563 -20.478  0.00  0.00    -0.398 OA
HETATM   24  H           1     -17.897 -11.345 -19.704  0.00  0.00     0.209 HD
ENDBRANCH  22  23
ENDBRANCH  18  22
ENDBRANCH  16  18
ENDBRANCH   1  14
TORSDOF 5
ENDMDL
MODEL 9
REMARK VINA RESULT:      -5.2     16.434     18.579
REMARK  5 active torsions:
REMARK  status: ('A' for Active; 'I' for Inactive)
REMARK    1  A    between atoms: C_2  and  C_24 
REMARK    2  A    between atoms: C_5  and  C_6 
REMARK    3  A    between atoms: C_6  and  C_20 
REMARK    4  A    between atoms: C_6  and  N_23 
REMARK    5  A    between atoms: O_18  and  C_20 
REMARK       I    between atoms: N_23  and  C_24 
ROOT
HETATM    1  C           1     -21.910  -6.604  -5.644  0.00  0.00     0.274 C 
HETATM    2  C           1     -19.604  -4.643  -7.507  0.00  0.00     0.027 C 
HETATM    3  C           1     -19.783  -5.456  -6.232  0.00  0.00     0.004 C 
HETATM    4  C           1     -20.965  -4.172  -8.004  0.00  0.00     0.229 C 
HETATM    5  H           1     -23.527  -5.307  -5.345  0.00  0.00     0.275 HD
HETATM    6  H           1     -22.066  -4.518  -5.747  0.00  0.00     0.275 HD
HETATM    7  C           1     -20.664  -6.665  -6.519  0.00  0.00     0.042 C 
HETATM    8  N           1     -22.672  -5.347  -5.945  0.00  0.00    -0.067 N 
HETATM    9  H           1     -21.737  -3.877  -6.081  0.00  0.00     0.274 HD
HETATM   10  H           1     -22.951  -5.341  -6.952  0.00  0.00     0.275 HD
HETATM   11  H           1     -21.008  -2.490  -6.757  0.00  0.00     0.274 HD
HETATM   12  H           1     -22.546  -2.995  -7.296  0.00  0.00     0.274 HD
HETATM   13  N           1     -21.614  -3.319  -6.955  0.00  0.00    -0.079 N 
ENDROOT
BRANCH   1  14
HETATM   14  C           1     -21.506  -6.611  -4.190  0.00  0.00     0.249 C 
HETATM   15  O           1     -21.411  -5.570  -3.585  0.00  0.00    -0.271 OA
HETATM   16  N           1     -21.247  -7.797  -3.558  0.00  0.00    -0.343 N 
HETATM   17  H           1     -21.326  -8.670  -4.065  0.00  0.00     0.163 HD
BRANCH  16  18
HETATM   18  C           1     -20.860  -7.803  -2.161  0.00  0.00     0.209 C 
BRANCH  18  19
HETATM   19  C           1     -19.940  -8.971  -1.899  0.00  0.00     0.198 C 
HETATM   20  O           1     -18.848  -9.053  -2.501  0.00  0.00    -0.646 OA
HETATM   21  O           1     -20.271  -9.855  -1.080  0.00  0.00    -0.646 OA
ENDBRANCH  18  19
BRANCH  18  22
HETATM   22  C           1     -22.103  -7.931  -1.290  0.00  0.00     0.200 C 
BRANCH  22  23
HETATM   23  O           1     -22.582  -6.654  -0.967  0.00  0.00    -0.398 OA
HETATM   24  H           1     -21.976  -6.282  -0.349  0.00  0.00     0.209 HD
ENDBRANCH  22  23
ENDBRANCH  18  22
ENDBRANCH  16  18
ENDBRANCH   1  14
TORSDOF 5
ENDMDL
