MODEL 1
REMARK VINA RESULT:      -5.8      0.000      0.000
REMARK  7 active torsions:
REMARK  status: ('A' for Active; 'I' for Inactive)
REMARK    1  A    between atoms: C_4  and  C_5 
REMARK    2  A    between atoms: C_4  and  N_15 
REMARK       I    between atoms: C_5  and  N_6 
REMARK    3  A    between atoms: N_6  and  C_10 
REMARK    4  A    between atoms: C_9  and  C_10 
REMARK    5  A    between atoms: C_10  and  C_11 
REMARK    6  A    between atoms: C_11  and  C_12 
REMARK    7  A    between atoms: C_12  and  S_13 
ROOT
HETATM    1  H           1     -22.277  -5.737  -8.982  0.00  0.00     0.163 HD
HETATM    2  C           1     -21.552  -4.381  -7.597  0.00  0.00     0.248 C 
HETATM    3  N           1     -22.181  -4.756  -8.753  0.00  0.00    -0.345 N 
HETATM    4  O           1     -21.439  -3.209  -7.323  0.00  0.00    -0.271 OA
ENDROOT
BRANCH   3   5
HETATM    5  C           1     -22.712  -3.747  -9.650  0.00  0.00     0.186 C 
BRANCH   5   6
HETATM    6  C           1     -24.219  -3.829  -9.662  0.00  0.00     0.196 C 
HETATM    7  O           1     -24.784  -4.919  -9.897  0.00  0.00    -0.646 OA
HETATM    8  O           1     -24.901  -2.806  -9.438  0.00  0.00    -0.646 OA
ENDBRANCH   5   6
BRANCH   5   9
HETATM    9  C           1     -22.178  -3.988 -11.056  0.00  0.00     0.046 C 
BRANCH   9  10
HETATM   10  C           1     -22.479  -2.776 -11.928  0.00  0.00     0.076 C 
BRANCH  10  11
HETATM   11  S           1     -23.805  -3.186 -13.098  0.00  0.00    -0.173 SA
HETATM   12  C           1     -22.927  -2.647 -14.592  0.00  0.00     0.089 C 
ENDBRANCH  10  11
ENDBRANCH   9  10
ENDBRANCH   5   9
ENDBRANCH   3   5
BRANCH   2  13
HETATM   13  C           1     -21.000  -5.430  -6.664  0.00  0.00     0.270 C 
HETATM   14  C           1     -20.329  -4.752  -5.476  0.00  0.00     0.050 C 
BRANCH  13  15
HETATM   15  N           1     -19.994  -6.270  -7.395  0.00  0.00    -0.067 N 
HETATM   16  H           1     -20.001  -6.016  -8.408  0.00  0.00     0.275 HD
HETATM   17  H           1     -19.042  -6.097  -6.999  0.00  0.00     0.275 HD
HETATM   18  H           1     -20.239  -7.280  -7.286  0.00  0.00     0.275 HD
ENDBRANCH  13  15
ENDBRANCH   2  13
TORSDOF 7
ENDMDL
MODEL 2
REMARK VINA RESULT:      -5.6     12.454     14.236
REMARK  7 active torsions:
REMARK  status: ('A' for Active; 'I' for Inactive)
REMARK    1  A    between atoms: C_4  and  C_5 
REMARK    2  A    between atoms: C_4  and  N_15 
REMARK       I    between atoms: C_5  and  N_6 
REMARK    3  A    between atoms: N_6  and  C_10 
REMARK    4  A    between atoms: C_9  and  C_10 
REMARK    5  A    between atoms: C_10  and  C_11 
REMARK    6  A    between atoms: C_11  and  C_12 
REMARK    7  A    between atoms: C_12  and  S_13 
ROOT
HETATM    1  H           1     -33.920  -1.309 -13.754  0.00  0.00     0.163 HD
HETATM    2  C           1     -35.915  -0.761 -13.714  0.00  0.00     0.248 C 
HETATM    3  N           1     -34.816  -1.471 -13.312  0.00  0.00    -0.345 N 
HETATM    4  O           1     -36.985  -0.954 -13.186  0.00  0.00    -0.271 OA
ENDROOT
BRANCH   3   5
HETATM    5  C           1     -34.936  -2.454 -12.253  0.00  0.00     0.186 C 
BRANCH   5   6
HETATM    6  C           1     -34.491  -1.842 -10.947  0.00  0.00     0.196 C 
HETATM    7  O           1     -35.333  -1.325 -10.180  0.00  0.00    -0.646 OA
HETATM    8  O           1     -33.282  -1.851 -10.633  0.00  0.00    -0.646 OA
ENDBRANCH   5   6
BRANCH   5   9
HETATM    9  C           1     -34.058  -3.656 -12.575  0.00  0.00     0.046 C 
BRANCH   9  10
HETATM   10  C           1     -34.759  -4.932 -12.126  0.00  0.00     0.076 C 
BRANCH  10  11
HETATM   11  S           1     -34.012  -5.520 -10.579  0.00  0.00    -0.173 SA
HETATM   12  C           1     -34.747  -7.179 -10.620  0.00  0.00     0.089 C 
ENDBRANCH  10  11
ENDBRANCH   9  10
ENDBRANCH   5   9
ENDBRANCH   3   5
BRANCH   2  13
HETATM   13  C           1     -35.791   0.262 -14.816  0.00  0.00     0.270 C 
HETATM   14  C           1     -34.898   1.405 -14.351  0.00  0.00     0.050 C 
BRANCH  13  15
HETATM   15  N           1     -37.151   0.797 -15.157  0.00  0.00    -0.067 N 
HETATM   16  H           1     -37.671   0.089 -15.722  0.00  0.00     0.275 HD
HETATM   17  H           1     -37.678   0.995 -14.277  0.00  0.00     0.275 HD
HETATM   18  H           1     -37.049   1.678 -15.709  0.00  0.00     0.275 HD
ENDBRANCH  13  15
ENDBRANCH   2  13
TORSDOF 7
ENDMDL
MODEL 3
REMARK VINA RESULT:      -5.5     12.919     15.047
REMARK  7 active torsions:
REMARK  status: ('A' for Active; 'I' for Inactive)
REMARK    1  A    between atoms: C_4  and  C_5 
REMARK    2  A    between atoms: C_4  and  N_15 
REMARK       I    between atoms: C_5  and  N_6 
REMARK    3  A    between atoms: N_6  and  C_10 
REMARK    4  A    between atoms: C_9  and  C_10 
REMARK    5  A    between atoms: C_10  and  C_11 
REMARK    6  A    between atoms: C_11  and  C_12 
REMARK    7  A    between atoms: C_12  and  S_13 
ROOT
HETATM    1  H           1     -34.997  -0.063 -12.359  0.00  0.00     0.163 HD
HETATM    2  C           1     -36.633  -0.323 -13.600  0.00  0.00     0.248 C 
HETATM    3  N           1     -35.947  -0.407 -12.418  0.00  0.00    -0.345 N 
HETATM    4  O           1     -37.767  -0.732 -13.671  0.00  0.00    -0.271 OA
ENDROOT
BRANCH   3   5
HETATM    5  C           1     -36.583  -0.986 -11.251  0.00  0.00     0.186 C 
BRANCH   5   6
HETATM    6  C           1     -36.989   0.114 -10.301  0.00  0.00     0.196 C 
HETATM    7  O           1     -38.041   0.759 -10.505  0.00  0.00    -0.646 OA
HETATM    8  O           1     -36.274   0.381  -9.312  0.00  0.00    -0.646 OA
ENDBRANCH   5   6
BRANCH   5   9
HETATM    9  C           1     -35.606  -1.924 -10.555  0.00  0.00     0.046 C 
BRANCH   9  10
HETATM   10  C           1     -35.130  -2.985 -11.540  0.00  0.00     0.076 C 
BRANCH  10  11
HETATM   11  S           1     -33.351  -3.265 -11.314  0.00  0.00    -0.173 SA
HETATM   12  C           1     -33.440  -5.077 -11.260  0.00  0.00     0.089 C 
ENDBRANCH  10  11
ENDBRANCH   9  10
ENDBRANCH   5   9
ENDBRANCH   3   5
BRANCH   2  13
HETATM   13  C           1     -35.971   0.281 -14.814  0.00  0.00     0.270 C 
HETATM   14  C           1     -34.854   1.218 -14.372  0.00  0.00     0.050 C 
BRANCH  13  15
HETATM   15  N           1     -36.987   1.051 -15.606  0.00  0.00    -0.067 N 
HETATM   16  H           1     -37.044   0.659 -16.572  0.00  0.00     0.275 HD
HETATM   17  H           1     -37.920   0.975 -15.143  0.00  0.00     0.275 HD
HETATM   18  H           1     -36.701   2.056 -15.652  0.00  0.00     0.275 HD
ENDBRANCH  13  15
ENDBRANCH   2  13
TORSDOF 7
ENDMDL
MODEL 4
REMARK VINA RESULT:      -5.4      2.890      5.695
REMARK  7 active torsions:
REMARK  status: ('A' for Active; 'I' for Inactive)
REMARK    1  A    between atoms: C_4  and  C_5 
REMARK    2  A    between atoms: C_4  and  N_15 
REMARK       I    between atoms: C_5  and  N_6 
REMARK    3  A    between atoms: N_6  and  C_10 
REMARK    4  A    between atoms: C_9  and  C_10 
REMARK    5  A    between atoms: C_10  and  C_11 
REMARK    6  A    between atoms: C_11  and  C_12 
REMARK    7  A    between atoms: C_12  and  S_13 
ROOT
HETATM    1  H           1     -22.384  -2.682 -11.509  0.00  0.00     0.163 HD
HETATM    2  C           1     -23.623  -3.206 -13.082  0.00  0.00     0.248 C 
HETATM    3  N           1     -23.141  -3.286 -11.803  0.00  0.00    -0.345 N 
HETATM    4  O           1     -24.527  -3.926 -13.433  0.00  0.00    -0.271 OA
ENDROOT
BRANCH   3   5
HETATM    5  C           1     -23.716  -4.236 -10.870  0.00  0.00     0.186 C 
BRANCH   5   6
HETATM    6  C           1     -24.625  -3.509  -9.909  0.00  0.00     0.196 C 
HETATM    7  O           1     -24.217  -3.216  -8.764  0.00  0.00    -0.646 OA
HETATM    8  O           1     -25.784  -3.200 -10.259  0.00  0.00    -0.646 OA
ENDBRANCH   5   6
BRANCH   5   9
HETATM    9  C           1     -22.600  -4.922 -10.094  0.00  0.00     0.046 C 
BRANCH   9  10
HETATM   10  C           1     -21.276  -4.228 -10.387  0.00  0.00     0.076 C 
BRANCH  10  11
HETATM   11  S           1     -20.219  -4.293  -8.913  0.00  0.00    -0.173 SA
HETATM   12  C           1     -21.387  -5.211  -7.870  0.00  0.00     0.089 C 
ENDBRANCH  10  11
ENDBRANCH   9  10
ENDBRANCH   5   9
ENDBRANCH   3   5
BRANCH   2  13
HETATM   13  C           1     -23.026  -2.217 -14.053  0.00  0.00     0.270 C 
HETATM   14  C           1     -24.130  -1.346 -14.637  0.00  0.00     0.050 C 
BRANCH  13  15
HETATM   15  N           1     -22.337  -2.959 -15.161  0.00  0.00    -0.067 N 
HETATM   16  H           1     -22.998  -3.083 -15.960  0.00  0.00     0.275 HD
HETATM   17  H           1     -21.503  -2.415 -15.479  0.00  0.00     0.275 HD
HETATM   18  H           1     -22.030  -3.896 -14.813  0.00  0.00     0.275 HD
ENDBRANCH  13  15
ENDBRANCH   2  13
TORSDOF 7
ENDMDL
MODEL 5
REMARK VINA RESULT:      -5.0      3.380      4.741
REMARK  7 active torsions:
REMARK  status: ('A' for Active; 'I' for Inactive)
REMARK    1  A    between atoms: C_4  and  C_5 
REMARK    2  A    between atoms: C_4  and  N_15 
REMARK       I    between atoms: C_5  and  N_6 
REMARK    3  A    between atoms: N_6  and  C_10 
REMARK    4  A    between atoms: C_9  and  C_10 
REMARK    5  A    between atoms: C_10  and  C_11 
REMARK    6  A    between atoms: C_11  and  C_12 
REMARK    7  A    between atoms: C_12  and  S_13 
ROOT
HETATM    1  H           1     -20.423  -4.636  -4.741  0.00  0.00     0.163 HD
HETATM    2  C           1     -21.502  -6.351  -4.321  0.00  0.00     0.248 C 
HETATM    3  N           1     -20.987  -5.378  -5.134  0.00  0.00    -0.345 N 
HETATM    4  O           1     -22.175  -7.238  -4.791  0.00  0.00    -0.271 OA
ENDROOT
BRANCH   3   5
HETATM    5  C           1     -21.249  -5.411  -6.560  0.00  0.00     0.186 C 
BRANCH   5   6
HETATM    6  C           1     -19.964  -5.696  -7.301  0.00  0.00     0.196 C 
HETATM    7  O           1     -19.396  -6.801  -7.164  0.00  0.00    -0.646 OA
HETATM    8  O           1     -19.470  -4.826  -8.049  0.00  0.00    -0.646 OA
ENDBRANCH   5   6
BRANCH   5   9
HETATM    9  C           1     -21.805  -4.065  -7.005  0.00  0.00     0.046 C 
BRANCH   9  10
HETATM   10  C           1     -23.106  -4.280  -7.768  0.00  0.00     0.076 C 
BRANCH  10  11
HETATM   11  S           1     -22.866  -3.831  -9.511  0.00  0.00    -0.173 SA
HETATM   12  C           1     -24.605  -3.448  -9.860  0.00  0.00     0.089 C 
ENDBRANCH  10  11
ENDBRANCH   9  10
ENDBRANCH   5   9
ENDBRANCH   3   5
BRANCH   2  13
HETATM   13  C           1     -21.229  -6.317  -2.838  0.00  0.00     0.270 C 
HETATM   14  C           1     -20.822  -7.706  -2.363  0.00  0.00     0.050 C 
BRANCH  13  15
HETATM   15  N           1     -22.469  -5.884  -2.112  0.00  0.00    -0.067 N 
HETATM   16  H           1     -22.377  -4.880  -1.835  0.00  0.00     0.275 HD
HETATM   17  H           1     -23.298  -5.997  -2.738  0.00  0.00     0.275 HD
HETATM   18  H           1     -22.594  -6.472  -1.257  0.00  0.00     0.275 HD
ENDBRANCH  13  15
ENDBRANCH   2  13
TORSDOF 7
ENDMDL
MODEL 6
REMARK VINA RESULT:      -4.7      3.105      5.744
REMARK  7 active torsions:
REMARK  status: ('A' for Active; 'I' for Inactive)
REMARK    1  A    between atoms: C_4  and  C_5 
REMARK    2  A    between atoms: C_4  and  N_15 
REMARK       I    between atoms: C_5  and  N_6 
REMARK    3  A    between atoms: N_6  and  C_10 
REMARK    4  A    between atoms: C_9  and  C_10 
REMARK    5  A    between atoms: C_10  and  C_11 
REMARK    6  A    between atoms: C_11  and  C_12 
REMARK    7  A    between atoms: C_12  and  S_13 
ROOT
HETATM    1  H           1     -22.991  -4.693  -9.160  0.00  0.00     0.163 HD
HETATM    2  C           1     -22.824  -3.437 -10.796  0.00  0.00     0.248 C 
HETATM    3  N           1     -22.394  -4.033  -9.641  0.00  0.00    -0.345 N 
HETATM    4  O           1     -22.111  -2.649 -11.372  0.00  0.00    -0.271 OA
ENDROOT
BRANCH   3   5
HETATM    5  C           1     -21.082  -3.719  -9.110  0.00  0.00     0.186 C 
BRANCH   5   6
HETATM    6  C           1     -20.097  -4.777  -9.544  0.00  0.00     0.196 C 
HETATM    7  O           1     -19.732  -4.838 -10.738  0.00  0.00    -0.646 OA
HETATM    8  O           1     -19.648  -5.592  -8.710  0.00  0.00    -0.646 OA
ENDBRANCH   5   6
BRANCH   5   9
HETATM    9  C           1     -21.148  -3.679  -7.589  0.00  0.00     0.046 C 
BRANCH   9  10
HETATM   10  C           1     -22.355  -4.476  -7.112  0.00  0.00     0.076 C 
BRANCH  10  11
HETATM   11  S           1     -21.819  -5.725  -5.909  0.00  0.00    -0.173 SA
HETATM   12  C           1     -20.315  -4.859  -5.379  0.00  0.00     0.089 C 
ENDBRANCH  10  11
ENDBRANCH   9  10
ENDBRANCH   5   9
ENDBRANCH   3   5
BRANCH   2  13
HETATM   13  C           1     -24.189  -3.764 -11.350  0.00  0.00     0.270 C 
HETATM   14  C           1     -24.453  -2.915 -12.587  0.00  0.00     0.050 C 
BRANCH  13  15
HETATM   15  N           1     -25.233  -3.471 -10.312  0.00  0.00    -0.067 N 
HETATM   16  H           1     -25.536  -2.475 -10.396  0.00  0.00     0.275 HD
HETATM   17  H           1     -26.055  -4.099 -10.458  0.00  0.00     0.275 HD
HETATM   18  H           1     -24.832  -3.636  -9.361  0.00  0.00     0.275 HD
ENDBRANCH  13  15
ENDBRANCH   2  13
TORSDOF 7
ENDMDL
MODEL 7
REMARK VINA RESULT:      -4.7      3.866      6.890
REMARK  7 active torsions:
REMARK  status: ('A' for Active; 'I' for Inactive)
REMARK    1  A    between atoms: C_4  and  C_5 
REMARK    2  A    between atoms: C_4  and  N_15 
REMARK       I    between atoms: C_5  and  N_6 
REMARK    3  A    between atoms: N_6  and  C_10 
REMARK    4  A    between atoms: C_9  and  C_10 
REMARK    5  A    between atoms: C_10  and  C_11 
REMARK    6  A    between atoms: C_11  and  C_12 
REMARK    7  A    between atoms: C_12  and  S_13 
ROOT
HETATM    1  H           1     -22.893  -6.100  -7.353  0.00  0.00     0.163 HD
HETATM    2  C           1     -22.415  -4.177  -7.950  0.00  0.00     0.248 C 
HETATM    3  N           1     -22.342  -5.279  -7.141  0.00  0.00    -0.345 N 
HETATM    4  O           1     -21.757  -3.196  -7.696  0.00  0.00    -0.271 OA
ENDROOT
BRANCH   3   5
HETATM    5  C           1     -21.473  -5.268  -5.980  0.00  0.00     0.186 C 
BRANCH   5   6
HETATM    6  C           1     -20.058  -5.572  -6.408  0.00  0.00     0.196 C 
HETATM    7  O           1     -19.757  -6.721  -6.798  0.00  0.00    -0.646 OA
HETATM    8  O           1     -19.188  -4.676  -6.372  0.00  0.00    -0.646 OA
ENDBRANCH   5   6
BRANCH   5   9
HETATM    9  C           1     -21.941  -6.324  -4.987  0.00  0.00     0.046 C 
BRANCH   9  10
HETATM   10  C           1     -21.247  -6.106  -3.648  0.00  0.00     0.076 C 
BRANCH  10  11
HETATM   11  S           1     -21.453  -7.583  -2.613  0.00  0.00    -0.173 SA
HETATM   12  C           1     -22.275  -6.744  -1.229  0.00  0.00     0.089 C 
ENDBRANCH  10  11
ENDBRANCH   9  10
ENDBRANCH   5   9
ENDBRANCH   3   5
BRANCH   2  13
HETATM   13  C           1     -23.319  -4.188  -9.158  0.00  0.00     0.270 C 
HETATM   14  C           1     -22.556  -3.665 -10.368  0.00  0.00     0.050 C 
BRANCH  13  15
HETATM   15  N           1     -24.508  -3.310  -8.900  0.00  0.00    -0.067 N 
HETATM   16  H           1     -24.377  -2.803  -7.996  0.00  0.00     0.275 HD
HETATM   17  H           1     -24.605  -2.617  -9.677  0.00  0.00     0.275 HD
HETATM   18  H           1     -25.370  -3.899  -8.849  0.00  0.00     0.275 HD
ENDBRANCH  13  15
ENDBRANCH   2  13
TORSDOF 7
ENDMDL
MODEL 8
REMARK VINA RESULT:      -4.6      4.770      7.587
REMARK  7 active torsions:
REMARK  status: ('A' for Active; 'I' for Inactive)
REMARK    1  A    between atoms: C_4  and  C_5 
REMARK    2  A    between atoms: C_4  and  N_15 
REMARK       I    between atoms: C_5  and  N_6 
REMARK    3  A    between atoms: N_6  and  C_10 
REMARK    4  A    between atoms: C_9  and  C_10 
REMARK    5  A    between atoms: C_10  and  C_11 
REMARK    6  A    between atoms: C_11  and  C_12 
REMARK    7  A    between atoms: C_12  and  S_13 
ROOT
HETATM    1  H           1     -21.636  -7.162  -6.911  0.00  0.00     0.163 HD
HETATM    2  C           1     -21.021  -5.197  -6.702  0.00  0.00     0.248 C 
HETATM    3  N           1     -21.197  -6.491  -6.294  0.00  0.00    -0.345 N 
HETATM    4  O           1     -20.496  -4.396  -5.965  0.00  0.00    -0.271 OA
ENDROOT
BRANCH   3   5
HETATM    5  C           1     -20.752  -6.901  -4.976  0.00  0.00     0.186 C 
BRANCH   5   6
HETATM    6  C           1     -20.241  -8.320  -5.037  0.00  0.00     0.196 C 
HETATM    7  O           1     -20.772  -9.142  -5.815  0.00  0.00    -0.646 OA
HETATM    8  O           1     -19.288  -8.672  -4.310  0.00  0.00    -0.646 OA
ENDBRANCH   5   6
BRANCH   5   9
HETATM    9  C           1     -21.919  -6.823  -4.001  0.00  0.00     0.046 C 
BRANCH   9  10
HETATM   10  C           1     -21.485  -6.076  -2.746  0.00  0.00     0.076 C 
BRANCH  10  11
HETATM   11  S           1     -22.185  -6.890  -1.283  0.00  0.00    -0.173 SA
HETATM   12  C           1     -20.880  -8.139  -1.105  0.00  0.00     0.089 C 
ENDBRANCH  10  11
ENDBRANCH   9  10
ENDBRANCH   5   9
ENDBRANCH   3   5
BRANCH   2  13
HETATM   13  C           1     -21.483  -4.769  -8.074  0.00  0.00     0.270 C 
HETATM   14  C           1     -20.276  -4.402  -8.926  0.00  0.00     0.050 C 
BRANCH  13  15
HETATM   15  N           1     -22.386  -3.577  -7.948  0.00  0.00    -0.067 N 
HETATM   16  H           1     -23.292  -3.775  -8.430  0.00  0.00     0.275 HD
HETATM   17  H           1     -22.566  -3.381  -6.937  0.00  0.00     0.275 HD
HETATM   18  H           1     -21.930  -2.747  -8.389  0.00  0.00     0.275 HD
ENDBRANCH  13  15
ENDBRANCH   2  13
TORSDOF 7
ENDMDL
MODEL 9
REMARK VINA RESULT:      -4.6      3.387      6.397
REMARK  7 active torsions:
REMARK  status: ('A' for Active; 'I' for Inactive)
REMARK    1  A    between atoms: C_4  and  C_5 
REMARK    2  A    between atoms: C_4  and  N_15 
REMARK       I    between atoms: C_5  and  N_6 
REMARK    3  A    between atoms: N_6  and  C_10 
REMARK    4  A    between atoms: C_9  and  C_10 
REMARK    5  A    between atoms: C_10  and  C_11 
REMARK    6  A    between atoms: C_11  and  C_12 
REMARK    7  A    between atoms: C_12  and  S_13 
ROOT
HETATM    1  H           1     -21.029  -5.451  -9.216  0.00  0.00     0.163 HD
HETATM    2  C           1     -22.874  -4.552  -8.947  0.00  0.00     0.248 C 
HETATM    3  N           1     -21.668  -5.057  -8.538  0.00  0.00    -0.345 N 
HETATM    4  O           1     -23.637  -4.081  -8.137  0.00  0.00    -0.271 OA
ENDROOT
BRANCH   3   5
HETATM    5  C           1     -21.308  -5.025  -7.134  0.00  0.00     0.186 C 
BRANCH   5   6
HETATM    6  C           1     -19.891  -4.523  -6.990  0.00  0.00     0.196 C 
HETATM    7  O           1     -19.280  -4.084  -7.988  0.00  0.00    -0.646 OA
HETATM    8  O           1     -19.331  -4.548  -5.874  0.00  0.00    -0.646 OA
ENDBRANCH   5   6
BRANCH   5   9
HETATM    9  C           1     -21.412  -6.428  -6.552  0.00  0.00     0.046 C 
BRANCH   9  10
HETATM   10  C           1     -22.168  -6.376  -5.230  0.00  0.00     0.076 C 
BRANCH  10  11
HETATM   11  S           1     -21.175  -7.170  -3.935  0.00  0.00    -0.173 SA
HETATM   12  C           1     -21.935  -6.295  -2.537  0.00  0.00     0.089 C 
ENDBRANCH  10  11
ENDBRANCH   9  10
ENDBRANCH   5   9
ENDBRANCH   3   5
BRANCH   2  13
HETATM   13  C           1     -23.249  -4.585 -10.408  0.00  0.00     0.270 C 
HETATM   14  C           1     -22.155  -3.915 -11.229  0.00  0.00     0.050 C 
BRANCH  13  15
HETATM   15  N           1     -24.544  -3.853 -10.608  0.00  0.00    -0.067 N 
HETATM   16  H           1     -24.479  -2.907 -10.169  0.00  0.00     0.275 HD
HETATM   17  H           1     -24.732  -3.751 -11.630  0.00  0.00     0.275 HD
HETATM   18  H           1     -25.320  -4.392 -10.162  0.00  0.00     0.275 HD
ENDBRANCH  13  15
ENDBRANCH   2  13
TORSDOF 7
ENDMDL
