MODEL 1
REMARK VINA RESULT:      -6.9      0.000      0.000
REMARK  9 active torsions:
REMARK  status: ('A' for Active; 'I' for Inactive)
REMARK    1  A    between atoms: C_3  and  C_21 
REMARK    2  A    between atoms: C_3  and  C_4 
REMARK    3  A    between atoms: C_3  and  N_19 
REMARK    4  A    between atoms: C_5  and  C_22 
REMARK    5  A    between atoms: C_5  and  C_24 
REMARK    6  A    between atoms: C_7  and  C_8 
REMARK    7  A    between atoms: C_7  and  C_21 
REMARK       I    between atoms: C_8  and  N_9 
REMARK       I    between atoms: C_10  and  N_19 
REMARK    8  A    between atoms: C_10  and  C_22 
REMARK    9  A    between atoms: N_13  and  C_22 
ROOT
HETATM    1  H           1     -22.303  -5.818  -9.236  0.00  0.00     0.163 HD
HETATM    2  C           1     -21.680  -4.569  -7.708  0.00  0.00     0.249 C 
HETATM    3  O           1     -21.611  -3.423  -7.332  0.00  0.00    -0.271 OA
HETATM    4  N           1     -22.245  -4.858  -8.921  0.00  0.00    -0.345 N 
ENDROOT
BRANCH   4   5
HETATM    5  C           1     -22.761  -3.789  -9.754  0.00  0.00     0.186 C 
BRANCH   5   6
HETATM    6  C           1     -22.266  -3.977 -11.183  0.00  0.00     0.045 C 
BRANCH   6   7
HETATM    7  C           1     -22.408  -2.666 -11.947  0.00  0.00     0.105 C 
BRANCH   7   8
HETATM    8  C           1     -23.210  -2.901 -13.203  0.00  0.00     0.215 C 
HETATM    9  O           1     -24.414  -2.979 -13.146  0.00  0.00    -0.274 OA
HETATM   10  N           1     -22.573  -3.026 -14.408  0.00  0.00    -0.370 N 
HETATM   11  H           1     -21.564  -2.961 -14.457  0.00  0.00     0.159 HD
HETATM   12  H           1     -23.111  -3.183 -15.251  0.00  0.00     0.159 HD
ENDBRANCH   7   8
ENDBRANCH   6   7
ENDBRANCH   5   6
BRANCH   5  13
HETATM   13  C           1     -24.269  -3.820  -9.735  0.00  0.00     0.196 C 
HETATM   14  O           1     -24.913  -2.770  -9.524  0.00  0.00    -0.646 OA
HETATM   15  O           1     -24.875  -4.896  -9.931  0.00  0.00    -0.646 OA
ENDBRANCH   5  13
ENDBRANCH   4   5
BRANCH   2  16
HETATM   16  C           1     -21.142  -5.681  -6.842  0.00  0.00     0.284 C 
BRANCH  16  17
HETATM   17  C           1     -20.869  -5.147  -5.442  0.00  0.00     0.155 C 
BRANCH  17  18
HETATM   18  C           1     -21.147  -6.229  -4.427  0.00  0.00     0.175 C 
HETATM   19  O           1     -20.613  -7.354  -4.551  0.00  0.00    -0.648 OA
HETATM   20  O           1     -21.908  -6.002  -3.462  0.00  0.00    -0.648 OA
ENDBRANCH  17  18
ENDBRANCH  16  17
BRANCH  16  21
HETATM   21  N           1     -19.868  -6.205  -7.434  0.00  0.00    -0.066 N 
HETATM   22  H           1     -19.084  -5.553  -7.208  0.00  0.00     0.275 HD
HETATM   23  H           1     -19.663  -7.149  -7.036  0.00  0.00     0.275 HD
HETATM   24  H           1     -19.972  -6.279  -8.472  0.00  0.00     0.275 HD
ENDBRANCH  16  21
ENDBRANCH   2  16
TORSDOF 9
ENDMDL
MODEL 2
REMARK VINA RESULT:      -6.5     12.195     13.867
REMARK  9 active torsions:
REMARK  status: ('A' for Active; 'I' for Inactive)
REMARK    1  A    between atoms: C_3  and  C_21 
REMARK    2  A    between atoms: C_3  and  C_4 
REMARK    3  A    between atoms: C_3  and  N_19 
REMARK    4  A    between atoms: C_5  and  C_22 
REMARK    5  A    between atoms: C_5  and  C_24 
REMARK    6  A    between atoms: C_7  and  C_8 
REMARK    7  A    between atoms: C_7  and  C_21 
REMARK       I    between atoms: C_8  and  N_9 
REMARK       I    between atoms: C_10  and  N_19 
REMARK    8  A    between atoms: C_10  and  C_22 
REMARK    9  A    between atoms: N_13  and  C_22 
ROOT
HETATM    1  H           1     -35.556  -2.153 -13.427  0.00  0.00     0.163 HD
HETATM    2  C           1     -34.249  -2.403 -11.841  0.00  0.00     0.249 C 
HETATM    3  O           1     -33.630  -1.839 -10.971  0.00  0.00    -0.271 OA
HETATM    4  N           1     -35.036  -1.681 -12.698  0.00  0.00    -0.345 N 
ENDROOT
BRANCH   4   5
HETATM    5  C           1     -35.126  -0.240 -12.561  0.00  0.00     0.186 C 
BRANCH   5   6
HETATM    6  C           1     -35.220   0.395 -13.942  0.00  0.00     0.045 C 
BRANCH   6   7
HETATM    7  C           1     -35.579  -0.672 -14.969  0.00  0.00     0.105 C 
BRANCH   7   8
HETATM    8  C           1     -36.574  -0.107 -15.954  0.00  0.00     0.215 C 
HETATM    9  O           1     -36.918  -0.763 -16.908  0.00  0.00    -0.274 OA
HETATM   10  N           1     -37.085   1.148 -15.765  0.00  0.00    -0.370 N 
HETATM   11  H           1     -36.796   1.698 -14.966  0.00  0.00     0.159 HD
HETATM   12  H           1     -37.752   1.528 -16.425  0.00  0.00     0.159 HD
ENDBRANCH   7   8
ENDBRANCH   6   7
ENDBRANCH   5   6
BRANCH   5  13
HETATM   13  C           1     -36.355   0.113 -11.760  0.00  0.00     0.196 C 
HETATM   14  O           1     -37.489  -0.011 -12.271  0.00  0.00    -0.646 OA
HETATM   15  O           1     -36.240   0.528 -10.587  0.00  0.00    -0.646 OA
ENDBRANCH   5  13
ENDBRANCH   4   5
BRANCH   2  16
HETATM   16  C           1     -34.155  -3.902 -11.984  0.00  0.00     0.284 C 
BRANCH  16  17
HETATM   17  C           1     -34.135  -4.543 -10.603  0.00  0.00     0.155 C 
BRANCH  17  18
HETATM   18  C           1     -34.575  -5.983 -10.710  0.00  0.00     0.175 C 
HETATM   19  O           1     -34.849  -6.471 -11.829  0.00  0.00    -0.648 OA
HETATM   20  O           1     -34.664  -6.689  -9.683  0.00  0.00    -0.648 OA
ENDBRANCH  17  18
ENDBRANCH  16  17
BRANCH  16  21
HETATM   21  N           1     -32.897  -4.256 -12.719  0.00  0.00    -0.066 N 
HETATM   22  H           1     -32.828  -3.682 -13.589  0.00  0.00     0.275 HD
HETATM   23  H           1     -32.072  -4.062 -12.108  0.00  0.00     0.275 HD
HETATM   24  H           1     -32.915  -5.270 -12.970  0.00  0.00     0.275 HD
ENDBRANCH  16  21
ENDBRANCH   2  16
TORSDOF 9
ENDMDL
MODEL 3
REMARK VINA RESULT:      -6.1      1.955      6.980
REMARK  9 active torsions:
REMARK  status: ('A' for Active; 'I' for Inactive)
REMARK    1  A    between atoms: C_3  and  C_21 
REMARK    2  A    between atoms: C_3  and  C_4 
REMARK    3  A    between atoms: C_3  and  N_19 
REMARK    4  A    between atoms: C_5  and  C_22 
REMARK    5  A    between atoms: C_5  and  C_24 
REMARK    6  A    between atoms: C_7  and  C_8 
REMARK    7  A    between atoms: C_7  and  C_21 
REMARK       I    between atoms: C_8  and  N_9 
REMARK       I    between atoms: C_10  and  N_19 
REMARK    8  A    between atoms: C_10  and  C_22 
REMARK    9  A    between atoms: N_13  and  C_22 
ROOT
HETATM    1  H           1     -22.232  -6.103  -9.151  0.00  0.00     0.163 HD
HETATM    2  C           1     -23.179  -4.268  -9.012  0.00  0.00     0.249 C 
HETATM    3  O           1     -23.157  -3.180  -8.489  0.00  0.00    -0.271 OA
HETATM    4  N           1     -22.213  -5.191  -8.713  0.00  0.00    -0.345 N 
ENDROOT
BRANCH   4   5
HETATM    5  C           1     -21.164  -4.863  -7.767  0.00  0.00     0.186 C 
BRANCH   5   6
HETATM    6  C           1     -20.970  -6.026  -6.803  0.00  0.00     0.045 C 
BRANCH   6   7
HETATM    7  C           1     -20.933  -5.500  -5.373  0.00  0.00     0.105 C 
BRANCH   7   8
HETATM    8  C           1     -21.678  -6.451  -4.468  0.00  0.00     0.215 C 
HETATM    9  O           1     -22.135  -6.057  -3.422  0.00  0.00    -0.274 OA
HETATM   10  N           1     -21.836  -7.760  -4.835  0.00  0.00    -0.370 N 
HETATM   11  H           1     -21.454  -8.091  -5.711  0.00  0.00     0.159 HD
HETATM   12  H           1     -22.336  -8.399  -4.228  0.00  0.00     0.159 HD
ENDBRANCH   7   8
ENDBRANCH   6   7
ENDBRANCH   5   6
BRANCH   5  13
HETATM   13  C           1     -19.878  -4.607  -8.513  0.00  0.00     0.196 C 
HETATM   14  O           1     -19.825  -4.793  -9.748  0.00  0.00    -0.646 OA
HETATM   15  O           1     -18.866  -4.209  -7.898  0.00  0.00    -0.646 OA
ENDBRANCH   5  13
ENDBRANCH   4   5
BRANCH   2  16
HETATM   16  C           1     -24.271  -4.610  -9.995  0.00  0.00     0.284 C 
BRANCH  16  17
HETATM   17  C           1     -23.697  -4.637 -11.405  0.00  0.00     0.155 C 
BRANCH  17  18
HETATM   18  C           1     -24.004  -3.332 -12.099  0.00  0.00     0.175 C 
HETATM   19  O           1     -25.073  -3.199 -12.734  0.00  0.00    -0.648 OA
HETATM   20  O           1     -23.192  -2.384 -12.037  0.00  0.00    -0.648 OA
ENDBRANCH  17  18
ENDBRANCH  16  17
BRANCH  16  21
HETATM   21  N           1     -25.356  -3.577  -9.916  0.00  0.00    -0.066 N 
HETATM   22  H           1     -25.855  -3.664  -9.002  0.00  0.00     0.275 HD
HETATM   23  H           1     -24.934  -2.624  -9.995  0.00  0.00     0.275 HD
HETATM   24  H           1     -26.033  -3.724 -10.699  0.00  0.00     0.275 HD
ENDBRANCH  16  21
ENDBRANCH   2  16
TORSDOF 9
ENDMDL
MODEL 4
REMARK VINA RESULT:      -5.8     12.306     13.750
REMARK  9 active torsions:
REMARK  status: ('A' for Active; 'I' for Inactive)
REMARK    1  A    between atoms: C_3  and  C_21 
REMARK    2  A    between atoms: C_3  and  C_4 
REMARK    3  A    between atoms: C_3  and  N_19 
REMARK    4  A    between atoms: C_5  and  C_22 
REMARK    5  A    between atoms: C_5  and  C_24 
REMARK    6  A    between atoms: C_7  and  C_8 
REMARK    7  A    between atoms: C_7  and  C_21 
REMARK       I    between atoms: C_8  and  N_9 
REMARK       I    between atoms: C_10  and  N_19 
REMARK    8  A    between atoms: C_10  and  C_22 
REMARK    9  A    between atoms: N_13  and  C_22 
ROOT
HETATM    1  H           1     -33.587  -2.681 -13.613  0.00  0.00     0.163 HD
HETATM    2  C           1     -34.814  -3.533 -12.180  0.00  0.00     0.249 C 
HETATM    3  O           1     -35.851  -3.420 -11.571  0.00  0.00    -0.271 OA
HETATM    4  N           1     -34.455  -2.587 -13.103  0.00  0.00    -0.345 N 
ENDROOT
BRANCH   4   5
HETATM    5  C           1     -35.320  -1.449 -13.347  0.00  0.00     0.186 C 
BRANCH   5   6
HETATM    6  C           1     -35.015  -0.354 -12.333  0.00  0.00     0.045 C 
BRANCH   6   7
HETATM    7  C           1     -36.321   0.228 -11.805  0.00  0.00     0.105 C 
BRANCH   7   8
HETATM    8  C           1     -36.348   0.118 -10.300  0.00  0.00     0.215 C 
HETATM    9  O           1     -36.727   1.051  -9.633  0.00  0.00    -0.274 OA
HETATM   10  N           1     -35.943  -1.039  -9.691  0.00  0.00    -0.370 N 
HETATM   11  H           1     -35.625  -1.821 -10.250  0.00  0.00     0.159 HD
HETATM   12  H           1     -35.961  -1.113  -8.682  0.00  0.00     0.159 HD
ENDBRANCH   7   8
ENDBRANCH   6   7
ENDBRANCH   5   6
BRANCH   5  13
HETATM   13  C           1     -35.078  -0.925 -14.741  0.00  0.00     0.196 C 
HETATM   14  O           1     -34.661   0.242 -14.906  0.00  0.00    -0.646 OA
HETATM   15  O           1     -35.293  -1.657 -15.732  0.00  0.00    -0.646 OA
ENDBRANCH   5  13
ENDBRANCH   4   5
BRANCH   2  16
HETATM   16  C           1     -33.914  -4.717 -11.924  0.00  0.00     0.284 C 
BRANCH  16  17
HETATM   17  C           1     -34.042  -5.148 -10.470  0.00  0.00     0.155 C 
BRANCH  17  18
HETATM   18  C           1     -34.628  -6.537 -10.406  0.00  0.00     0.175 C 
HETATM   19  O           1     -34.803  -7.092  -9.299  0.00  0.00    -0.648 OA
HETATM   20  O           1     -34.939  -7.134 -11.459  0.00  0.00    -0.648 OA
ENDBRANCH  17  18
ENDBRANCH  16  17
BRANCH  16  21
HETATM   21  N           1     -32.491  -4.334 -12.209  0.00  0.00    -0.066 N 
HETATM   22  H           1     -32.450  -3.780 -13.093  0.00  0.00     0.275 HD
HETATM   23  H           1     -32.122  -3.758 -11.419  0.00  0.00     0.275 HD
HETATM   24  H           1     -31.913  -5.198 -12.311  0.00  0.00     0.275 HD
ENDBRANCH  16  21
ENDBRANCH   2  16
TORSDOF 9
ENDMDL
MODEL 5
REMARK VINA RESULT:      -5.8      2.519      7.852
REMARK  9 active torsions:
REMARK  status: ('A' for Active; 'I' for Inactive)
REMARK    1  A    between atoms: C_3  and  C_21 
REMARK    2  A    between atoms: C_3  and  C_4 
REMARK    3  A    between atoms: C_3  and  N_19 
REMARK    4  A    between atoms: C_5  and  C_22 
REMARK    5  A    between atoms: C_5  and  C_24 
REMARK    6  A    between atoms: C_7  and  C_8 
REMARK    7  A    between atoms: C_7  and  C_21 
REMARK       I    between atoms: C_8  and  N_9 
REMARK       I    between atoms: C_10  and  N_19 
REMARK    8  A    between atoms: C_10  and  C_22 
REMARK    9  A    between atoms: N_13  and  C_22 
ROOT
HETATM    1  H           1     -22.461  -6.630  -6.669  0.00  0.00     0.163 HD
HETATM    2  C           1     -21.298  -4.975  -7.108  0.00  0.00     0.249 C 
HETATM    3  O           1     -20.391  -4.274  -6.728  0.00  0.00    -0.271 OA
HETATM    4  N           1     -21.701  -6.042  -6.351  0.00  0.00    -0.345 N 
ENDROOT
BRANCH   4   5
HETATM    5  C           1     -21.039  -6.330  -5.093  0.00  0.00     0.186 C 
BRANCH   5   6
HETATM    6  C           1     -22.083  -6.668  -4.037  0.00  0.00     0.045 C 
BRANCH   6   7
HETATM    7  C           1     -21.694  -6.024  -2.712  0.00  0.00     0.105 C 
BRANCH   7   8
HETATM    8  C           1     -21.898  -7.015  -1.592  0.00  0.00     0.215 C 
HETATM    9  O           1     -22.750  -6.817  -0.759  0.00  0.00    -0.274 OA
HETATM   10  N           1     -21.118  -8.138  -1.522  0.00  0.00    -0.370 N 
HETATM   11  H           1     -20.405  -8.303  -2.220  0.00  0.00     0.159 HD
HETATM   12  H           1     -21.255  -8.803  -0.771  0.00  0.00     0.159 HD
ENDBRANCH   7   8
ENDBRANCH   6   7
ENDBRANCH   5   6
BRANCH   5  13
HETATM   13  C           1     -20.107  -7.503  -5.274  0.00  0.00     0.196 C 
HETATM   14  O           1     -19.443  -7.617  -6.327  0.00  0.00    -0.646 OA
HETATM   15  O           1     -19.999  -8.362  -4.371  0.00  0.00    -0.646 OA
ENDBRANCH   5  13
ENDBRANCH   4   5
BRANCH   2  16
HETATM   16  C           1     -21.988  -4.674  -8.416  0.00  0.00     0.284 C 
BRANCH  16  17
HETATM   17  C           1     -20.969  -4.147  -9.418  0.00  0.00     0.155 C 
BRANCH  17  18
HETATM   18  C           1     -21.652  -3.882 -10.737  0.00  0.00     0.175 C 
HETATM   19  O           1     -22.576  -4.630 -11.124  0.00  0.00    -0.648 OA
HETATM   20  O           1     -21.295  -2.914 -11.443  0.00  0.00    -0.648 OA
ENDBRANCH  17  18
ENDBRANCH  16  17
BRANCH  16  21
HETATM   21  N           1     -23.052  -3.640  -8.194  0.00  0.00    -0.066 N 
HETATM   22  H           1     -23.410  -3.306  -9.116  0.00  0.00     0.275 HD
HETATM   23  H           1     -23.836  -4.062  -7.647  0.00  0.00     0.275 HD
HETATM   24  H           1     -22.649  -2.835  -7.663  0.00  0.00     0.275 HD
ENDBRANCH  16  21
ENDBRANCH   2  16
TORSDOF 9
ENDMDL
MODEL 6
REMARK VINA RESULT:      -5.6      2.477      4.029
REMARK  9 active torsions:
REMARK  status: ('A' for Active; 'I' for Inactive)
REMARK    1  A    between atoms: C_3  and  C_21 
REMARK    2  A    between atoms: C_3  and  C_4 
REMARK    3  A    between atoms: C_3  and  N_19 
REMARK    4  A    between atoms: C_5  and  C_22 
REMARK    5  A    between atoms: C_5  and  C_24 
REMARK    6  A    between atoms: C_7  and  C_8 
REMARK    7  A    between atoms: C_7  and  C_21 
REMARK       I    between atoms: C_8  and  N_9 
REMARK       I    between atoms: C_10  and  N_19 
REMARK    8  A    between atoms: C_10  and  C_22 
REMARK    9  A    between atoms: N_13  and  C_22 
ROOT
HETATM    1  H           1     -22.036  -4.938  -5.326  0.00  0.00     0.163 HD
HETATM    2  C           1     -21.551  -6.928  -5.623  0.00  0.00     0.249 C 
HETATM    3  O           1     -21.108  -7.733  -6.407  0.00  0.00    -0.271 OA
HETATM    4  N           1     -21.665  -5.612  -5.983  0.00  0.00    -0.345 N 
ENDROOT
BRANCH   4   5
HETATM    5  C           1     -21.253  -5.184  -7.305  0.00  0.00     0.186 C 
BRANCH   5   6
HETATM    6  C           1     -22.270  -4.193  -7.856  0.00  0.00     0.045 C 
BRANCH   6   7
HETATM    7  C           1     -22.792  -4.693  -9.197  0.00  0.00     0.105 C 
BRANCH   7   8
HETATM    8  C           1     -23.679  -3.640  -9.816  0.00  0.00     0.215 C 
HETATM    9  O           1     -23.416  -3.192 -10.907  0.00  0.00    -0.274 OA
HETATM   10  N           1     -24.782  -3.192  -9.140  0.00  0.00    -0.370 N 
HETATM   11  H           1     -25.003  -3.567  -8.226  0.00  0.00     0.159 HD
HETATM   12  H           1     -25.377  -2.486  -9.554  0.00  0.00     0.159 HD
ENDBRANCH   7   8
ENDBRANCH   6   7
ENDBRANCH   5   6
BRANCH   5  13
HETATM   13  C           1     -19.900  -4.522  -7.220  0.00  0.00     0.196 C 
HETATM   14  O           1     -19.236  -4.592  -6.163  0.00  0.00    -0.646 OA
HETATM   15  O           1     -19.442  -3.904  -8.206  0.00  0.00    -0.646 OA
ENDBRANCH   5  13
ENDBRANCH   4   5
BRANCH   2  16
HETATM   16  C           1     -21.981  -7.374  -4.247  0.00  0.00     0.284 C 
BRANCH  16  17
HETATM   17  C           1     -21.403  -6.429  -3.203  0.00  0.00     0.155 C 
BRANCH  17  18
HETATM   18  C           1     -21.665  -6.980  -1.823  0.00  0.00     0.175 C 
HETATM   19  O           1     -20.892  -7.833  -1.333  0.00  0.00    -0.648 OA
HETATM   20  O           1     -22.654  -6.585  -1.168  0.00  0.00    -0.648 OA
ENDBRANCH  17  18
ENDBRANCH  16  17
BRANCH  16  21
HETATM   21  N           1     -21.481  -8.765  -3.993  0.00  0.00    -0.066 N 
HETATM   22  H           1     -20.746  -8.742  -3.251  0.00  0.00     0.275 HD
HETATM   23  H           1     -22.274  -9.368  -3.680  0.00  0.00     0.275 HD
HETATM   24  H           1     -21.074  -9.154  -4.874  0.00  0.00     0.275 HD
ENDBRANCH  16  21
ENDBRANCH   2  16
TORSDOF 9
ENDMDL
MODEL 7
REMARK VINA RESULT:      -5.5      3.726      7.927
REMARK  9 active torsions:
REMARK  status: ('A' for Active; 'I' for Inactive)
REMARK    1  A    between atoms: C_3  and  C_21 
REMARK    2  A    between atoms: C_3  and  C_4 
REMARK    3  A    between atoms: C_3  and  N_19 
REMARK    4  A    between atoms: C_5  and  C_22 
REMARK    5  A    between atoms: C_5  and  C_24 
REMARK    6  A    between atoms: C_7  and  C_8 
REMARK    7  A    between atoms: C_7  and  C_21 
REMARK       I    between atoms: C_8  and  N_9 
REMARK       I    between atoms: C_10  and  N_19 
REMARK    8  A    between atoms: C_10  and  C_22 
REMARK    9  A    between atoms: N_13  and  C_22 
ROOT
HETATM    1  H           1     -21.183  -7.801  -6.457  0.00  0.00     0.163 HD
HETATM    2  C           1     -21.057  -5.845  -5.791  0.00  0.00     0.249 C 
HETATM    3  O           1     -20.720  -5.130  -4.877  0.00  0.00    -0.271 OA
HETATM    4  N           1     -20.901  -7.202  -5.691  0.00  0.00    -0.345 N 
ENDROOT
BRANCH   4   5
HETATM    5  C           1     -20.332  -7.780  -4.490  0.00  0.00     0.186 C 
BRANCH   5   6
HETATM    6  C           1     -21.455  -8.238  -3.568  0.00  0.00     0.045 C 
BRANCH   6   7
HETATM    7  C           1     -21.113  -7.872  -2.129  0.00  0.00     0.105 C 
BRANCH   7   8
HETATM    8  C           1     -22.108  -6.860  -1.617  0.00  0.00     0.215 C 
HETATM    9  O           1     -22.730  -7.083  -0.605  0.00  0.00    -0.274 OA
HETATM   10  N           1     -22.307  -5.691  -2.299  0.00  0.00    -0.370 N 
HETATM   11  H           1     -21.786  -5.504  -3.147  0.00  0.00     0.159 HD
HETATM   12  H           1     -22.975  -5.011  -1.956  0.00  0.00     0.159 HD
ENDBRANCH   7   8
ENDBRANCH   6   7
ENDBRANCH   5   6
BRANCH   5  13
HETATM   13  C           1     -19.472  -8.962  -4.860  0.00  0.00     0.196 C 
HETATM   14  O           1     -18.414  -9.186  -4.233  0.00  0.00    -0.646 OA
HETATM   15  O           1     -19.815  -9.719  -5.795  0.00  0.00    -0.646 OA
ENDBRANCH   5  13
ENDBRANCH   4   5
BRANCH   2  16
HETATM   16  C           1     -21.650  -5.243  -7.041  0.00  0.00     0.284 C 
BRANCH  16  17
HETATM   17  C           1     -20.780  -5.599  -8.239  0.00  0.00     0.155 C 
BRANCH  17  18
HETATM   18  C           1     -20.018  -4.377  -8.689  0.00  0.00     0.175 C 
HETATM   19  O           1     -20.355  -3.782  -9.737  0.00  0.00    -0.648 OA
HETATM   20  O           1     -19.053  -3.957  -8.016  0.00  0.00    -0.648 OA
ENDBRANCH  17  18
ENDBRANCH  16  17
BRANCH  16  21
HETATM   21  N           1     -21.714  -3.751  -6.895  0.00  0.00    -0.066 N 
HETATM   22  H           1     -22.699  -3.462  -6.703  0.00  0.00     0.275 HD
HETATM   23  H           1     -21.102  -3.453  -6.102  0.00  0.00     0.275 HD
HETATM   24  H           1     -21.383  -3.302  -7.779  0.00  0.00     0.275 HD
ENDBRANCH  16  21
ENDBRANCH   2  16
TORSDOF 9
ENDMDL
MODEL 8
REMARK VINA RESULT:      -5.5     18.026     19.882
REMARK  9 active torsions:
REMARK  status: ('A' for Active; 'I' for Inactive)
REMARK    1  A    between atoms: C_3  and  C_21 
REMARK    2  A    between atoms: C_3  and  C_4 
REMARK    3  A    between atoms: C_3  and  N_19 
REMARK    4  A    between atoms: C_5  and  C_22 
REMARK    5  A    between atoms: C_5  and  C_24 
REMARK    6  A    between atoms: C_7  and  C_8 
REMARK    7  A    between atoms: C_7  and  C_21 
REMARK       I    between atoms: C_8  and  N_9 
REMARK       I    between atoms: C_10  and  N_19 
REMARK    8  A    between atoms: C_10  and  C_22 
REMARK    9  A    between atoms: N_13  and  C_22 
ROOT
HETATM    1  H           1     -11.798   6.079 -21.625  0.00  0.00     0.163 HD
HETATM    2  C           1     -11.470   4.051 -21.870  0.00  0.00     0.249 C 
HETATM    3  O           1     -10.734   3.129 -21.612  0.00  0.00    -0.271 OA
HETATM    4  N           1     -11.181   5.307 -21.409  0.00  0.00    -0.345 N 
ENDROOT
BRANCH   4   5
HETATM    5  C           1      -9.991   5.530 -20.611  0.00  0.00     0.186 C 
BRANCH   5   6
HETATM    6  C           1      -9.369   6.868 -20.994  0.00  0.00     0.045 C 
BRANCH   6   7
HETATM    7  C           1     -10.473   7.878 -21.282  0.00  0.00     0.105 C 
BRANCH   7   8
HETATM    8  C           1     -10.317   9.067 -20.366  0.00  0.00     0.215 C 
HETATM    9  O           1      -9.442   9.876 -20.569  0.00  0.00    -0.274 OA
HETATM   10  N           1     -11.167   9.230 -19.306  0.00  0.00    -0.370 N 
HETATM   11  H           1     -11.900   8.553 -19.136  0.00  0.00     0.159 HD
HETATM   12  H           1     -11.063  10.028 -18.691  0.00  0.00     0.159 HD
ENDBRANCH   7   8
ENDBRANCH   6   7
ENDBRANCH   5   6
BRANCH   5  13
HETATM   13  C           1     -10.363   5.548 -19.149  0.00  0.00     0.196 C 
HETATM   14  O           1     -11.565   5.505 -18.810  0.00  0.00    -0.646 OA
HETATM   15  O           1      -9.469   5.605 -18.277  0.00  0.00    -0.646 OA
ENDBRANCH   5  13
ENDBRANCH   4   5
BRANCH   2  16
HETATM   16  C           1     -12.708   3.818 -22.701  0.00  0.00     0.284 C 
BRANCH  16  17
HETATM   17  C           1     -13.444   5.136 -22.898  0.00  0.00     0.155 C 
BRANCH  17  18
HETATM   18  C           1     -14.567   5.241 -21.895  0.00  0.00     0.175 C 
HETATM   19  O           1     -14.322   5.577 -20.715  0.00  0.00    -0.648 OA
HETATM   20  O           1     -15.741   4.994 -22.243  0.00  0.00    -0.648 OA
ENDBRANCH  17  18
ENDBRANCH  16  17
BRANCH  16  21
HETATM   21  N           1     -13.606   2.844 -21.998  0.00  0.00    -0.066 N 
HETATM   22  H           1     -14.476   2.703 -22.560  0.00  0.00     0.275 HD
HETATM   23  H           1     -13.110   1.931 -21.888  0.00  0.00     0.275 HD
HETATM   24  H           1     -13.857   3.220 -21.055  0.00  0.00     0.275 HD
ENDBRANCH  16  21
ENDBRANCH   2  16
TORSDOF 9
ENDMDL
MODEL 9
REMARK VINA RESULT:      -5.4      3.156      7.829
REMARK  9 active torsions:
REMARK  status: ('A' for Active; 'I' for Inactive)
REMARK    1  A    between atoms: C_3  and  C_21 
REMARK    2  A    between atoms: C_3  and  C_4 
REMARK    3  A    between atoms: C_3  and  N_19 
REMARK    4  A    between atoms: C_5  and  C_22 
REMARK    5  A    between atoms: C_5  and  C_24 
REMARK    6  A    between atoms: C_7  and  C_8 
REMARK    7  A    between atoms: C_7  and  C_21 
REMARK       I    between atoms: C_8  and  N_9 
REMARK       I    between atoms: C_10  and  N_19 
REMARK    8  A    between atoms: C_10  and  C_22 
REMARK    9  A    between atoms: N_13  and  C_22 
ROOT
HETATM    1  H           1     -19.848  -6.756  -4.884  0.00  0.00     0.163 HD
HETATM    2  C           1     -21.446  -5.747  -5.728  0.00  0.00     0.249 C 
HETATM    3  O           1     -22.647  -5.616  -5.725  0.00  0.00    -0.271 OA
HETATM    4  N           1     -20.854  -6.646  -4.882  0.00  0.00    -0.345 N 
ENDROOT
BRANCH   4   5
HETATM    5  C           1     -21.669  -7.440  -3.983  0.00  0.00     0.186 C 
BRANCH   5   6
HETATM    6  C           1     -21.139  -8.868  -3.948  0.00  0.00     0.045 C 
BRANCH   6   7
HETATM    7  C           1     -19.838  -8.947  -4.737  0.00  0.00     0.105 C 
BRANCH   7   8
HETATM    8  C           1     -18.714  -9.352  -3.815  0.00  0.00     0.215 C 
HETATM    9  O           1     -17.604  -9.529  -4.256  0.00  0.00    -0.274 OA
HETATM   10  N           1     -18.954  -9.519  -2.477  0.00  0.00    -0.370 N 
HETATM   11  H           1     -19.884  -9.371  -2.107  0.00  0.00     0.159 HD
HETATM   12  H           1     -18.200  -9.791  -1.858  0.00  0.00     0.159 HD
ENDBRANCH   7   8
ENDBRANCH   6   7
ENDBRANCH   5   6
BRANCH   5  13
HETATM   13  C           1     -21.610  -6.847  -2.597  0.00  0.00     0.196 C 
HETATM   14  O           1     -22.318  -5.858  -2.310  0.00  0.00    -0.646 OA
HETATM   15  O           1     -20.854  -7.345  -1.734  0.00  0.00    -0.646 OA
ENDBRANCH   5  13
ENDBRANCH   4   5
BRANCH   2  16
HETATM   16  C           1     -20.599  -4.921  -6.665  0.00  0.00     0.284 C 
BRANCH  16  17
HETATM   17  C           1     -21.474  -3.892  -7.367  0.00  0.00     0.155 C 
BRANCH  17  18
HETATM   18  C           1     -21.560  -4.222  -8.837  0.00  0.00     0.175 C 
HETATM   19  O           1     -20.664  -3.835  -9.618  0.00  0.00    -0.648 OA
HETATM   20  O           1     -22.526  -4.885  -9.274  0.00  0.00    -0.648 OA
ENDBRANCH  17  18
ENDBRANCH  16  17
BRANCH  16  21
HETATM   21  N           1     -19.964  -5.817  -7.686  0.00  0.00    -0.066 N 
HETATM   22  H           1     -20.701  -6.201  -8.320  0.00  0.00     0.275 HD
HETATM   23  H           1     -19.272  -5.270  -8.246  0.00  0.00     0.275 HD
HETATM   24  H           1     -19.476  -6.604  -7.202  0.00  0.00     0.275 HD
ENDBRANCH  16  21
ENDBRANCH   2  16
TORSDOF 9
ENDMDL
