MODEL 1
REMARK VINA RESULT:      -8.0      0.000      0.000
REMARK  12 active torsions:
REMARK  status: ('A' for Active; 'I' for Inactive)
REMARK    1  A    between atoms: C_2  and  C_4 
REMARK    2  A    between atoms: C_4  and  C_5 
REMARK    3  A    between atoms: C_5  and  C_6 
REMARK    4  A    between atoms: C_6  and  C_7 
REMARK    5  A    between atoms: C_6  and  N_10 
REMARK       I    between atoms: N_10  and  C_11 
REMARK    6  A    between atoms: C_11  and  C_12 
REMARK    7  A    between atoms: C_12  and  C_13 
REMARK    8  A    between atoms: C_12  and  N_25 
REMARK    9  A    between atoms: C_13  and  C_14 
REMARK   10  A    between atoms: C_17  and  O_18 
REMARK   11  A    between atoms: O_18  and  P_19 
REMARK   12  A    between atoms: P_19  and  O_20 
ROOT
HETATM    1  C           1     -21.534  -5.992  -6.852  0.00  0.00     0.278 C 
ENDROOT
BRANCH   1   2
HETATM    2  C           1     -20.842  -7.070  -6.054  0.00  0.00     0.249 C 
HETATM    3  N           1     -21.563  -7.850  -5.189  0.00  0.00    -0.345 N 
HETATM    4  H           1     -22.558  -7.705  -5.086  0.00  0.00     0.163 HD
HETATM    5  O           1     -19.653  -7.243  -6.176  0.00  0.00    -0.271 OA
BRANCH   3   6
HETATM    6  C           1     -20.897  -8.885  -4.422  0.00  0.00     0.186 C 
BRANCH   6   7
HETATM    7  C           1     -21.427  -8.881  -2.994  0.00  0.00     0.046 C 
BRANCH   7   8
HETATM    8  C           1     -20.888  -7.663  -2.256  0.00  0.00     0.116 C 
BRANCH   8   9
HETATM    9  C           1     -22.005  -6.674  -2.031  0.00  0.00     0.172 C 
HETATM   10  O           1     -22.401  -5.953  -2.971  0.00  0.00    -0.648 OA
HETATM   11  O           1     -22.536  -6.578  -0.902  0.00  0.00    -0.648 OA
ENDBRANCH   8   9
ENDBRANCH   7   8
ENDBRANCH   6   7
BRANCH   6  12
HETATM   12  C           1     -21.166 -10.229  -5.053  0.00  0.00     0.196 C 
HETATM   13  O           1     -20.667 -10.508  -6.165  0.00  0.00    -0.646 OA
HETATM   14  O           1     -21.888 -11.063  -4.465  0.00  0.00    -0.646 OA
ENDBRANCH   6  12
ENDBRANCH   3   6
ENDBRANCH   1   2
BRANCH   1  15
HETATM   15  C           1     -20.494  -5.058  -7.454  0.00  0.00     0.081 C 
BRANCH  15  16
HETATM   16  C           1     -21.031  -4.456  -8.715  0.00  0.00    -0.056 A 
HETATM   17  C           1     -22.316  -3.913  -8.735  0.00  0.00     0.010 A 
HETATM   18  C           1     -22.817  -3.352  -9.910  0.00  0.00     0.038 A 
HETATM   19  C           1     -22.034  -3.334 -11.064  0.00  0.00     0.081 A 
HETATM   20  C           1     -20.751  -3.878 -11.043  0.00  0.00     0.038 A 
HETATM   21  C           1     -20.249  -4.439  -9.869  0.00  0.00     0.010 A 
BRANCH  19  22
HETATM   22  O           1     -22.522  -2.790 -12.205  0.00  0.00    -0.247 OA
BRANCH  22  23
HETATM   23  P           1     -23.786  -3.509 -12.907  0.00  0.00     0.411 P 
HETATM   24  O           1     -25.040  -2.971 -12.334  0.00  0.00    -0.624 OA
HETATM   25  O           1     -23.755  -3.248 -14.363  0.00  0.00    -0.624 OA
BRANCH  23  26
HETATM   26  O           1     -23.714  -5.101 -12.643  0.00  0.00    -0.300 OA
HETATM   27  H           1     -23.078  -5.422 -13.260  0.00  0.00     0.223 HD
ENDBRANCH  23  26
ENDBRANCH  22  23
ENDBRANCH  19  22
ENDBRANCH  15  16
ENDBRANCH   1  15
BRANCH   1  28
HETATM   28  N           1     -22.445  -5.212  -5.952  0.00  0.00    -0.066 N 
HETATM   29  H           1     -23.051  -5.872  -5.412  0.00  0.00     0.275 HD
HETATM   30  H           1     -21.875  -4.642  -5.287  0.00  0.00     0.275 HD
HETATM   31  H           1     -23.046  -4.580  -6.528  0.00  0.00     0.275 HD
ENDBRANCH   1  28
TORSDOF 12
ENDMDL
MODEL 2
REMARK VINA RESULT:      -8.0      1.633      2.899
REMARK  12 active torsions:
REMARK  status: ('A' for Active; 'I' for Inactive)
REMARK    1  A    between atoms: C_2  and  C_4 
REMARK    2  A    between atoms: C_4  and  C_5 
REMARK    3  A    between atoms: C_5  and  C_6 
REMARK    4  A    between atoms: C_6  and  C_7 
REMARK    5  A    between atoms: C_6  and  N_10 
REMARK       I    between atoms: N_10  and  C_11 
REMARK    6  A    between atoms: C_11  and  C_12 
REMARK    7  A    between atoms: C_12  and  C_13 
REMARK    8  A    between atoms: C_12  and  N_25 
REMARK    9  A    between atoms: C_13  and  C_14 
REMARK   10  A    between atoms: C_17  and  O_18 
REMARK   11  A    between atoms: O_18  and  P_19 
REMARK   12  A    between atoms: P_19  and  O_20 
ROOT
HETATM    1  C           1     -21.015  -4.865  -6.458  0.00  0.00     0.278 C 
ENDROOT
BRANCH   1   2
HETATM    2  C           1     -21.709  -5.816  -5.513  0.00  0.00     0.249 C 
HETATM    3  N           1     -20.970  -6.612  -4.679  0.00  0.00    -0.345 N 
HETATM    4  H           1     -19.960  -6.563  -4.695  0.00  0.00     0.163 HD
HETATM    5  O           1     -22.915  -5.875  -5.493  0.00  0.00    -0.271 OA
BRANCH   3   6
HETATM    6  C           1     -21.637  -7.526  -3.771  0.00  0.00     0.186 C 
BRANCH   6   7
HETATM    7  C           1     -20.899  -8.857  -3.755  0.00  0.00     0.046 C 
BRANCH   7   8
HETATM    8  C           1     -19.575  -8.714  -4.494  0.00  0.00     0.116 C 
BRANCH   8   9
HETATM    9  C           1     -18.470  -9.331  -3.674  0.00  0.00     0.172 C 
HETATM   10  O           1     -18.662  -9.604  -2.470  0.00  0.00    -0.648 OA
HETATM   11  O           1     -17.361  -9.571  -4.200  0.00  0.00    -0.648 OA
ENDBRANCH   8   9
ENDBRANCH   7   8
ENDBRANCH   6   7
BRANCH   6  12
HETATM   12  C           1     -21.642  -6.937  -2.382  0.00  0.00     0.196 C 
HETATM   13  O           1     -22.271  -5.883  -2.151  0.00  0.00    -0.646 OA
HETATM   14  O           1     -21.015  -7.505  -1.461  0.00  0.00    -0.646 OA
ENDBRANCH   6  12
ENDBRANCH   3   6
ENDBRANCH   1   2
BRANCH   1  15
HETATM   15  C           1     -20.743  -5.571  -7.779  0.00  0.00     0.081 C 
BRANCH  15  16
HETATM   16  C           1     -21.310  -4.762  -8.904  0.00  0.00    -0.056 A 
HETATM   17  C           1     -22.647  -4.364  -8.871  0.00  0.00     0.010 A 
HETATM   18  C           1     -23.175  -3.610  -9.920  0.00  0.00     0.038 A 
HETATM   19  C           1     -22.368  -3.256 -11.000  0.00  0.00     0.081 A 
HETATM   20  C           1     -21.032  -3.655 -11.033  0.00  0.00     0.038 A 
HETATM   21  C           1     -20.504  -4.408  -9.985  0.00  0.00     0.010 A 
BRANCH  19  22
HETATM   22  O           1     -22.882  -2.525 -12.019  0.00  0.00    -0.247 OA
BRANCH  22  23
HETATM   23  P           1     -23.915  -3.250 -13.026  0.00  0.00     0.411 P 
HETATM   24  O           1     -25.299  -2.859 -12.677  0.00  0.00    -0.624 OA
HETATM   25  O           1     -23.620  -2.838 -14.416  0.00  0.00    -0.624 OA
BRANCH  23  26
HETATM   26  O           1     -23.760  -4.852 -12.894  0.00  0.00    -0.300 OA
HETATM   27  H           1     -24.563  -5.204 -13.241  0.00  0.00     0.223 HD
ENDBRANCH  23  26
ENDBRANCH  22  23
ENDBRANCH  19  22
ENDBRANCH  15  16
ENDBRANCH   1  15
BRANCH   1  28
HETATM   28  N           1     -19.717  -4.420  -5.852  0.00  0.00    -0.066 N 
HETATM   29  H           1     -19.672  -3.375  -5.857  0.00  0.00     0.275 HD
HETATM   30  H           1     -19.654  -4.766  -4.869  0.00  0.00     0.275 HD
HETATM   31  H           1     -18.922  -4.805  -6.411  0.00  0.00     0.275 HD
ENDBRANCH   1  28
TORSDOF 12
ENDMDL
MODEL 3
REMARK VINA RESULT:      -7.9      1.496      2.867
REMARK  12 active torsions:
REMARK  status: ('A' for Active; 'I' for Inactive)
REMARK    1  A    between atoms: C_2  and  C_4 
REMARK    2  A    between atoms: C_4  and  C_5 
REMARK    3  A    between atoms: C_5  and  C_6 
REMARK    4  A    between atoms: C_6  and  C_7 
REMARK    5  A    between atoms: C_6  and  N_10 
REMARK       I    between atoms: N_10  and  C_11 
REMARK    6  A    between atoms: C_11  and  C_12 
REMARK    7  A    between atoms: C_12  and  C_13 
REMARK    8  A    between atoms: C_12  and  N_25 
REMARK    9  A    between atoms: C_13  and  C_14 
REMARK   10  A    between atoms: C_17  and  O_18 
REMARK   11  A    between atoms: O_18  and  P_19 
REMARK   12  A    between atoms: P_19  and  O_20 
ROOT
HETATM    1  C           1     -20.991  -4.909  -6.411  0.00  0.00     0.278 C 
ENDROOT
BRANCH   1   2
HETATM    2  C           1     -21.693  -5.853  -5.466  0.00  0.00     0.249 C 
HETATM    3  N           1     -20.962  -6.650  -4.625  0.00  0.00    -0.345 N 
HETATM    4  H           1     -19.951  -6.606  -4.638  0.00  0.00     0.163 HD
HETATM    5  O           1     -22.899  -5.906  -5.450  0.00  0.00    -0.271 OA
BRANCH   3   6
HETATM    6  C           1     -21.637  -7.557  -3.717  0.00  0.00     0.186 C 
BRANCH   6   7
HETATM    7  C           1     -20.913  -8.896  -3.703  0.00  0.00     0.046 C 
BRANCH   7   8
HETATM    8  C           1     -21.932 -10.026  -3.778  0.00  0.00     0.116 C 
BRANCH   8   9
HETATM    9  C           1     -21.992 -10.740  -2.450  0.00  0.00     0.172 C 
HETATM   10  O           1     -21.252 -11.723  -2.235  0.00  0.00    -0.648 OA
HETATM   11  O           1     -22.782 -10.346  -1.564  0.00  0.00    -0.648 OA
ENDBRANCH   8   9
ENDBRANCH   7   8
ENDBRANCH   6   7
BRANCH   6  12
HETATM   12  C           1     -21.634  -6.970  -2.328  0.00  0.00     0.196 C 
HETATM   13  O           1     -20.945  -7.495  -1.428  0.00  0.00    -0.646 OA
HETATM   14  O           1     -22.322  -5.957  -2.076  0.00  0.00    -0.646 OA
ENDBRANCH   6  12
ENDBRANCH   3   6
ENDBRANCH   1   2
BRANCH   1  15
HETATM   15  C           1     -20.746  -5.610  -7.740  0.00  0.00     0.081 C 
BRANCH  15  16
HETATM   16  C           1     -21.313  -4.784  -8.853  0.00  0.00    -0.056 A 
HETATM   17  C           1     -20.511  -4.436  -9.940  0.00  0.00     0.010 A 
HETATM   18  C           1     -21.038  -3.666 -10.977  0.00  0.00     0.038 A 
HETATM   19  C           1     -22.367  -3.245 -10.926  0.00  0.00     0.081 A 
HETATM   20  C           1     -23.168  -3.592  -9.839  0.00  0.00     0.038 A 
HETATM   21  C           1     -22.641  -4.362  -8.802  0.00  0.00     0.010 A 
BRANCH  19  22
HETATM   22  O           1     -22.879  -2.496 -11.933  0.00  0.00    -0.247 OA
BRANCH  22  23
HETATM   23  P           1     -23.920  -3.200 -12.948  0.00  0.00     0.411 P 
HETATM   24  O           1     -25.304  -2.864 -12.545  0.00  0.00    -0.624 OA
HETATM   25  O           1     -23.672  -2.714 -14.323  0.00  0.00    -0.624 OA
BRANCH  23  26
HETATM   26  O           1     -23.720  -4.802 -12.897  0.00  0.00    -0.300 OA
HETATM   27  H           1     -22.966  -4.936 -12.347  0.00  0.00     0.223 HD
ENDBRANCH  23  26
ENDBRANCH  22  23
ENDBRANCH  19  22
ENDBRANCH  15  16
ENDBRANCH   1  15
BRANCH   1  28
HETATM   28  N           1     -19.677  -4.494  -5.816  0.00  0.00    -0.066 N 
HETATM   29  H           1     -19.105  -4.007  -6.543  0.00  0.00     0.275 HD
HETATM   30  H           1     -19.847  -3.845  -5.015  0.00  0.00     0.275 HD
HETATM   31  H           1     -19.165  -5.340  -5.478  0.00  0.00     0.275 HD
ENDBRANCH   1  28
TORSDOF 12
ENDMDL
MODEL 4
REMARK VINA RESULT:      -7.7      3.494      9.411
REMARK  12 active torsions:
REMARK  status: ('A' for Active; 'I' for Inactive)
REMARK    1  A    between atoms: C_2  and  C_4 
REMARK    2  A    between atoms: C_4  and  C_5 
REMARK    3  A    between atoms: C_5  and  C_6 
REMARK    4  A    between atoms: C_6  and  C_7 
REMARK    5  A    between atoms: C_6  and  N_10 
REMARK       I    between atoms: N_10  and  C_11 
REMARK    6  A    between atoms: C_11  and  C_12 
REMARK    7  A    between atoms: C_12  and  C_13 
REMARK    8  A    between atoms: C_12  and  N_25 
REMARK    9  A    between atoms: C_13  and  C_14 
REMARK   10  A    between atoms: C_17  and  O_18 
REMARK   11  A    between atoms: O_18  and  P_19 
REMARK   12  A    between atoms: P_19  and  O_20 
ROOT
HETATM    1  C           1     -21.003  -5.605  -7.189  0.00  0.00     0.278 C 
ENDROOT
BRANCH   1   2
HETATM    2  C           1     -21.684  -4.521  -7.989  0.00  0.00     0.249 C 
HETATM    3  N           1     -22.180  -4.800  -9.235  0.00  0.00    -0.345 N 
HETATM    4  H           1     -22.092  -5.731  -9.619  0.00  0.00     0.163 HD
HETATM    5  O           1     -21.791  -3.409  -7.531  0.00  0.00    -0.271 OA
BRANCH   3   6
HETATM    6  C           1     -22.834  -3.757 -10.003  0.00  0.00     0.186 C 
BRANCH   6   7
HETATM    7  C           1     -22.528  -3.947 -11.482  0.00  0.00     0.046 C 
BRANCH   7   8
HETATM    8  C           1     -22.762  -2.636 -12.222  0.00  0.00     0.116 C 
BRANCH   8   9
HETATM    9  C           1     -23.781  -2.848 -13.314  0.00  0.00     0.172 C 
HETATM   10  O           1     -23.414  -2.915 -14.506  0.00  0.00    -0.648 OA
HETATM   11  O           1     -24.992  -2.957 -13.026  0.00  0.00    -0.648 OA
ENDBRANCH   8   9
ENDBRANCH   7   8
ENDBRANCH   6   7
BRANCH   6  12
HETATM   12  C           1     -24.325  -3.834  -9.784  0.00  0.00     0.196 C 
HETATM   13  O           1     -24.967  -2.805  -9.484  0.00  0.00    -0.646 OA
HETATM   14  O           1     -24.919  -4.928  -9.903  0.00  0.00    -0.646 OA
ENDBRANCH   6  12
ENDBRANCH   3   6
ENDBRANCH   1   2
BRANCH   1  15
HETATM   15  C           1     -20.846  -5.149  -5.746  0.00  0.00     0.081 C 
BRANCH  15  16
HETATM   16  C           1     -21.141  -6.292  -4.825  0.00  0.00    -0.056 A 
HETATM   17  C           1     -21.268  -6.067  -3.454  0.00  0.00     0.010 A 
HETATM   18  C           1     -21.542  -7.132  -2.595  0.00  0.00     0.038 A 
HETATM   19  C           1     -21.689  -8.421  -3.108  0.00  0.00     0.081 A 
HETATM   20  C           1     -21.560  -8.645  -4.478  0.00  0.00     0.038 A 
HETATM   21  C           1     -21.286  -7.581  -5.337  0.00  0.00     0.010 A 
BRANCH  19  22
HETATM   22  O           1     -21.954  -9.456  -2.274  0.00  0.00    -0.247 OA
BRANCH  22  23
HETATM   23  P           1     -20.752 -10.010  -1.348  0.00  0.00     0.411 P 
HETATM   24  O           1     -20.796  -9.337  -0.030  0.00  0.00    -0.624 OA
HETATM   25  O           1     -20.904 -11.470  -1.164  0.00  0.00    -0.624 OA
BRANCH  23  26
HETATM   26  O           1     -19.337  -9.700  -2.061  0.00  0.00    -0.300 OA
HETATM   27  H           1     -18.798 -10.449  -1.869  0.00  0.00     0.223 HD
ENDBRANCH  23  26
ENDBRANCH  22  23
ENDBRANCH  19  22
ENDBRANCH  15  16
ENDBRANCH   1  15
BRANCH   1  28
HETATM   28  N           1     -19.650  -5.883  -7.776  0.00  0.00    -0.066 N 
HETATM   29  H           1     -18.911  -5.586  -7.099  0.00  0.00     0.275 HD
HETATM   30  H           1     -19.556  -6.905  -7.967  0.00  0.00     0.275 HD
HETATM   31  H           1     -19.542  -5.348  -8.667  0.00  0.00     0.275 HD
ENDBRANCH   1  28
TORSDOF 12
ENDMDL
MODEL 5
REMARK VINA RESULT:      -7.7      1.662      2.247
REMARK  12 active torsions:
REMARK  status: ('A' for Active; 'I' for Inactive)
REMARK    1  A    between atoms: C_2  and  C_4 
REMARK    2  A    between atoms: C_4  and  C_5 
REMARK    3  A    between atoms: C_5  and  C_6 
REMARK    4  A    between atoms: C_6  and  C_7 
REMARK    5  A    between atoms: C_6  and  N_10 
REMARK       I    between atoms: N_10  and  C_11 
REMARK    6  A    between atoms: C_11  and  C_12 
REMARK    7  A    between atoms: C_12  and  C_13 
REMARK    8  A    between atoms: C_12  and  N_25 
REMARK    9  A    between atoms: C_13  and  C_14 
REMARK   10  A    between atoms: C_17  and  O_18 
REMARK   11  A    between atoms: O_18  and  P_19 
REMARK   12  A    between atoms: P_19  and  O_20 
ROOT
HETATM    1  C           1     -21.877  -4.548  -7.145  0.00  0.00     0.278 C 
ENDROOT
BRANCH   1   2
HETATM    2  C           1     -21.229  -5.200  -5.948  0.00  0.00     0.249 C 
HETATM    3  N           1     -21.991  -5.916  -5.063  0.00  0.00    -0.345 N 
HETATM    4  H           1     -22.987  -6.008  -5.211  0.00  0.00     0.163 HD
HETATM    5  O           1     -20.040  -5.090  -5.771  0.00  0.00    -0.271 OA
BRANCH   3   6
HETATM    6  C           1     -21.367  -6.542  -3.913  0.00  0.00     0.186 C 
BRANCH   6   7
HETATM    7  C           1     -22.368  -6.614  -2.767  0.00  0.00     0.046 C 
BRANCH   7   8
HETATM    8  C           1     -21.624  -6.564  -1.439  0.00  0.00     0.116 C 
BRANCH   8   9
HETATM    9  C           1     -22.177  -7.617  -0.511  0.00  0.00     0.172 C 
HETATM   10  O           1     -21.505  -8.638  -0.252  0.00  0.00    -0.648 OA
HETATM   11  O           1     -23.309  -7.467  -0.001  0.00  0.00    -0.648 OA
ENDBRANCH   8   9
ENDBRANCH   7   8
ENDBRANCH   6   7
BRANCH   6  12
HETATM   12  C           1     -20.924  -7.937  -4.280  0.00  0.00     0.196 C 
HETATM   13  O           1     -21.569  -8.597  -5.122  0.00  0.00    -0.646 OA
HETATM   14  O           1     -19.910  -8.432  -3.742  0.00  0.00    -0.646 OA
ENDBRANCH   6  12
ENDBRANCH   3   6
ENDBRANCH   1   2
BRANCH   1  15
HETATM   15  C           1     -21.324  -5.165  -8.421  0.00  0.00     0.081 C 
BRANCH  15  16
HETATM   16  C           1     -21.729  -4.332  -9.597  0.00  0.00    -0.056 A 
HETATM   17  C           1     -20.768  -3.913 -10.518  0.00  0.00     0.010 A 
HETATM   18  C           1     -21.146  -3.136 -11.613  0.00  0.00     0.038 A 
HETATM   19  C           1     -22.483  -2.778 -11.787  0.00  0.00     0.081 A 
HETATM   20  C           1     -23.442  -3.196 -10.866  0.00  0.00     0.038 A 
HETATM   21  C           1     -23.065  -3.972  -9.770  0.00  0.00     0.010 A 
BRANCH  19  22
HETATM   22  O           1     -22.848  -2.022 -12.851  0.00  0.00    -0.247 OA
BRANCH  22  23
HETATM   23  P           1     -23.373  -2.782 -14.176  0.00  0.00     0.411 P 
HETATM   24  O           1     -24.289  -3.877 -13.785  0.00  0.00    -0.624 OA
HETATM   25  O           1     -24.091  -1.822 -15.043  0.00  0.00    -0.624 OA
BRANCH  23  26
HETATM   26  O           1     -22.114  -3.396 -14.979  0.00  0.00    -0.300 OA
HETATM   27  H           1     -21.422  -3.451 -14.341  0.00  0.00     0.223 HD
ENDBRANCH  23  26
ENDBRANCH  22  23
ENDBRANCH  19  22
ENDBRANCH  15  16
ENDBRANCH   1  15
BRANCH   1  28
HETATM   28  N           1     -21.582  -3.077  -7.132  0.00  0.00    -0.066 N 
HETATM   29  H           1     -22.350  -2.564  -7.623  0.00  0.00     0.275 HD
HETATM   30  H           1     -21.517  -2.743  -6.145  0.00  0.00     0.275 HD
HETATM   31  H           1     -20.677  -2.899  -7.622  0.00  0.00     0.275 HD
ENDBRANCH   1  28
TORSDOF 12
ENDMDL
MODEL 6
REMARK VINA RESULT:      -7.6      3.574      9.556
REMARK  12 active torsions:
REMARK  status: ('A' for Active; 'I' for Inactive)
REMARK    1  A    between atoms: C_2  and  C_4 
REMARK    2  A    between atoms: C_4  and  C_5 
REMARK    3  A    between atoms: C_5  and  C_6 
REMARK    4  A    between atoms: C_6  and  C_7 
REMARK    5  A    between atoms: C_6  and  N_10 
REMARK       I    between atoms: N_10  and  C_11 
REMARK    6  A    between atoms: C_11  and  C_12 
REMARK    7  A    between atoms: C_12  and  C_13 
REMARK    8  A    between atoms: C_12  and  N_25 
REMARK    9  A    between atoms: C_13  and  C_14 
REMARK   10  A    between atoms: C_17  and  O_18 
REMARK   11  A    between atoms: O_18  and  P_19 
REMARK   12  A    between atoms: P_19  and  O_20 
ROOT
HETATM    1  C           1     -21.158  -5.436  -6.636  0.00  0.00     0.278 C 
ENDROOT
BRANCH   1   2
HETATM    2  C           1     -21.696  -4.389  -7.582  0.00  0.00     0.249 C 
HETATM    3  N           1     -22.302  -4.770  -8.750  0.00  0.00    -0.345 N 
HETATM    4  H           1     -22.390  -5.751  -8.978  0.00  0.00     0.163 HD
HETATM    5  O           1     -21.591  -3.218  -7.308  0.00  0.00    -0.271 OA
BRANCH   3   6
HETATM    6  C           1     -22.818  -3.764  -9.658  0.00  0.00     0.186 C 
BRANCH   6   7
HETATM    7  C           1     -22.310  -4.041 -11.066  0.00  0.00     0.046 C 
BRANCH   7   8
HETATM    8  C           1     -22.322  -2.750 -11.874  0.00  0.00     0.116 C 
BRANCH   8   9
HETATM    9  C           1     -23.176  -2.933 -13.105  0.00  0.00     0.172 C 
HETATM   10  O           1     -24.409  -3.097 -12.992  0.00  0.00    -0.648 OA
HETATM   11  O           1     -22.648  -2.920 -14.238  0.00  0.00    -0.648 OA
ENDBRANCH   8   9
ENDBRANCH   7   8
ENDBRANCH   6   7
BRANCH   6  12
HETATM   12  C           1     -24.326  -3.808  -9.650  0.00  0.00     0.196 C 
HETATM   13  O           1     -24.921  -4.890  -9.841  0.00  0.00    -0.646 OA
HETATM   14  O           1     -24.981  -2.761  -9.454  0.00  0.00    -0.646 OA
ENDBRANCH   6  12
ENDBRANCH   3   6
ENDBRANCH   1   2
BRANCH   1  15
HETATM   15  C           1     -22.285  -5.944  -5.747  0.00  0.00     0.081 C 
BRANCH  15  16
HETATM   16  C           1     -21.714  -6.775  -4.641  0.00  0.00    -0.056 A 
HETATM   17  C           1     -21.157  -8.022  -4.923  0.00  0.00     0.010 A 
HETATM   18  C           1     -20.625  -8.797  -3.892  0.00  0.00     0.038 A 
HETATM   19  C           1     -20.650  -8.325  -2.580  0.00  0.00     0.081 A 
HETATM   20  C           1     -21.208  -7.079  -2.298  0.00  0.00     0.038 A 
HETATM   21  C           1     -21.740  -6.304  -3.328  0.00  0.00     0.010 A 
BRANCH  19  22
HETATM   22  O           1     -20.134  -9.079  -1.579  0.00  0.00    -0.247 OA
BRANCH  22  23
HETATM   23  P           1     -21.159  -9.732  -0.516  0.00  0.00     0.411 P 
HETATM   24  O           1     -21.372  -8.791   0.606  0.00  0.00    -0.624 OA
HETATM   25  O           1     -22.451 -10.007  -1.183  0.00  0.00    -0.624 OA
BRANCH  23  26
HETATM   26  O           1     -20.540 -11.112   0.050  0.00  0.00    -0.300 OA
HETATM   27  H           1     -21.132 -11.383   0.732  0.00  0.00     0.223 HD
ENDBRANCH  23  26
ENDBRANCH  22  23
ENDBRANCH  19  22
ENDBRANCH  15  16
ENDBRANCH   1  15
BRANCH   1  28
HETATM   28  N           1     -20.082  -4.832  -5.783  0.00  0.00    -0.066 N 
HETATM   29  H           1     -19.513  -4.169  -6.358  0.00  0.00     0.275 HD
HETATM   30  H           1     -20.518  -4.315  -4.987  0.00  0.00     0.275 HD
HETATM   31  H           1     -19.465  -5.589  -5.412  0.00  0.00     0.275 HD
ENDBRANCH   1  28
TORSDOF 12
ENDMDL
MODEL 7
REMARK VINA RESULT:      -7.5      1.375      1.619
REMARK  12 active torsions:
REMARK  status: ('A' for Active; 'I' for Inactive)
REMARK    1  A    between atoms: C_2  and  C_4 
REMARK    2  A    between atoms: C_4  and  C_5 
REMARK    3  A    between atoms: C_5  and  C_6 
REMARK    4  A    between atoms: C_6  and  C_7 
REMARK    5  A    between atoms: C_6  and  N_10 
REMARK       I    between atoms: N_10  and  C_11 
REMARK    6  A    between atoms: C_11  and  C_12 
REMARK    7  A    between atoms: C_12  and  C_13 
REMARK    8  A    between atoms: C_12  and  N_25 
REMARK    9  A    between atoms: C_13  and  C_14 
REMARK   10  A    between atoms: C_17  and  O_18 
REMARK   11  A    between atoms: O_18  and  P_19 
REMARK   12  A    between atoms: P_19  and  O_20 
ROOT
HETATM    1  C           1     -21.533  -6.409  -6.168  0.00  0.00     0.278 C 
ENDROOT
BRANCH   1   2
HETATM    2  C           1     -20.759  -7.380  -5.310  0.00  0.00     0.249 C 
HETATM    3  N           1     -21.209  -7.690  -4.054  0.00  0.00    -0.345 N 
HETATM    4  H           1     -22.059  -7.270  -3.702  0.00  0.00     0.163 HD
HETATM    5  O           1     -19.745  -7.881  -5.730  0.00  0.00    -0.271 OA
BRANCH   3   6
HETATM    6  C           1     -20.465  -8.623  -3.229  0.00  0.00     0.186 C 
BRANCH   6   7
HETATM    7  C           1     -20.351  -8.072  -1.814  0.00  0.00     0.046 C 
BRANCH   7   8
HETATM    8  C           1     -21.698  -7.515  -1.375  0.00  0.00     0.116 C 
BRANCH   8   9
HETATM    9  C           1     -22.116  -8.166  -0.080  0.00  0.00     0.172 C 
HETATM   10  O           1     -21.343  -8.958   0.500  0.00  0.00    -0.648 OA
HETATM   11  O           1     -23.237  -7.912   0.414  0.00  0.00    -0.648 OA
ENDBRANCH   8   9
ENDBRANCH   7   8
ENDBRANCH   6   7
BRANCH   6  12
HETATM   12  C           1     -21.185  -9.948  -3.195  0.00  0.00     0.196 C 
HETATM   13  O           1     -22.196 -10.129  -3.907  0.00  0.00    -0.646 OA
HETATM   14  O           1     -20.771 -10.866  -2.454  0.00  0.00    -0.646 OA
ENDBRANCH   6  12
ENDBRANCH   3   6
ENDBRANCH   1   2
BRANCH   1  15
HETATM   15  C           1     -20.638  -5.237  -6.544  0.00  0.00     0.081 C 
BRANCH  15  16
HETATM   16  C           1     -21.093  -4.657  -7.846  0.00  0.00    -0.056 A 
HETATM   17  C           1     -22.349  -4.058  -7.941  0.00  0.00     0.010 A 
HETATM   18  C           1     -22.774  -3.518  -9.156  0.00  0.00     0.038 A 
HETATM   19  C           1     -21.942  -3.575 -10.274  0.00  0.00     0.081 A 
HETATM   20  C           1     -20.686  -4.175 -10.178  0.00  0.00     0.038 A 
HETATM   21  C           1     -20.262  -4.715  -8.965  0.00  0.00     0.010 A 
BRANCH  19  22
HETATM   22  O           1     -22.355  -3.051 -11.453  0.00  0.00    -0.247 OA
BRANCH  22  23
HETATM   23  P           1     -23.710  -3.634 -12.109  0.00  0.00     0.411 P 
HETATM   24  O           1     -24.874  -3.195 -11.307  0.00  0.00    -0.624 OA
HETATM   25  O           1     -23.844  -3.131 -13.493  0.00  0.00    -0.624 OA
BRANCH  23  26
HETATM   26  O           1     -23.648  -5.248 -12.125  0.00  0.00    -0.300 OA
HETATM   27  H           1     -23.812  -5.489 -13.021  0.00  0.00     0.223 HD
ENDBRANCH  23  26
ENDBRANCH  22  23
ENDBRANCH  19  22
ENDBRANCH  15  16
ENDBRANCH   1  15
BRANCH   1  28
HETATM   28  N           1     -22.722  -5.906  -5.404  0.00  0.00    -0.066 N 
HETATM   29  H           1     -23.092  -6.670  -4.793  0.00  0.00     0.275 HD
HETATM   30  H           1     -22.437  -5.094  -4.812  0.00  0.00     0.275 HD
HETATM   31  H           1     -23.465  -5.606  -6.074  0.00  0.00     0.275 HD
ENDBRANCH   1  28
TORSDOF 12
ENDMDL
MODEL 8
REMARK VINA RESULT:      -7.4      3.511      9.172
REMARK  12 active torsions:
REMARK  status: ('A' for Active; 'I' for Inactive)
REMARK    1  A    between atoms: C_2  and  C_4 
REMARK    2  A    between atoms: C_4  and  C_5 
REMARK    3  A    between atoms: C_5  and  C_6 
REMARK    4  A    between atoms: C_6  and  C_7 
REMARK    5  A    between atoms: C_6  and  N_10 
REMARK       I    between atoms: N_10  and  C_11 
REMARK    6  A    between atoms: C_11  and  C_12 
REMARK    7  A    between atoms: C_12  and  C_13 
REMARK    8  A    between atoms: C_12  and  N_25 
REMARK    9  A    between atoms: C_13  and  C_14 
REMARK   10  A    between atoms: C_17  and  O_18 
REMARK   11  A    between atoms: O_18  and  P_19 
REMARK   12  A    between atoms: P_19  and  O_20 
ROOT
HETATM    1  C           1     -22.425  -4.992  -6.445  0.00  0.00     0.278 C 
ENDROOT
BRANCH   1   2
HETATM    2  C           1     -22.331  -4.304  -7.785  0.00  0.00     0.249 C 
HETATM    3  N           1     -23.372  -4.387  -8.671  0.00  0.00    -0.345 N 
HETATM    4  H           1     -24.204  -4.908  -8.428  0.00  0.00     0.163 HD
HETATM    5  O           1     -21.338  -3.681  -8.076  0.00  0.00    -0.271 OA
BRANCH   3   6
HETATM    6  C           1     -23.282  -3.725  -9.959  0.00  0.00     0.186 C 
BRANCH   6   7
HETATM    7  C           1     -22.808  -4.720 -11.010  0.00  0.00     0.046 C 
BRANCH   7   8
HETATM    8  C           1     -21.881  -4.017 -11.992  0.00  0.00     0.116 C 
BRANCH   8   9
HETATM    9  C           1     -20.551  -3.751 -11.329  0.00  0.00     0.172 C 
HETATM   10  O           1     -20.148  -2.578 -11.186  0.00  0.00    -0.648 OA
HETATM   11  O           1     -19.854  -4.707 -10.923  0.00  0.00    -0.648 OA
ENDBRANCH   8   9
ENDBRANCH   7   8
ENDBRANCH   6   7
BRANCH   6  12
HETATM   12  C           1     -24.640  -3.193 -10.346  0.00  0.00     0.196 C 
HETATM   13  O           1     -25.426  -2.784  -9.465  0.00  0.00    -0.646 OA
HETATM   14  O           1     -24.979  -3.163 -11.549  0.00  0.00    -0.646 OA
ENDBRANCH   6  12
ENDBRANCH   3   6
ENDBRANCH   1   2
BRANCH   1  15
HETATM   15  C           1     -21.640  -6.296  -6.488  0.00  0.00     0.081 C 
BRANCH  15  16
HETATM   16  C           1     -21.441  -6.806  -5.095  0.00  0.00    -0.056 A 
HETATM   17  C           1     -21.509  -8.176  -4.839  0.00  0.00     0.010 A 
HETATM   18  C           1     -21.325  -8.652  -3.540  0.00  0.00     0.038 A 
HETATM   19  C           1     -21.072  -7.759  -2.499  0.00  0.00     0.081 A 
HETATM   20  C           1     -21.006  -6.390  -2.756  0.00  0.00     0.038 A 
HETATM   21  C           1     -21.190  -5.914  -4.053  0.00  0.00     0.010 A 
BRANCH  19  22
HETATM   22  O           1     -20.894  -8.221  -1.238  0.00  0.00    -0.247 OA
BRANCH  22  23
HETATM   23  P           1     -22.168  -8.225  -0.245  0.00  0.00     0.411 P 
HETATM   24  O           1     -23.001  -7.031  -0.510  0.00  0.00    -0.624 OA
HETATM   25  O           1     -22.968  -9.448  -0.473  0.00  0.00    -0.624 OA
BRANCH  23  26
HETATM   26  O           1     -21.655  -8.193   1.286  0.00  0.00    -0.300 OA
HETATM   27  H           1     -20.720  -8.295   1.232  0.00  0.00     0.223 HD
ENDBRANCH  23  26
ENDBRANCH  22  23
ENDBRANCH  19  22
ENDBRANCH  15  16
ENDBRANCH   1  15
BRANCH   1  28
HETATM   28  N           1     -23.863  -5.284  -6.135  0.00  0.00    -0.066 N 
HETATM   29  H           1     -24.016  -5.218  -5.102  0.00  0.00     0.275 HD
HETATM   30  H           1     -24.473  -4.590  -6.622  0.00  0.00     0.275 HD
HETATM   31  H           1     -24.100  -6.248  -6.461  0.00  0.00     0.275 HD
ENDBRANCH   1  28
TORSDOF 12
ENDMDL
MODEL 9
REMARK VINA RESULT:      -7.3      1.230      1.830
REMARK  12 active torsions:
REMARK  status: ('A' for Active; 'I' for Inactive)
REMARK    1  A    between atoms: C_2  and  C_4 
REMARK    2  A    between atoms: C_4  and  C_5 
REMARK    3  A    between atoms: C_5  and  C_6 
REMARK    4  A    between atoms: C_6  and  C_7 
REMARK    5  A    between atoms: C_6  and  N_10 
REMARK       I    between atoms: N_10  and  C_11 
REMARK    6  A    between atoms: C_11  and  C_12 
REMARK    7  A    between atoms: C_12  and  C_13 
REMARK    8  A    between atoms: C_12  and  N_25 
REMARK    9  A    between atoms: C_13  and  C_14 
REMARK   10  A    between atoms: C_17  and  O_18 
REMARK   11  A    between atoms: O_18  and  P_19 
REMARK   12  A    between atoms: P_19  and  O_20 
ROOT
HETATM    1  C           1     -21.499  -6.473  -5.710  0.00  0.00     0.278 C 
ENDROOT
BRANCH   1   2
HETATM    2  C           1     -20.752  -7.762  -5.468  0.00  0.00     0.249 C 
HETATM    3  N           1     -21.350  -8.777  -4.769  0.00  0.00    -0.345 N 
HETATM    4  H           1     -22.290  -8.664  -4.416  0.00  0.00     0.163 HD
HETATM    5  O           1     -19.629  -7.897  -5.890  0.00  0.00    -0.271 OA
BRANCH   3   6
HETATM    6  C           1     -20.631 -10.016  -4.537  0.00  0.00     0.186 C 
BRANCH   6   7
HETATM    7  C           1     -20.781 -10.425  -3.078  0.00  0.00     0.046 C 
BRANCH   7   8
HETATM    8  C           1     -21.975  -9.703  -2.467  0.00  0.00     0.116 C 
BRANCH   8   9
HETATM    9  C           1     -21.489  -8.604  -1.555  0.00  0.00     0.172 C 
HETATM   10  O           1     -20.843  -8.887  -0.525  0.00  0.00    -0.648 OA
HETATM   11  O           1     -21.733  -7.409  -1.833  0.00  0.00    -0.648 OA
ENDBRANCH   8   9
ENDBRANCH   7   8
ENDBRANCH   6   7
BRANCH   6  12
HETATM   12  C           1     -21.198 -11.098  -5.422  0.00  0.00     0.196 C 
HETATM   13  O           1     -21.733 -12.106  -4.914  0.00  0.00    -0.646 OA
HETATM   14  O           1     -21.132 -10.986  -6.666  0.00  0.00    -0.646 OA
ENDBRANCH   6  12
ENDBRANCH   3   6
ENDBRANCH   1   2
BRANCH   1  15
HETATM   15  C           1     -20.525  -5.401  -6.177  0.00  0.00     0.081 C 
BRANCH  15  16
HETATM   16  C           1     -21.006  -4.816  -7.469  0.00  0.00    -0.056 A 
HETATM   17  C           1     -22.260  -4.208  -7.534  0.00  0.00     0.010 A 
HETATM   18  C           1     -22.708  -3.663  -8.737  0.00  0.00     0.038 A 
HETATM   19  C           1     -21.903  -3.726  -9.875  0.00  0.00     0.081 A 
HETATM   20  C           1     -20.650  -4.334  -9.809  0.00  0.00     0.038 A 
HETATM   21  C           1     -20.201  -4.879  -8.606  0.00  0.00     0.010 A 
BRANCH  19  22
HETATM   22  O           1     -22.340  -3.197 -11.043  0.00  0.00    -0.247 OA
BRANCH  22  23
HETATM   23  P           1     -23.633  -3.866 -11.742  0.00  0.00     0.411 P 
HETATM   24  O           1     -23.730  -5.287 -11.339  0.00  0.00    -0.624 OA
HETATM   25  O           1     -24.852  -3.146 -11.314  0.00  0.00    -0.624 OA
BRANCH  23  26
HETATM   26  O           1     -23.486  -3.772 -13.347  0.00  0.00    -0.300 OA
HETATM   27  H           1     -23.766  -2.899 -13.567  0.00  0.00     0.223 HD
ENDBRANCH  23  26
ENDBRANCH  22  23
ENDBRANCH  19  22
ENDBRANCH  15  16
ENDBRANCH   1  15
BRANCH   1  28
HETATM   28  N           1     -22.156  -6.030  -4.436  0.00  0.00    -0.066 N 
HETATM   29  H           1     -22.776  -6.794  -4.080  0.00  0.00     0.275 HD
HETATM   30  H           1     -21.424  -5.817  -3.722  0.00  0.00     0.275 HD
HETATM   31  H           1     -22.727  -5.174  -4.618  0.00  0.00     0.275 HD
ENDBRANCH   1  28
TORSDOF 12
ENDMDL
