MODEL 1
REMARK VINA RESULT:      -6.3      0.000      0.000
REMARK  8 active torsions:
REMARK  status: ('A' for Active; 'I' for Inactive)
REMARK    1  A    between atoms: C_1  and  C_14 
REMARK    2  A    between atoms: C_4  and  C_21 
REMARK    3  A    between atoms: C_7  and  C_20 
REMARK    4  A    between atoms: C_9  and  C_10 
REMARK    5  A    between atoms: C_9  and  C_20 
REMARK    6  A    between atoms: C_9  and  N_12 
REMARK       I    between atoms: C_10  and  N_11 
REMARK    7  A    between atoms: N_11  and  C_21 
REMARK    8  A    between atoms: C_14  and  C_21 
ROOT
HETATM    1  C           1     -36.563  -0.374 -13.523  0.00  0.00     0.249 C 
HETATM    2  N           1     -35.777  -0.566 -12.419  0.00  0.00    -0.344 N 
HETATM    3  O           1     -37.715  -0.737 -13.515  0.00  0.00    -0.271 OA
HETATM    4  H           1     -34.811  -0.263 -12.425  0.00  0.00     0.163 HD
ENDROOT
BRANCH   1   5
HETATM    5  C           1     -35.990   0.292 -14.750  0.00  0.00     0.284 C 
BRANCH   5   6
HETATM    6  C           1     -36.186  -0.614 -15.958  0.00  0.00     0.155 C 
BRANCH   6   7
HETATM    7  C           1     -35.101  -1.663 -15.982  0.00  0.00     0.175 C 
HETATM    8  O           1     -34.379  -1.793 -16.993  0.00  0.00    -0.648 OA
HETATM    9  O           1     -34.923  -2.402 -14.989  0.00  0.00    -0.648 OA
ENDBRANCH   6   7
ENDBRANCH   5   6
BRANCH   5  10
HETATM   10  N           1     -34.525   0.541 -14.544  0.00  0.00    -0.066 N 
HETATM   11  H           1     -34.232   0.151 -13.618  0.00  0.00     0.275 HD
HETATM   12  H           1     -33.983   0.074 -15.305  0.00  0.00     0.275 HD
HETATM   13  H           1     -34.340   1.569 -14.562  0.00  0.00     0.275 HD
ENDBRANCH   5  10
ENDBRANCH   1   5
BRANCH   2  14
HETATM   14  C           1     -36.327  -1.207 -11.240  0.00  0.00     0.189 C 
BRANCH  14  15
HETATM   15  C           1     -36.699  -0.154 -10.224  0.00  0.00     0.197 C 
HETATM   16  O           1     -37.588   0.683 -10.490  0.00  0.00    -0.646 OA
HETATM   17  O           1     -36.118  -0.120  -9.118  0.00  0.00    -0.646 OA
ENDBRANCH  14  15
BRANCH  14  18
HETATM   18  C           1     -35.287  -2.145 -10.641  0.00  0.00     0.014 C 
HETATM   19  C           1     -35.717  -3.588 -10.866  0.00  0.00     0.012 C 
BRANCH  18  20
HETATM   20  C           1     -33.941  -1.904 -11.312  0.00  0.00     0.002 C 
HETATM   21  C           1     -33.145  -3.203 -11.334  0.00  0.00     0.005 C 
ENDBRANCH  18  20
ENDBRANCH  14  18
ENDBRANCH   2  14
TORSDOF 8
ENDMDL
MODEL 2
REMARK VINA RESULT:      -6.3      1.739      2.206
REMARK  8 active torsions:
REMARK  status: ('A' for Active; 'I' for Inactive)
REMARK    1  A    between atoms: C_1  and  C_14 
REMARK    2  A    between atoms: C_4  and  C_21 
REMARK    3  A    between atoms: C_7  and  C_20 
REMARK    4  A    between atoms: C_9  and  C_10 
REMARK    5  A    between atoms: C_9  and  C_20 
REMARK    6  A    between atoms: C_9  and  N_12 
REMARK       I    between atoms: C_10  and  N_11 
REMARK    7  A    between atoms: N_11  and  C_21 
REMARK    8  A    between atoms: C_14  and  C_21 
ROOT
HETATM    1  C           1     -35.564  -0.928 -13.463  0.00  0.00     0.249 C 
HETATM    2  N           1     -34.879  -1.384 -12.369  0.00  0.00    -0.344 N 
HETATM    3  O           1     -36.738  -1.183 -13.589  0.00  0.00    -0.271 OA
HETATM    4  H           1     -33.895  -1.171 -12.264  0.00  0.00     0.163 HD
ENDROOT
BRANCH   1   5
HETATM    5  C           1     -34.853  -0.106 -14.510  0.00  0.00     0.284 C 
BRANCH   5   6
HETATM    6  C           1     -35.412   1.311 -14.509  0.00  0.00     0.155 C 
BRANCH   6   7
HETATM    7  C           1     -36.250   1.522 -15.747  0.00  0.00     0.175 C 
HETATM    8  O           1     -37.330   0.908 -15.883  0.00  0.00    -0.648 OA
HETATM    9  O           1     -35.866   2.314 -16.635  0.00  0.00    -0.648 OA
ENDBRANCH   6   7
ENDBRANCH   5   6
BRANCH   5  10
HETATM   10  N           1     -35.065  -0.726 -15.859  0.00  0.00    -0.066 N 
HETATM   11  H           1     -35.441  -1.695 -15.743  0.00  0.00     0.275 HD
HETATM   12  H           1     -35.748  -0.151 -16.403  0.00  0.00     0.275 HD
HETATM   13  H           1     -34.156  -0.766 -16.372  0.00  0.00     0.275 HD
ENDBRANCH   5  10
ENDBRANCH   1   5
BRANCH   2  14
HETATM   14  C           1     -35.561  -2.174 -11.363  0.00  0.00     0.189 C 
BRANCH  14  15
HETATM   15  C           1     -36.184  -1.254 -10.341  0.00  0.00     0.197 C 
HETATM   16  O           1     -37.396  -0.959 -10.423  0.00  0.00    -0.646 OA
HETATM   17  O           1     -35.488  -0.787  -9.414  0.00  0.00    -0.646 OA
ENDBRANCH  14  15
BRANCH  14  18
HETATM   18  C           1     -34.560  -3.093 -10.676  0.00  0.00     0.014 C 
HETATM   19  C           1     -34.995  -4.541 -10.856  0.00  0.00     0.012 C 
BRANCH  18  20
HETATM   20  C           1     -33.182  -2.895 -11.294  0.00  0.00     0.002 C 
HETATM   21  C           1     -32.705  -4.207 -11.904  0.00  0.00     0.005 C 
ENDBRANCH  18  20
ENDBRANCH  14  18
ENDBRANCH   2  14
TORSDOF 8
ENDMDL
MODEL 3
REMARK VINA RESULT:      -6.2     13.282     15.628
REMARK  8 active torsions:
REMARK  status: ('A' for Active; 'I' for Inactive)
REMARK    1  A    between atoms: C_1  and  C_14 
REMARK    2  A    between atoms: C_4  and  C_21 
REMARK    3  A    between atoms: C_7  and  C_20 
REMARK    4  A    between atoms: C_9  and  C_10 
REMARK    5  A    between atoms: C_9  and  C_20 
REMARK    6  A    between atoms: C_9  and  N_12 
REMARK       I    between atoms: C_10  and  N_11 
REMARK    7  A    between atoms: N_11  and  C_21 
REMARK    8  A    between atoms: C_14  and  C_21 
ROOT
HETATM    1  C           1     -21.771  -4.547  -7.774  0.00  0.00     0.249 C 
HETATM    2  N           1     -22.369  -4.846  -8.968  0.00  0.00    -0.344 N 
HETATM    3  O           1     -21.701  -3.400  -7.404  0.00  0.00    -0.271 OA
HETATM    4  H           1     -22.427  -5.808  -9.279  0.00  0.00     0.163 HD
ENDROOT
BRANCH   1   5
HETATM    5  C           1     -21.199  -5.652  -6.920  0.00  0.00     0.284 C 
BRANCH   5   6
HETATM    6  C           1     -20.903  -5.114  -5.526  0.00  0.00     0.155 C 
BRANCH   6   7
HETATM    7  C           1     -21.135  -6.203  -4.506  0.00  0.00     0.175 C 
HETATM    8  O           1     -21.924  -6.011  -3.556  0.00  0.00    -0.648 OA
HETATM    9  O           1     -20.540  -7.297  -4.612  0.00  0.00    -0.648 OA
ENDBRANCH   6   7
ENDBRANCH   5   6
BRANCH   5  10
HETATM   10  N           1     -19.930  -6.157  -7.540  0.00  0.00    -0.066 N 
HETATM   11  H           1     -20.082  -7.125  -7.907  0.00  0.00     0.275 HD
HETATM   12  H           1     -19.653  -5.527  -8.326  0.00  0.00     0.275 HD
HETATM   13  H           1     -19.173  -6.174  -6.821  0.00  0.00     0.275 HD
ENDBRANCH   5  10
ENDBRANCH   1   5
BRANCH   2  14
HETATM   14  C           1     -22.918  -3.785  -9.790  0.00  0.00     0.189 C 
BRANCH  14  15
HETATM   15  C           1     -24.424  -3.803  -9.691  0.00  0.00     0.197 C 
HETATM   16  O           1     -25.047  -4.878  -9.827  0.00  0.00    -0.646 OA
HETATM   17  O           1     -25.048  -2.741  -9.472  0.00  0.00    -0.646 OA
ENDBRANCH  14  15
BRANCH  14  18
HETATM   18  C           1     -22.502  -3.999 -11.239  0.00  0.00     0.014 C 
HETATM   19  C           1     -22.789  -2.737 -12.040  0.00  0.00     0.012 C 
BRANCH  18  20
HETATM   20  C           1     -21.012  -4.313 -11.298  0.00  0.00     0.002 C 
HETATM   21  C           1     -20.216  -3.023 -11.153  0.00  0.00     0.005 C 
ENDBRANCH  18  20
ENDBRANCH  14  18
ENDBRANCH   2  14
TORSDOF 8
ENDMDL
MODEL 4
REMARK VINA RESULT:      -5.7      2.596      4.880
REMARK  8 active torsions:
REMARK  status: ('A' for Active; 'I' for Inactive)
REMARK    1  A    between atoms: C_1  and  C_14 
REMARK    2  A    between atoms: C_4  and  C_21 
REMARK    3  A    between atoms: C_7  and  C_20 
REMARK    4  A    between atoms: C_9  and  C_10 
REMARK    5  A    between atoms: C_9  and  C_20 
REMARK    6  A    between atoms: C_9  and  N_12 
REMARK       I    between atoms: C_10  and  N_11 
REMARK    7  A    between atoms: N_11  and  C_21 
REMARK    8  A    between atoms: C_14  and  C_21 
ROOT
HETATM    1  C           1     -34.284  -2.501 -12.533  0.00  0.00     0.249 C 
HETATM    2  N           1     -34.866  -1.280 -12.318  0.00  0.00    -0.344 N 
HETATM    3  O           1     -34.442  -3.068 -13.587  0.00  0.00    -0.271 OA
HETATM    4  H           1     -34.735  -0.805 -11.434  0.00  0.00     0.163 HD
ENDROOT
BRANCH   1   5
HETATM    5  C           1     -33.446  -3.137 -11.451  0.00  0.00     0.284 C 
BRANCH   5   6
HETATM    6  C           1     -32.990  -4.517 -11.908  0.00  0.00     0.155 C 
BRANCH   6   7
HETATM    7  C           1     -33.995  -5.552 -11.463  0.00  0.00     0.175 C 
HETATM    8  O           1     -34.964  -5.838 -12.199  0.00  0.00    -0.648 OA
HETATM    9  O           1     -33.857  -6.124 -10.360  0.00  0.00    -0.648 OA
ENDBRANCH   6   7
ENDBRANCH   5   6
BRANCH   5  10
HETATM   10  N           1     -34.263  -3.269 -10.200  0.00  0.00    -0.066 N 
HETATM   11  H           1     -33.754  -2.822  -9.402  0.00  0.00     0.275 HD
HETATM   12  H           1     -35.184  -2.795 -10.334  0.00  0.00     0.275 HD
HETATM   13  H           1     -34.417  -4.281  -9.990  0.00  0.00     0.275 HD
ENDBRANCH   5  10
ENDBRANCH   1   5
BRANCH   2  14
HETATM   14  C           1     -35.672  -0.669 -13.357  0.00  0.00     0.189 C 
BRANCH  14  15
HETATM   15  C           1     -34.843   0.350 -14.101  0.00  0.00     0.197 C 
HETATM   16  O           1     -34.609   0.195 -15.319  0.00  0.00    -0.646 OA
HETATM   17  O           1     -34.391   1.347 -13.498  0.00  0.00    -0.646 OA
ENDBRANCH  14  15
BRANCH  14  18
HETATM   18  C           1     -36.876   0.019 -12.726  0.00  0.00     0.014 C 
HETATM   19  C           1     -38.074  -0.100 -13.658  0.00  0.00     0.012 C 
BRANCH  18  20
HETATM   20  C           1     -37.199  -0.646 -11.394  0.00  0.00     0.002 C 
HETATM   21  C           1     -37.075   0.378 -10.273  0.00  0.00     0.005 C 
ENDBRANCH  18  20
ENDBRANCH  14  18
ENDBRANCH   2  14
TORSDOF 8
ENDMDL
MODEL 5
REMARK VINA RESULT:      -5.5     15.196     17.165
REMARK  8 active torsions:
REMARK  status: ('A' for Active; 'I' for Inactive)
REMARK    1  A    between atoms: C_1  and  C_14 
REMARK    2  A    between atoms: C_4  and  C_21 
REMARK    3  A    between atoms: C_7  and  C_20 
REMARK    4  A    between atoms: C_9  and  C_10 
REMARK    5  A    between atoms: C_9  and  C_20 
REMARK    6  A    between atoms: C_9  and  N_12 
REMARK       I    between atoms: C_10  and  N_11 
REMARK    7  A    between atoms: N_11  and  C_21 
REMARK    8  A    between atoms: C_14  and  C_21 
ROOT
HETATM    1  C           1     -21.046  -5.375  -6.191  0.00  0.00     0.249 C 
HETATM    2  N           1     -21.508  -6.486  -5.538  0.00  0.00    -0.344 N 
HETATM    3  O           1     -19.901  -5.022  -6.044  0.00  0.00    -0.271 OA
HETATM    4  H           1     -22.469  -6.782  -5.660  0.00  0.00     0.163 HD
ENDROOT
BRANCH   1   5
HETATM    5  C           1     -21.969  -4.592  -7.093  0.00  0.00     0.284 C 
BRANCH   5   6
HETATM    6  C           1     -21.914  -5.173  -8.500  0.00  0.00     0.155 C 
BRANCH   6   7
HETATM    7  C           1     -21.535  -4.088  -9.479  0.00  0.00     0.175 C 
HETATM    8  O           1     -22.421  -3.373  -9.994  0.00  0.00    -0.648 OA
HETATM    9  O           1     -20.334  -3.902  -9.772  0.00  0.00    -0.648 OA
ENDBRANCH   6   7
ENDBRANCH   5   6
BRANCH   5  10
HETATM   10  N           1     -21.533  -3.157  -7.127  0.00  0.00    -0.066 N 
HETATM   11  H           1     -20.522  -3.106  -7.391  0.00  0.00     0.275 HD
HETATM   12  H           1     -22.104  -2.637  -7.832  0.00  0.00     0.275 HD
HETATM   13  H           1     -21.668  -2.729  -6.184  0.00  0.00     0.275 HD
ENDBRANCH   5  10
ENDBRANCH   1   5
BRANCH   2  14
HETATM   14  C           1     -20.623  -7.239  -4.671  0.00  0.00     0.189 C 
BRANCH  14  15
HETATM   15  C           1     -20.212  -8.517  -5.361  0.00  0.00     0.197 C 
HETATM   16  O           1     -19.010  -8.717  -5.638  0.00  0.00    -0.646 OA
HETATM   17  O           1     -21.073  -9.373  -5.655  0.00  0.00    -0.646 OA
ENDBRANCH  14  15
BRANCH  14  18
HETATM   18  C           1     -21.348  -7.572  -3.374  0.00  0.00     0.014 C 
HETATM   19  C           1     -20.383  -8.257  -2.416  0.00  0.00     0.012 C 
BRANCH  18  20
HETATM   20  C           1     -21.870  -6.289  -2.740  0.00  0.00     0.002 C 
HETATM   21  C           1     -22.283  -6.565  -1.300  0.00  0.00     0.005 C 
ENDBRANCH  18  20
ENDBRANCH  14  18
ENDBRANCH   2  14
TORSDOF 8
ENDMDL
MODEL 6
REMARK VINA RESULT:      -5.4     12.778     14.618
REMARK  8 active torsions:
REMARK  status: ('A' for Active; 'I' for Inactive)
REMARK    1  A    between atoms: C_1  and  C_14 
REMARK    2  A    between atoms: C_4  and  C_21 
REMARK    3  A    between atoms: C_7  and  C_20 
REMARK    4  A    between atoms: C_9  and  C_10 
REMARK    5  A    between atoms: C_9  and  C_20 
REMARK    6  A    between atoms: C_9  and  N_12 
REMARK       I    between atoms: C_10  and  N_11 
REMARK    7  A    between atoms: N_11  and  C_21 
REMARK    8  A    between atoms: C_14  and  C_21 
ROOT
HETATM    1  C           1     -22.640  -4.500  -9.564  0.00  0.00     0.249 C 
HETATM    2  N           1     -22.641  -4.686  -8.207  0.00  0.00    -0.344 N 
HETATM    3  O           1     -21.663  -4.789 -10.211  0.00  0.00    -0.271 OA
HETATM    4  H           1     -23.460  -4.444  -7.664  0.00  0.00     0.163 HD
ENDROOT
BRANCH   1   5
HETATM    5  C           1     -23.861  -3.936 -10.248  0.00  0.00     0.284 C 
BRANCH   5   6
HETATM    6  C           1     -23.426  -2.987 -11.358  0.00  0.00     0.155 C 
BRANCH   6   7
HETATM    7  C           1     -24.355  -3.134 -12.539  0.00  0.00     0.175 C 
HETATM    8  O           1     -23.898  -3.440 -13.660  0.00  0.00    -0.648 OA
HETATM    9  O           1     -25.584  -2.950 -12.394  0.00  0.00    -0.648 OA
ENDBRANCH   6   7
ENDBRANCH   5   6
BRANCH   5  10
HETATM   10  N           1     -24.692  -3.188  -9.249  0.00  0.00    -0.066 N 
HETATM   11  H           1     -25.360  -2.559  -9.752  0.00  0.00     0.275 HD
HETATM   12  H           1     -25.228  -3.867  -8.664  0.00  0.00     0.275 HD
HETATM   13  H           1     -24.070  -2.614  -8.637  0.00  0.00     0.275 HD
ENDBRANCH   5  10
ENDBRANCH   1   5
BRANCH   2  14
HETATM   14  C           1     -21.469  -5.228  -7.548  0.00  0.00     0.189 C 
BRANCH  14  15
HETATM   15  C           1     -21.901  -6.167  -6.448  0.00  0.00     0.197 C 
HETATM   16  O           1     -21.376  -7.296  -6.349  0.00  0.00    -0.646 OA
HETATM   17  O           1     -22.785  -5.814  -5.637  0.00  0.00    -0.646 OA
ENDBRANCH  14  15
BRANCH  14  18
HETATM   18  C           1     -20.651  -4.090  -6.953  0.00  0.00     0.014 C 
HETATM   19  C           1     -20.070  -4.529  -5.616  0.00  0.00     0.012 C 
BRANCH  18  20
HETATM   20  C           1     -19.518  -3.728  -7.905  0.00  0.00     0.002 C 
HETATM   21  C           1     -18.222  -4.362  -7.418  0.00  0.00     0.005 C 
ENDBRANCH  18  20
ENDBRANCH  14  18
ENDBRANCH   2  14
TORSDOF 8
ENDMDL
MODEL 7
REMARK VINA RESULT:      -5.3     17.303     19.331
REMARK  8 active torsions:
REMARK  status: ('A' for Active; 'I' for Inactive)
REMARK    1  A    between atoms: C_1  and  C_14 
REMARK    2  A    between atoms: C_4  and  C_21 
REMARK    3  A    between atoms: C_7  and  C_20 
REMARK    4  A    between atoms: C_9  and  C_10 
REMARK    5  A    between atoms: C_9  and  C_20 
REMARK    6  A    between atoms: C_9  and  N_12 
REMARK       I    between atoms: C_10  and  N_11 
REMARK    7  A    between atoms: N_11  and  C_21 
REMARK    8  A    between atoms: C_14  and  C_21 
ROOT
HETATM    1  C           1     -21.336  -7.846  -2.826  0.00  0.00     0.249 C 
HETATM    2  N           1     -21.563  -9.050  -2.215  0.00  0.00    -0.344 N 
HETATM    3  O           1     -20.824  -6.943  -2.209  0.00  0.00    -0.271 OA
HETATM    4  H           1     -21.994  -9.807  -2.731  0.00  0.00     0.163 HD
ENDROOT
BRANCH   1   5
HETATM    5  C           1     -21.726  -7.648  -4.270  0.00  0.00     0.284 C 
BRANCH   5   6
HETATM    6  C           1     -20.472  -7.628  -5.136  0.00  0.00     0.155 C 
BRANCH   6   7
HETATM    7  C           1     -20.493  -6.408  -6.024  0.00  0.00     0.175 C 
HETATM    8  O           1     -20.971  -6.482  -7.176  0.00  0.00    -0.648 OA
HETATM    9  O           1     -20.035  -5.322  -5.606  0.00  0.00    -0.648 OA
ENDBRANCH   6   7
ENDBRANCH   5   6
BRANCH   5  10
HETATM   10  N           1     -22.455  -6.345  -4.416  0.00  0.00    -0.066 N 
HETATM   11  H           1     -21.818  -5.558  -4.155  0.00  0.00     0.275 HD
HETATM   12  H           1     -22.764  -6.229  -5.407  0.00  0.00     0.275 HD
HETATM   13  H           1     -23.289  -6.340  -3.787  0.00  0.00     0.275 HD
ENDBRANCH   5  10
ENDBRANCH   1   5
BRANCH   2  14
HETATM   14  C           1     -21.190  -9.241  -0.827  0.00  0.00     0.189 C 
BRANCH  14  15
HETATM   15  C           1     -20.253 -10.419  -0.717  0.00  0.00     0.197 C 
HETATM   16  O           1     -19.659 -10.841  -1.733  0.00  0.00    -0.646 OA
HETATM   17  O           1     -20.071 -10.972   0.389  0.00  0.00    -0.646 OA
ENDBRANCH  14  15
BRANCH  14  18
HETATM   18  C           1     -22.439  -9.506   0.002  0.00  0.00     0.014 C 
HETATM   19  C           1     -23.111  -8.183   0.343  0.00  0.00     0.012 C 
BRANCH  18  20
HETATM   20  C           1     -23.402 -10.376  -0.795  0.00  0.00     0.002 C 
HETATM   21  C           1     -23.778 -11.602   0.028  0.00  0.00     0.005 C 
ENDBRANCH  18  20
ENDBRANCH  14  18
ENDBRANCH   2  14
TORSDOF 8
ENDMDL
MODEL 8
REMARK VINA RESULT:      -5.3     15.505     17.477
REMARK  8 active torsions:
REMARK  status: ('A' for Active; 'I' for Inactive)
REMARK    1  A    between atoms: C_1  and  C_14 
REMARK    2  A    between atoms: C_4  and  C_21 
REMARK    3  A    between atoms: C_7  and  C_20 
REMARK    4  A    between atoms: C_9  and  C_10 
REMARK    5  A    between atoms: C_9  and  C_20 
REMARK    6  A    between atoms: C_9  and  N_12 
REMARK       I    between atoms: C_10  and  N_11 
REMARK    7  A    between atoms: N_11  and  C_21 
REMARK    8  A    between atoms: C_14  and  C_21 
ROOT
HETATM    1  C           1     -21.380  -5.962  -5.459  0.00  0.00     0.249 C 
HETATM    2  N           1     -20.769  -6.800  -4.565  0.00  0.00    -0.344 N 
HETATM    3  O           1     -22.584  -5.882  -5.486  0.00  0.00    -0.271 OA
HETATM    4  H           1     -19.759  -6.868  -4.544  0.00  0.00     0.163 HD
ENDROOT
BRANCH   1   5
HETATM    5  C           1     -20.547  -5.138  -6.411  0.00  0.00     0.284 C 
BRANCH   5   6
HETATM    6  C           1     -21.431  -4.100  -7.090  0.00  0.00     0.155 C 
BRANCH   6   7
HETATM    7  C           1     -21.394  -4.308  -8.585  0.00  0.00     0.175 C 
HETATM    8  O           1     -22.330  -4.906  -9.156  0.00  0.00    -0.648 OA
HETATM    9  O           1     -20.427  -3.880  -9.252  0.00  0.00    -0.648 OA
ENDBRANCH   6   7
ENDBRANCH   5   6
BRANCH   5  10
HETATM   10  N           1     -19.941  -6.035  -7.449  0.00  0.00    -0.066 N 
HETATM   11  H           1     -20.318  -7.005  -7.335  0.00  0.00     0.275 HD
HETATM   12  H           1     -20.182  -5.678  -8.401  0.00  0.00     0.275 HD
HETATM   13  H           1     -18.903  -6.051  -7.333  0.00  0.00     0.275 HD
ENDBRANCH   5  10
ENDBRANCH   1   5
BRANCH   2  14
HETATM   14  C           1     -21.568  -7.592  -3.651  0.00  0.00     0.189 C 
BRANCH  14  15
HETATM   15  C           1     -21.628  -6.902  -2.310  0.00  0.00     0.197 C 
HETATM   16  O           1     -21.017  -7.382  -1.332  0.00  0.00    -0.646 OA
HETATM   17  O           1     -22.291  -5.849  -2.179  0.00  0.00    -0.646 OA
ENDBRANCH  14  15
BRANCH  14  18
HETATM   18  C           1     -20.935  -8.968  -3.486  0.00  0.00     0.014 C 
HETATM   19  C           1     -21.842 -10.020  -4.109  0.00  0.00     0.012 C 
BRANCH  18  20
HETATM   20  C           1     -19.579  -8.989  -4.179  0.00  0.00     0.002 C 
HETATM   21  C           1     -18.500  -9.364  -3.172  0.00  0.00     0.005 C 
ENDBRANCH  18  20
ENDBRANCH  14  18
ENDBRANCH   2  14
TORSDOF 8
ENDMDL
MODEL 9
REMARK VINA RESULT:      -5.1     24.557     26.085
REMARK  8 active torsions:
REMARK  status: ('A' for Active; 'I' for Inactive)
REMARK    1  A    between atoms: C_1  and  C_14 
REMARK    2  A    between atoms: C_4  and  C_21 
REMARK    3  A    between atoms: C_7  and  C_20 
REMARK    4  A    between atoms: C_9  and  C_10 
REMARK    5  A    between atoms: C_9  and  C_20 
REMARK    6  A    between atoms: C_9  and  N_12 
REMARK       I    between atoms: C_10  and  N_11 
REMARK    7  A    between atoms: N_11  and  C_21 
REMARK    8  A    between atoms: C_14  and  C_21 
ROOT
HETATM    1  C           1     -12.577   7.837 -20.628  0.00  0.00     0.249 C 
HETATM    2  N           1     -12.682   6.620 -20.009  0.00  0.00    -0.344 N 
HETATM    3  O           1     -12.921   7.960 -21.779  0.00  0.00    -0.271 OA
HETATM    4  H           1     -12.393   6.516 -19.044  0.00  0.00     0.163 HD
ENDROOT
BRANCH   1   5
HETATM    5  C           1     -12.033   9.024 -19.871  0.00  0.00     0.284 C 
BRANCH   5   6
HETATM    6  C           1     -10.668   8.673 -19.292  0.00  0.00     0.155 C 
BRANCH   6   7
HETATM    7  C           1      -9.650   8.612 -20.404  0.00  0.00     0.175 C 
HETATM    8  O           1      -9.349   9.649 -21.033  0.00  0.00    -0.648 OA
HETATM    9  O           1      -9.105   7.525 -20.694  0.00  0.00    -0.648 OA
ENDBRANCH   6   7
ENDBRANCH   5   6
BRANCH   5  10
HETATM   10  N           1     -12.973   9.379 -18.758  0.00  0.00    -0.066 N 
HETATM   11  H           1     -13.956   9.180 -19.054  0.00  0.00     0.275 HD
HETATM   12  H           1     -12.742   8.809 -17.913  0.00  0.00     0.275 HD
HETATM   13  H           1     -12.877  10.394 -18.531  0.00  0.00     0.275 HD
ENDBRANCH   5  10
ENDBRANCH   1   5
BRANCH   2  14
HETATM   14  C           1     -13.204   5.479 -20.735  0.00  0.00     0.189 C 
BRANCH  14  15
HETATM   15  C           1     -14.683   5.346 -20.465  0.00  0.00     0.197 C 
HETATM   16  O           1     -15.098   5.272 -19.288  0.00  0.00    -0.646 OA
HETATM   17  O           1     -15.492   5.311 -21.417  0.00  0.00    -0.646 OA
ENDBRANCH  14  15
BRANCH  14  18
HETATM   18  C           1     -12.488   4.216 -20.277  0.00  0.00     0.014 C 
HETATM   19  C           1     -12.994   3.026 -21.082  0.00  0.00     0.012 C 
BRANCH  18  20
HETATM   20  C           1     -10.989   4.375 -20.492  0.00  0.00     0.002 C 
HETATM   21  C           1     -10.690   4.404 -21.985  0.00  0.00     0.005 C 
ENDBRANCH  18  20
ENDBRANCH  14  18
ENDBRANCH   2  14
TORSDOF 8
ENDMDL
