MODEL 1
REMARK VINA RESULT:      -5.8      0.000      0.000
REMARK  6 active torsions:
REMARK  status: ('A' for Active; 'I' for Inactive)
REMARK    1  A    between atoms: N_5  and  C_7 
REMARK       I    between atoms: N_5  and  C_16 
REMARK    2  A    between atoms: O_6  and  C_14 
REMARK    3  A    between atoms: C_7  and  C_14 
REMARK    4  A    between atoms: C_7  and  C_17 
REMARK    5  A    between atoms: C_8  and  C_16 
REMARK    6  A    between atoms: C_8  and  N_9 
ROOT
HETATM    1  N           1     -23.039  -2.191 -12.795  0.00  0.00    -0.343 N 
HETATM    2  O           1     -23.748  -3.466 -14.485  0.00  0.00    -0.272 OA
HETATM    3  H           1     -22.772  -1.271 -12.468  0.00  0.00     0.163 HD
HETATM    4  C           1     -23.430  -2.368 -14.096  0.00  0.00     0.243 C 
ENDROOT
BRANCH   1   5
HETATM    5  C           1     -23.007  -3.321 -11.887  0.00  0.00     0.214 C 
BRANCH   5   6
HETATM    6  C           1     -21.719  -3.282 -11.075  0.00  0.00     0.147 C 
HETATM    7  C           1     -21.110  -4.677 -11.025  0.00  0.00     0.042 C 
BRANCH   6   8
HETATM    8  O           1     -20.814  -2.398 -11.678  0.00  0.00    -0.393 OA
HETATM    9  H           1     -20.398  -2.868 -12.382  0.00  0.00     0.210 HD
ENDBRANCH   6   8
ENDBRANCH   5   6
BRANCH   5  10
HETATM   10  C           1     -24.192  -3.249 -10.955  0.00  0.00     0.199 C 
HETATM   11  O           1     -24.021  -3.321  -9.719  0.00  0.00    -0.646 OA
HETATM   12  O           1     -25.346  -3.118 -11.420  0.00  0.00    -0.646 OA
ENDBRANCH   5  10
ENDBRANCH   1   5
BRANCH   4  13
HETATM   13  C           1     -23.463  -1.192 -15.041  0.00  0.00     0.332 C 
BRANCH  13  14
HETATM   14  N           1     -24.648  -0.328 -14.723  0.00  0.00    -0.071 N 
HETATM   15  H           1     -25.340  -0.878 -14.167  0.00  0.00     0.274 HD
HETATM   16  H           1     -24.334   0.500 -14.167  0.00  0.00     0.274 HD
HETATM   17  H           1     -25.091  -0.004 -15.611  0.00  0.00     0.274 HD
ENDBRANCH  13  14
ENDBRANCH   4  13
TORSDOF 6
ENDMDL
MODEL 2
REMARK VINA RESULT:      -5.5      3.395      5.361
REMARK  6 active torsions:
REMARK  status: ('A' for Active; 'I' for Inactive)
REMARK    1  A    between atoms: N_5  and  C_7 
REMARK       I    between atoms: N_5  and  C_16 
REMARK    2  A    between atoms: O_6  and  C_14 
REMARK    3  A    between atoms: C_7  and  C_14 
REMARK    4  A    between atoms: C_7  and  C_17 
REMARK    5  A    between atoms: C_8  and  C_16 
REMARK    6  A    between atoms: C_8  and  N_9 
ROOT
HETATM    1  N           1     -22.198  -4.791  -9.072  0.00  0.00    -0.343 N 
HETATM    2  O           1     -21.704  -3.397  -7.399  0.00  0.00    -0.272 OA
HETATM    3  H           1     -22.241  -5.744  -9.411  0.00  0.00     0.163 HD
HETATM    4  C           1     -21.754  -4.535  -7.803  0.00  0.00     0.243 C 
ENDROOT
BRANCH   1   5
HETATM    5  C           1     -22.608  -3.698  -9.932  0.00  0.00     0.214 C 
BRANCH   5   6
HETATM    6  C           1     -21.790  -3.730 -11.217  0.00  0.00     0.147 C 
HETATM    7  C           1     -20.397  -4.269 -10.918  0.00  0.00     0.042 C 
BRANCH   6   8
HETATM    8  O           1     -22.423  -4.560 -12.152  0.00  0.00    -0.393 OA
HETATM    9  H           1     -21.931  -4.495 -12.954  0.00  0.00     0.210 HD
ENDBRANCH   6   8
ENDBRANCH   5   6
BRANCH   5  10
HETATM   10  C           1     -24.073  -3.842 -10.264  0.00  0.00     0.199 C 
HETATM   11  O           1     -24.659  -2.947 -10.910  0.00  0.00    -0.646 OA
HETATM   12  O           1     -24.702  -4.856  -9.890  0.00  0.00    -0.646 OA
ENDBRANCH   5  10
ENDBRANCH   1   5
BRANCH   4  13
HETATM   13  C           1     -21.328  -5.673  -6.908  0.00  0.00     0.332 C 
BRANCH  13  14
HETATM   14  N           1     -20.007  -6.209  -7.375  0.00  0.00    -0.071 N 
HETATM   15  H           1     -19.853  -7.159  -6.968  0.00  0.00     0.274 HD
HETATM   16  H           1     -20.007  -6.273  -8.418  0.00  0.00     0.274 HD
HETATM   17  H           1     -19.242  -5.569  -7.064  0.00  0.00     0.274 HD
ENDBRANCH  13  14
ENDBRANCH   4  13
TORSDOF 6
ENDMDL
MODEL 3
REMARK VINA RESULT:      -5.2      1.790      2.950
REMARK  6 active torsions:
REMARK  status: ('A' for Active; 'I' for Inactive)
REMARK    1  A    between atoms: N_5  and  C_7 
REMARK       I    between atoms: N_5  and  C_16 
REMARK    2  A    between atoms: O_6  and  C_14 
REMARK    3  A    between atoms: C_7  and  C_14 
REMARK    4  A    between atoms: C_7  and  C_17 
REMARK    5  A    between atoms: C_8  and  C_16 
REMARK    6  A    between atoms: C_8  and  N_9 
ROOT
HETATM    1  N           1     -22.087  -3.554 -12.727  0.00  0.00    -0.343 N 
HETATM    2  O           1     -23.931  -2.304 -12.881  0.00  0.00    -0.272 OA
HETATM    3  H           1     -21.301  -3.985 -13.197  0.00  0.00     0.163 HD
HETATM    4  C           1     -22.993  -2.818 -13.443  0.00  0.00     0.243 C 
ENDROOT
BRANCH   1   5
HETATM    5  C           1     -22.253  -3.716 -11.295  0.00  0.00     0.214 C 
BRANCH   5   6
HETATM    6  C           1     -23.151  -4.915 -11.022  0.00  0.00     0.147 C 
HETATM    7  C           1     -24.269  -4.505 -10.073  0.00  0.00     0.042 C 
BRANCH   6   8
HETATM    8  O           1     -23.703  -5.369 -12.227  0.00  0.00    -0.393 OA
HETATM    9  H           1     -24.180  -4.647 -12.601  0.00  0.00     0.210 HD
ENDBRANCH   6   8
ENDBRANCH   5   6
BRANCH   5  10
HETATM   10  C           1     -20.904  -3.940 -10.656  0.00  0.00     0.199 C 
HETATM   11  O           1     -19.891  -4.095 -11.371  0.00  0.00    -0.646 OA
HETATM   12  O           1     -20.800  -3.970  -9.411  0.00  0.00    -0.646 OA
ENDBRANCH   5  10
ENDBRANCH   1   5
BRANCH   4  13
HETATM   13  C           1     -22.820  -2.650 -14.932  0.00  0.00     0.332 C 
BRANCH  13  14
HETATM   14  N           1     -23.398  -1.332 -15.357  0.00  0.00    -0.071 N 
HETATM   15  H           1     -24.432  -1.428 -15.476  0.00  0.00     0.274 HD
HETATM   16  H           1     -23.198  -0.613 -14.625  0.00  0.00     0.274 HD
HETATM   17  H           1     -22.969  -1.039 -16.263  0.00  0.00     0.274 HD
ENDBRANCH  13  14
ENDBRANCH   4  13
TORSDOF 6
ENDMDL
MODEL 4
REMARK VINA RESULT:      -5.0      2.030      2.463
REMARK  6 active torsions:
REMARK  status: ('A' for Active; 'I' for Inactive)
REMARK    1  A    between atoms: N_5  and  C_7 
REMARK       I    between atoms: N_5  and  C_16 
REMARK    2  A    between atoms: O_6  and  C_14 
REMARK    3  A    between atoms: C_7  and  C_14 
REMARK    4  A    between atoms: C_7  and  C_17 
REMARK    5  A    between atoms: C_8  and  C_16 
REMARK    6  A    between atoms: C_8  and  N_9 
ROOT
HETATM    1  N           1     -22.685  -3.328 -11.127  0.00  0.00    -0.343 N 
HETATM    2  O           1     -23.925  -4.566 -12.512  0.00  0.00    -0.272 OA
HETATM    3  H           1     -22.183  -2.464 -10.966  0.00  0.00     0.163 HD
HETATM    4  C           1     -23.325  -3.535 -12.320  0.00  0.00     0.243 C 
ENDROOT
BRANCH   1   5
HETATM    5  C           1     -22.728  -4.346 -10.095  0.00  0.00     0.214 C 
BRANCH   5   6
HETATM    6  C           1     -21.334  -4.532  -9.510  0.00  0.00     0.147 C 
HETATM    7  C           1     -20.303  -4.477 -10.629  0.00  0.00     0.042 C 
BRANCH   6   8
HETATM    8  O           1     -21.076  -3.512  -8.584  0.00  0.00    -0.393 OA
HETATM    9  H           1     -21.140  -3.897  -7.726  0.00  0.00     0.210 HD
ENDBRANCH   6   8
ENDBRANCH   5   6
BRANCH   5  10
HETATM   10  C           1     -23.679  -3.915  -9.005  0.00  0.00     0.199 C 
HETATM   11  O           1     -24.612  -3.126  -9.265  0.00  0.00    -0.646 OA
HETATM   12  O           1     -23.532  -4.348  -7.841  0.00  0.00    -0.646 OA
ENDBRANCH   5  10
ENDBRANCH   1   5
BRANCH   4  13
HETATM   13  C           1     -23.281  -2.476 -13.394  0.00  0.00     0.332 C 
BRANCH  13  14
HETATM   14  N           1     -22.554  -3.010 -14.593  0.00  0.00    -0.071 N 
HETATM   15  H           1     -21.537  -2.786 -14.512  0.00  0.00     0.274 HD
HETATM   16  H           1     -22.679  -4.047 -14.642  0.00  0.00     0.274 HD
HETATM   17  H           1     -22.940  -2.571 -15.459  0.00  0.00     0.274 HD
ENDBRANCH  13  14
ENDBRANCH   4  13
TORSDOF 6
ENDMDL
MODEL 5
REMARK VINA RESULT:      -4.8      4.136      6.555
REMARK  6 active torsions:
REMARK  status: ('A' for Active; 'I' for Inactive)
REMARK    1  A    between atoms: N_5  and  C_7 
REMARK       I    between atoms: N_5  and  C_16 
REMARK    2  A    between atoms: O_6  and  C_14 
REMARK    3  A    between atoms: C_7  and  C_14 
REMARK    4  A    between atoms: C_7  and  C_17 
REMARK    5  A    between atoms: C_8  and  C_16 
REMARK    6  A    between atoms: C_8  and  N_9 
ROOT
HETATM    1  N           1     -21.387  -4.207  -7.920  0.00  0.00    -0.343 N 
HETATM    2  O           1     -20.808  -6.304  -7.418  0.00  0.00    -0.272 OA
HETATM    3  H           1     -21.419  -3.235  -7.639  0.00  0.00     0.163 HD
HETATM    4  C           1     -20.846  -5.144  -7.082  0.00  0.00     0.243 C 
ENDROOT
BRANCH   1   5
HETATM    5  C           1     -21.915  -4.606  -9.211  0.00  0.00     0.214 C 
BRANCH   5   6
HETATM    6  C           1     -23.279  -3.961  -9.421  0.00  0.00     0.147 C 
HETATM    7  C           1     -24.103  -4.817 -10.373  0.00  0.00     0.042 C 
BRANCH   6   8
HETATM    8  O           1     -23.942  -3.858  -8.190  0.00  0.00    -0.393 OA
HETATM    9  H           1     -24.270  -4.717  -7.982  0.00  0.00     0.210 HD
ENDBRANCH   6   8
ENDBRANCH   5   6
BRANCH   5  10
HETATM   10  C           1     -20.972  -4.157 -10.300  0.00  0.00     0.199 C 
HETATM   11  O           1     -21.216  -3.117 -10.949  0.00  0.00    -0.646 OA
HETATM   12  O           1     -19.946  -4.825 -10.552  0.00  0.00    -0.646 OA
ENDBRANCH   5  10
ENDBRANCH   1   5
BRANCH   4  13
HETATM   13  C           1     -20.296  -4.729  -5.739  0.00  0.00     0.332 C 
BRANCH  13  14
HETATM   14  N           1     -20.906  -5.580  -4.664  0.00  0.00    -0.071 N 
HETATM   15  H           1     -21.454  -4.976  -4.012  0.00  0.00     0.274 HD
HETATM   16  H           1     -21.540  -6.288  -5.100  0.00  0.00     0.274 HD
HETATM   17  H           1     -20.149  -6.068  -4.135  0.00  0.00     0.274 HD
ENDBRANCH  13  14
ENDBRANCH   4  13
TORSDOF 6
ENDMDL
MODEL 6
REMARK VINA RESULT:      -4.7      3.102      4.126
REMARK  6 active torsions:
REMARK  status: ('A' for Active; 'I' for Inactive)
REMARK    1  A    between atoms: N_5  and  C_7 
REMARK       I    between atoms: N_5  and  C_16 
REMARK    2  A    between atoms: O_6  and  C_14 
REMARK    3  A    between atoms: C_7  and  C_14 
REMARK    4  A    between atoms: C_7  and  C_17 
REMARK    5  A    between atoms: C_8  and  C_16 
REMARK    6  A    between atoms: C_8  and  N_9 
ROOT
HETATM    1  N           1     -22.560  -4.008  -9.501  0.00  0.00    -0.343 N 
HETATM    2  O           1     -23.827  -5.482 -10.601  0.00  0.00    -0.272 OA
HETATM    3  H           1     -22.429  -3.054  -9.190  0.00  0.00     0.163 HD
HETATM    4  C           1     -23.671  -4.343 -10.229  0.00  0.00     0.243 C 
ENDROOT
BRANCH   1   5
HETATM    5  C           1     -21.574  -5.020  -9.176  0.00  0.00     0.214 C 
BRANCH   5   6
HETATM    6  C           1     -20.191  -4.527  -9.580  0.00  0.00     0.147 C 
HETATM    7  C           1     -20.307  -3.656 -10.824  0.00  0.00     0.042 C 
BRANCH   6   8
HETATM    8  O           1     -19.638  -3.777  -8.534  0.00  0.00    -0.393 OA
HETATM    9  H           1     -19.011  -3.187  -8.919  0.00  0.00     0.210 HD
ENDBRANCH   6   8
ENDBRANCH   5   6
BRANCH   5  10
HETATM   10  C           1     -21.600  -5.287  -7.690  0.00  0.00     0.199 C 
HETATM   11  O           1     -20.993  -6.274  -7.222  0.00  0.00    -0.646 OA
HETATM   12  O           1     -22.228  -4.520  -6.929  0.00  0.00    -0.646 OA
ENDBRANCH   5  10
ENDBRANCH   1   5
BRANCH   4  13
HETATM   13  C           1     -24.697  -3.290 -10.568  0.00  0.00     0.332 C 
BRANCH  13  14
HETATM   14  N           1     -24.805  -3.157 -12.059  0.00  0.00    -0.071 N 
HETATM   15  H           1     -25.585  -2.503 -12.294  0.00  0.00     0.274 HD
HETATM   16  H           1     -23.907  -2.779 -12.439  0.00  0.00     0.274 HD
HETATM   17  H           1     -24.996  -4.094 -12.479  0.00  0.00     0.274 HD
ENDBRANCH  13  14
ENDBRANCH   4  13
TORSDOF 6
ENDMDL
MODEL 7
REMARK VINA RESULT:      -4.6      3.131      5.443
REMARK  6 active torsions:
REMARK  status: ('A' for Active; 'I' for Inactive)
REMARK    1  A    between atoms: N_5  and  C_7 
REMARK       I    between atoms: N_5  and  C_16 
REMARK    2  A    between atoms: O_6  and  C_14 
REMARK    3  A    between atoms: C_7  and  C_14 
REMARK    4  A    between atoms: C_7  and  C_17 
REMARK    5  A    between atoms: C_8  and  C_16 
REMARK    6  A    between atoms: C_8  and  N_9 
ROOT
HETATM    1  N           1     -22.412  -3.481  -9.276  0.00  0.00    -0.343 N 
HETATM    2  O           1     -21.225  -5.295  -8.740  0.00  0.00    -0.272 OA
HETATM    3  H           1     -22.740  -2.561  -9.009  0.00  0.00     0.163 HD
HETATM    4  C           1     -21.617  -4.197  -8.422  0.00  0.00     0.243 C 
ENDROOT
BRANCH   1   5
HETATM    5  C           1     -22.784  -4.039 -10.561  0.00  0.00     0.214 C 
BRANCH   5   6
HETATM    6  C           1     -24.233  -3.684 -10.867  0.00  0.00     0.147 C 
HETATM    7  C           1     -24.944  -3.299  -9.577  0.00  0.00     0.042 C 
BRANCH   6   8
HETATM    8  O           1     -24.270  -2.605 -11.761  0.00  0.00    -0.393 OA
HETATM    9  H           1     -23.391  -2.481 -12.080  0.00  0.00     0.210 HD
ENDBRANCH   6   8
ENDBRANCH   5   6
BRANCH   5  10
HETATM   10  C           1     -21.887  -3.471 -11.634  0.00  0.00     0.199 C 
HETATM   11  O           1     -21.957  -3.906 -12.803  0.00  0.00    -0.646 OA
HETATM   12  O           1     -21.074  -2.564 -11.352  0.00  0.00    -0.646 OA
ENDBRANCH   5  10
ENDBRANCH   1   5
BRANCH   4  13
HETATM   13  C           1     -21.229  -3.616  -7.084  0.00  0.00     0.332 C 
BRANCH  13  14
HETATM   14  N           1     -20.814  -4.723  -6.159  0.00  0.00    -0.071 N 
HETATM   15  H           1     -19.860  -5.057  -6.423  0.00  0.00     0.274 HD
HETATM   16  H           1     -20.799  -4.366  -5.177  0.00  0.00     0.274 HD
HETATM   17  H           1     -21.493  -5.513  -6.234  0.00  0.00     0.274 HD
ENDBRANCH  13  14
ENDBRANCH   4  13
TORSDOF 6
ENDMDL
MODEL 8
REMARK VINA RESULT:      -4.5      2.391      3.829
REMARK  6 active torsions:
REMARK  status: ('A' for Active; 'I' for Inactive)
REMARK    1  A    between atoms: N_5  and  C_7 
REMARK       I    between atoms: N_5  and  C_16 
REMARK    2  A    between atoms: O_6  and  C_14 
REMARK    3  A    between atoms: C_7  and  C_14 
REMARK    4  A    between atoms: C_7  and  C_17 
REMARK    5  A    between atoms: C_8  and  C_16 
REMARK    6  A    between atoms: C_8  and  N_9 
ROOT
HETATM    1  N           1     -22.744  -4.080 -10.591  0.00  0.00    -0.343 N 
HETATM    2  O           1     -22.273  -2.178 -11.662  0.00  0.00    -0.272 OA
HETATM    3  H           1     -23.302  -4.924 -10.547  0.00  0.00     0.163 HD
HETATM    4  C           1     -22.938  -3.185 -11.609  0.00  0.00     0.243 C 
ENDROOT
BRANCH   1   5
HETATM    5  C           1     -21.742  -3.819  -9.576  0.00  0.00     0.214 C 
BRANCH   5   6
HETATM    6  C           1     -22.273  -4.252  -8.216  0.00  0.00     0.147 C 
HETATM    7  C           1     -21.536  -3.495  -7.119  0.00  0.00     0.042 C 
BRANCH   6   8
HETATM    8  O           1     -23.644  -3.971  -8.139  0.00  0.00    -0.393 OA
HETATM    9  H           1     -23.756  -3.074  -8.407  0.00  0.00     0.210 HD
ENDBRANCH   6   8
ENDBRANCH   5   6
BRANCH   5  10
HETATM   10  C           1     -20.488  -4.594  -9.899  0.00  0.00     0.199 C 
HETATM   11  O           1     -19.966  -4.497 -11.030  0.00  0.00    -0.646 OA
HETATM   12  O           1     -19.972  -5.335  -9.034  0.00  0.00    -0.646 OA
ENDBRANCH   5  10
ENDBRANCH   1   5
BRANCH   4  13
HETATM   13  C           1     -23.982  -3.457 -12.665  0.00  0.00     0.332 C 
BRANCH  13  14
HETATM   14  N           1     -24.306  -2.182 -13.387  0.00  0.00    -0.071 N 
HETATM   15  H           1     -23.423  -1.740 -13.726  0.00  0.00     0.274 HD
HETATM   16  H           1     -24.925  -2.393 -14.203  0.00  0.00     0.274 HD
HETATM   17  H           1     -24.797  -1.529 -12.737  0.00  0.00     0.274 HD
ENDBRANCH  13  14
ENDBRANCH   4  13
TORSDOF 6
ENDMDL
MODEL 9
REMARK VINA RESULT:      -4.5      3.651      5.208
REMARK  6 active torsions:
REMARK  status: ('A' for Active; 'I' for Inactive)
REMARK    1  A    between atoms: N_5  and  C_7 
REMARK       I    between atoms: N_5  and  C_16 
REMARK    2  A    between atoms: O_6  and  C_14 
REMARK    3  A    between atoms: C_7  and  C_14 
REMARK    4  A    between atoms: C_7  and  C_17 
REMARK    5  A    between atoms: C_8  and  C_16 
REMARK    6  A    between atoms: C_8  and  N_9 
ROOT
HETATM    1  N           1     -21.420  -4.453  -9.365  0.00  0.00    -0.343 N 
HETATM    2  O           1     -20.369  -3.111 -10.808  0.00  0.00    -0.272 OA
HETATM    3  H           1     -22.114  -5.174  -9.214  0.00  0.00     0.163 HD
HETATM    4  C           1     -21.198  -3.972 -10.628  0.00  0.00     0.243 C 
ENDROOT
BRANCH   1   5
HETATM    5  C           1     -20.661  -3.930  -8.246  0.00  0.00     0.214 C 
BRANCH   5   6
HETATM    6  C           1     -21.590  -3.727  -7.055  0.00  0.00     0.147 C 
HETATM    7  C           1     -22.921  -4.415  -7.328  0.00  0.00     0.042 C 
BRANCH   6   8
HETATM    8  O           1     -21.005  -4.279  -5.908  0.00  0.00    -0.393 OA
HETATM    9  H           1     -21.676  -4.777  -5.469  0.00  0.00     0.210 HD
ENDBRANCH   6   8
ENDBRANCH   5   6
BRANCH   5  10
HETATM   10  C           1     -19.573  -4.908  -7.876  0.00  0.00     0.199 C 
HETATM   11  O           1     -19.811  -6.135  -7.873  0.00  0.00    -0.646 OA
HETATM   12  O           1     -18.435  -4.491  -7.571  0.00  0.00    -0.646 OA
ENDBRANCH   5  10
ENDBRANCH   1   5
BRANCH   4  13
HETATM   13  C           1     -21.987  -4.516 -11.793  0.00  0.00     0.332 C 
BRANCH  13  14
HETATM   14  N           1     -21.911  -3.554 -12.942  0.00  0.00    -0.071 N 
HETATM   15  H           1     -22.320  -2.636 -12.654  0.00  0.00     0.274 HD
HETATM   16  H           1     -20.912  -3.419 -13.216  0.00  0.00     0.274 HD
HETATM   17  H           1     -22.448  -3.936 -13.752  0.00  0.00     0.274 HD
ENDBRANCH  13  14
ENDBRANCH   4  13
TORSDOF 6
ENDMDL
