MODEL 1
REMARK VINA RESULT:      -6.7      0.000      0.000
REMARK  6 active torsions:
REMARK  status: ('A' for Active; 'I' for Inactive)
REMARK       I    between atoms: N_1  and  C_6 
REMARK    1  A    between atoms: C_3  and  C_13 
REMARK    2  A    between atoms: C_6  and  C_15 
REMARK    3  A    between atoms: N_8  and  C_15 
REMARK    4  A    between atoms: C_13  and  C_14 
REMARK    5  A    between atoms: C_14  and  C_15 
REMARK    6  A    between atoms: C_16  and  C_19 
ROOT
HETATM    1  N           1     -21.232  -4.535  -8.631  0.00  0.00    -0.336 N 
HETATM    2  C           1     -21.922  -4.369  -9.802  0.00  0.00     0.251 C 
HETATM    3  O           1     -22.761  -5.175 -10.128  0.00  0.00    -0.271 OA
HETATM    4  C           1     -20.192  -3.670  -8.082  0.00  0.00     0.127 C 
HETATM    5  C           1     -19.169  -4.643  -7.521  0.00  0.00     0.022 C 
HETATM    6  C           1     -19.947  -5.924  -7.248  0.00  0.00     0.038 C 
HETATM    7  C           1     -21.376  -5.615  -7.659  0.00  0.00     0.188 C 
ENDROOT
BRANCH   2   8
HETATM    8  C           1     -21.635  -3.180 -10.685  0.00  0.00     0.275 C 
BRANCH   8   9
HETATM    9  N           1     -20.401  -3.448 -11.497  0.00  0.00    -0.066 N 
HETATM   10  H           1     -20.640  -3.421 -12.513  0.00  0.00     0.275 HD
HETATM   11  H           1     -19.683  -2.717 -11.289  0.00  0.00     0.275 HD
HETATM   12  H           1     -20.021  -4.390 -11.253  0.00  0.00     0.275 HD
ENDBRANCH   8   9
BRANCH   8  13
HETATM   13  C           1     -22.814  -2.944 -11.620  0.00  0.00     0.053 C 
BRANCH  13  14
HETATM   14  C           1     -22.416  -3.311 -13.043  0.00  0.00     0.115 C 
BRANCH  14  15
HETATM   15  C           1     -23.328  -2.608 -14.019  0.00  0.00     0.172 C 
HETATM   16  O           1     -24.470  -2.249 -13.659  0.00  0.00    -0.648 OA
HETATM   17  O           1     -22.941  -2.385 -15.186  0.00  0.00    -0.648 OA
ENDBRANCH  14  15
ENDBRANCH  13  14
ENDBRANCH   8  13
ENDBRANCH   2   8
BRANCH   7  18
HETATM   18  C           1     -22.191  -5.165  -6.473  0.00  0.00     0.196 C 
HETATM   19  O           1     -21.772  -5.369  -5.313  0.00  0.00    -0.646 OA
HETATM   20  O           1     -23.287  -4.588  -6.649  0.00  0.00    -0.646 OA
ENDBRANCH   7  18
TORSDOF 6
ENDMDL
MODEL 2
REMARK VINA RESULT:      -6.6     12.521     15.174
REMARK  6 active torsions:
REMARK  status: ('A' for Active; 'I' for Inactive)
REMARK       I    between atoms: N_1  and  C_6 
REMARK    1  A    between atoms: C_3  and  C_13 
REMARK    2  A    between atoms: C_6  and  C_15 
REMARK    3  A    between atoms: N_8  and  C_15 
REMARK    4  A    between atoms: C_13  and  C_14 
REMARK    5  A    between atoms: C_14  and  C_15 
REMARK    6  A    between atoms: C_16  and  C_19 
ROOT
HETATM    1  N           1     -35.850  -0.986 -13.324  0.00  0.00    -0.336 N 
HETATM    2  C           1     -34.995  -1.988 -12.953  0.00  0.00     0.251 C 
HETATM    3  O           1     -34.512  -2.713 -13.790  0.00  0.00    -0.271 OA
HETATM    4  C           1     -36.522  -0.023 -12.456  0.00  0.00     0.127 C 
HETATM    5  C           1     -37.917   0.087 -13.048  0.00  0.00     0.022 C 
HETATM    6  C           1     -37.764  -0.327 -14.506  0.00  0.00     0.038 C 
HETATM    7  C           1     -36.289  -0.646 -14.675  0.00  0.00     0.188 C 
ENDROOT
BRANCH   2   8
HETATM    8  C           1     -34.655  -2.189 -11.497  0.00  0.00     0.275 C 
BRANCH   8   9
HETATM    9  N           1     -35.839  -2.772 -10.783  0.00  0.00    -0.066 N 
HETATM   10  H           1     -36.694  -2.220 -11.018  0.00  0.00     0.275 HD
HETATM   11  H           1     -35.971  -3.764 -11.082  0.00  0.00     0.275 HD
HETATM   12  H           1     -35.675  -2.738  -9.751  0.00  0.00     0.275 HD
ENDBRANCH   8   9
BRANCH   8  13
HETATM   13  C           1     -33.473  -3.142 -11.376  0.00  0.00     0.053 C 
BRANCH  13  14
HETATM   14  C           1     -33.827  -4.274 -10.421  0.00  0.00     0.115 C 
BRANCH  14  15
HETATM   15  C           1     -34.037  -5.547 -11.204  0.00  0.00     0.172 C 
HETATM   16  O           1     -33.438  -6.592 -10.871  0.00  0.00    -0.648 OA
HETATM   17  O           1     -34.812  -5.556 -12.186  0.00  0.00    -0.648 OA
ENDBRANCH  14  15
ENDBRANCH  13  14
ENDBRANCH   8  13
ENDBRANCH   2   8
BRANCH   7  18
HETATM   18  C           1     -35.537   0.552 -15.199  0.00  0.00     0.196 C 
HETATM   19  O           1     -34.329   0.703 -14.915  0.00  0.00    -0.646 OA
HETATM   20  O           1     -36.121   1.393 -15.916  0.00  0.00    -0.646 OA
ENDBRANCH   7  18
TORSDOF 6
ENDMDL
MODEL 3
REMARK VINA RESULT:      -6.4     12.477     14.233
REMARK  6 active torsions:
REMARK  status: ('A' for Active; 'I' for Inactive)
REMARK       I    between atoms: N_1  and  C_6 
REMARK    1  A    between atoms: C_3  and  C_13 
REMARK    2  A    between atoms: C_6  and  C_15 
REMARK    3  A    between atoms: N_8  and  C_15 
REMARK    4  A    between atoms: C_13  and  C_14 
REMARK    5  A    between atoms: C_14  and  C_15 
REMARK    6  A    between atoms: C_16  and  C_19 
ROOT
HETATM    1  N           1     -34.560  -2.200 -12.400  0.00  0.00    -0.336 N 
HETATM    2  C           1     -35.000  -1.579 -13.539  0.00  0.00     0.251 C 
HETATM    3  O           1     -34.940  -2.151 -14.601  0.00  0.00    -0.271 OA
HETATM    4  C           1     -34.556  -1.665 -11.041  0.00  0.00     0.127 C 
HETATM    5  C           1     -33.228  -2.136 -10.471  0.00  0.00     0.022 C 
HETATM    6  C           1     -32.858  -3.366 -11.290  0.00  0.00     0.038 C 
HETATM    7  C           1     -33.995  -3.541 -12.280  0.00  0.00     0.188 C 
ENDROOT
BRANCH   2   8
HETATM    8  C           1     -35.558  -0.179 -13.467  0.00  0.00     0.275 C 
BRANCH   8   9
HETATM    9  N           1     -34.722   0.737 -14.313  0.00  0.00    -0.066 N 
HETATM   10  H           1     -34.347   1.511 -13.722  0.00  0.00     0.275 HD
HETATM   11  H           1     -33.928   0.198 -14.726  0.00  0.00     0.275 HD
HETATM   12  H           1     -35.309   1.135 -15.079  0.00  0.00     0.275 HD
ENDBRANCH   8   9
BRANCH   8  13
HETATM   13  C           1     -36.991  -0.175 -13.983  0.00  0.00     0.053 C 
BRANCH  13  14
HETATM   14  C           1     -37.024   0.408 -15.389  0.00  0.00     0.115 C 
BRANCH  14  15
HETATM   15  C           1     -37.147  -0.709 -16.395  0.00  0.00     0.172 C 
HETATM   16  O           1     -36.321  -0.802 -17.329  0.00  0.00    -0.648 OA
HETATM   17  O           1     -38.074  -1.542 -16.295  0.00  0.00    -0.648 OA
ENDBRANCH  14  15
ENDBRANCH  13  14
ENDBRANCH   8  13
ENDBRANCH   2   8
BRANCH   7  18
HETATM   18  C           1     -35.023  -4.511 -11.753  0.00  0.00     0.196 C 
HETATM   19  O           1     -35.978  -4.095 -11.062  0.00  0.00    -0.646 OA
HETATM   20  O           1     -34.919  -5.731 -12.006  0.00  0.00    -0.646 OA
ENDBRANCH   7  18
TORSDOF 6
ENDMDL
MODEL 4
REMARK VINA RESULT:      -6.3      2.206      6.461
REMARK  6 active torsions:
REMARK  status: ('A' for Active; 'I' for Inactive)
REMARK       I    between atoms: N_1  and  C_6 
REMARK    1  A    between atoms: C_3  and  C_13 
REMARK    2  A    between atoms: C_6  and  C_15 
REMARK    3  A    between atoms: N_8  and  C_15 
REMARK    4  A    between atoms: C_13  and  C_14 
REMARK    5  A    between atoms: C_14  and  C_15 
REMARK    6  A    between atoms: C_16  and  C_19 
ROOT
HETATM    1  N           1     -22.154  -4.241  -9.378  0.00  0.00    -0.336 N 
HETATM    2  C           1     -21.255  -4.608  -8.413  0.00  0.00     0.251 C 
HETATM    3  O           1     -20.270  -5.241  -8.713  0.00  0.00    -0.271 OA
HETATM    4  C           1     -23.388  -3.482  -9.200  0.00  0.00     0.127 C 
HETATM    5  C           1     -24.377  -4.176 -10.123  0.00  0.00     0.022 C 
HETATM    6  C           1     -23.520  -4.864 -11.178  0.00  0.00     0.038 C 
HETATM    7  C           1     -22.087  -4.523 -10.809  0.00  0.00     0.188 C 
ENDROOT
BRANCH   2   8
HETATM    8  C           1     -21.494  -4.223  -6.974  0.00  0.00     0.275 C 
BRANCH   8   9
HETATM    9  N           1     -22.775  -4.841  -6.497  0.00  0.00    -0.066 N 
HETATM   10  H           1     -23.482  -4.092  -6.327  0.00  0.00     0.275 HD
HETATM   11  H           1     -23.135  -5.500  -7.225  0.00  0.00     0.275 HD
HETATM   12  H           1     -22.601  -5.364  -5.610  0.00  0.00     0.275 HD
ENDBRANCH   8   9
BRANCH   8  13
HETATM   13  C           1     -20.340  -4.725  -6.115  0.00  0.00     0.053 C 
BRANCH  13  14
HETATM   14  C           1     -20.875  -5.667  -5.044  0.00  0.00     0.115 C 
BRANCH  14  15
HETATM   15  C           1     -20.594  -7.095  -5.443  0.00  0.00     0.172 C 
HETATM   16  O           1     -21.189  -7.601  -6.419  0.00  0.00    -0.648 OA
HETATM   17  O           1     -19.764  -7.771  -4.797  0.00  0.00    -0.648 OA
ENDBRANCH  14  15
ENDBRANCH  13  14
ENDBRANCH   8  13
ENDBRANCH   2   8
BRANCH   7  18
HETATM   18  C           1     -21.609  -3.313 -11.573  0.00  0.00     0.196 C 
HETATM   19  O           1     -20.515  -2.784 -11.283  0.00  0.00    -0.646 OA
HETATM   20  O           1     -22.308  -2.839 -12.495  0.00  0.00    -0.646 OA
ENDBRANCH   7  18
TORSDOF 6
ENDMDL
MODEL 5
REMARK VINA RESULT:      -6.2      1.901      6.571
REMARK  6 active torsions:
REMARK  status: ('A' for Active; 'I' for Inactive)
REMARK       I    between atoms: N_1  and  C_6 
REMARK    1  A    between atoms: C_3  and  C_13 
REMARK    2  A    between atoms: C_6  and  C_15 
REMARK    3  A    between atoms: N_8  and  C_15 
REMARK    4  A    between atoms: C_13  and  C_14 
REMARK    5  A    between atoms: C_14  and  C_15 
REMARK    6  A    between atoms: C_16  and  C_19 
ROOT
HETATM    1  N           1     -21.636  -4.372  -9.541  0.00  0.00    -0.336 N 
HETATM    2  C           1     -21.741  -4.620  -8.198  0.00  0.00     0.251 C 
HETATM    3  O           1     -22.677  -4.182  -7.573  0.00  0.00    -0.271 OA
HETATM    4  C           1     -20.582  -4.818 -10.448  0.00  0.00     0.127 C 
HETATM    5  C           1     -20.341  -3.613 -11.342  0.00  0.00     0.022 C 
HETATM    6  C           1     -21.638  -2.815 -11.292  0.00  0.00     0.038 C 
HETATM    7  C           1     -22.556  -3.607 -10.378  0.00  0.00     0.188 C 
ENDROOT
BRANCH   2   8
HETATM    8  C           1     -20.684  -5.439  -7.498  0.00  0.00     0.275 C 
BRANCH   8   9
HETATM    9  N           1     -19.620  -4.528  -6.960  0.00  0.00    -0.066 N 
HETATM   10  H           1     -19.864  -3.538  -7.183  0.00  0.00     0.275 HD
HETATM   11  H           1     -19.555  -4.646  -5.923  0.00  0.00     0.275 HD
HETATM   12  H           1     -18.702  -4.769  -7.397  0.00  0.00     0.275 HD
ENDBRANCH   8   9
BRANCH   8  13
HETATM   13  C           1     -21.319  -6.211  -6.348  0.00  0.00     0.053 C 
BRANCH  13  14
HETATM   14  C           1     -20.825  -5.646  -5.023  0.00  0.00     0.115 C 
BRANCH  14  15
HETATM   15  C           1     -21.359  -6.484  -3.888  0.00  0.00     0.172 C 
HETATM   16  O           1     -22.232  -6.017  -3.124  0.00  0.00    -0.648 OA
HETATM   17  O           1     -20.930  -7.645  -3.711  0.00  0.00    -0.648 OA
ENDBRANCH  14  15
ENDBRANCH  13  14
ENDBRANCH   8  13
ENDBRANCH   2   8
BRANCH   7  18
HETATM   18  C           1     -23.447  -4.526 -11.176  0.00  0.00     0.196 C 
HETATM   19  O           1     -23.981  -5.512 -10.625  0.00  0.00    -0.646 OA
HETATM   20  O           1     -23.651  -4.301 -12.389  0.00  0.00    -0.646 OA
ENDBRANCH   7  18
TORSDOF 6
ENDMDL
MODEL 6
REMARK VINA RESULT:      -6.2     12.795     15.591
REMARK  6 active torsions:
REMARK  status: ('A' for Active; 'I' for Inactive)
REMARK       I    between atoms: N_1  and  C_6 
REMARK    1  A    between atoms: C_3  and  C_13 
REMARK    2  A    between atoms: C_6  and  C_15 
REMARK    3  A    between atoms: N_8  and  C_15 
REMARK    4  A    between atoms: C_13  and  C_14 
REMARK    5  A    between atoms: C_14  and  C_15 
REMARK    6  A    between atoms: C_16  and  C_19 
ROOT
HETATM    1  N           1     -36.042   0.170 -13.885  0.00  0.00    -0.336 N 
HETATM    2  C           1     -36.586  -0.356 -12.745  0.00  0.00     0.251 C 
HETATM    3  O           1     -37.695  -0.835 -12.770  0.00  0.00    -0.271 OA
HETATM    4  C           1     -34.727   0.785 -14.041  0.00  0.00     0.127 C 
HETATM    5  C           1     -34.987   1.972 -14.954  0.00  0.00     0.022 C 
HETATM    6  C           1     -36.254   1.613 -15.720  0.00  0.00     0.038 C 
HETATM    7  C           1     -36.649   0.238 -15.212  0.00  0.00     0.188 C 
ENDROOT
BRANCH   2   8
HETATM    8  C           1     -35.802  -0.337 -11.456  0.00  0.00     0.275 C 
BRANCH   8   9
HETATM    9  N           1     -36.593   0.379 -10.401  0.00  0.00    -0.066 N 
HETATM   10  H           1     -36.155   0.216  -9.466  0.00  0.00     0.275 HD
HETATM   11  H           1     -36.600   1.404 -10.607  0.00  0.00     0.275 HD
HETATM   12  H           1     -37.573   0.018 -10.395  0.00  0.00     0.275 HD
ENDBRANCH   8   9
BRANCH   8  13
HETATM   13  C           1     -35.532  -1.766 -11.003  0.00  0.00     0.053 C 
BRANCH  13  14
HETATM   14  C           1     -34.043  -2.062 -11.114  0.00  0.00     0.115 C 
BRANCH  14  15
HETATM   15  C           1     -33.827  -3.209 -12.070  0.00  0.00     0.172 C 
HETATM   16  O           1     -34.688  -3.472 -12.936  0.00  0.00    -0.648 OA
HETATM   17  O           1     -32.785  -3.897 -11.995  0.00  0.00    -0.648 OA
ENDBRANCH  14  15
ENDBRANCH  13  14
ENDBRANCH   8  13
ENDBRANCH   2   8
BRANCH   7  18
HETATM   18  C           1     -36.101  -0.845 -16.109  0.00  0.00     0.196 C 
HETATM   19  O           1     -36.423  -0.878 -17.316  0.00  0.00    -0.646 OA
HETATM   20  O           1     -35.325  -1.709 -15.645  0.00  0.00    -0.646 OA
ENDBRANCH   7  18
TORSDOF 6
ENDMDL
MODEL 7
REMARK VINA RESULT:      -6.0      2.003      2.764
REMARK  6 active torsions:
REMARK  status: ('A' for Active; 'I' for Inactive)
REMARK       I    between atoms: N_1  and  C_6 
REMARK    1  A    between atoms: C_3  and  C_13 
REMARK    2  A    between atoms: C_6  and  C_15 
REMARK    3  A    between atoms: N_8  and  C_15 
REMARK    4  A    between atoms: C_13  and  C_14 
REMARK    5  A    between atoms: C_14  and  C_15 
REMARK    6  A    between atoms: C_16  and  C_19 
ROOT
HETATM    1  N           1     -21.896  -3.928  -9.687  0.00  0.00    -0.336 N 
HETATM    2  C           1     -21.905  -3.375 -10.939  0.00  0.00     0.251 C 
HETATM    3  O           1     -21.005  -2.648 -11.286  0.00  0.00    -0.271 OA
HETATM    4  C           1     -22.891  -4.822  -9.102  0.00  0.00     0.127 C 
HETATM    5  C           1     -23.019  -4.334  -7.669  0.00  0.00     0.022 C 
HETATM    6  C           1     -21.703  -3.627  -7.371  0.00  0.00     0.038 C 
HETATM    7  C           1     -20.888  -3.753  -8.645  0.00  0.00     0.188 C 
ENDROOT
BRANCH   2   8
HETATM    8  C           1     -23.041  -3.673 -11.887  0.00  0.00     0.275 C 
BRANCH   8   9
HETATM    9  N           1     -24.308  -3.072 -11.354  0.00  0.00    -0.066 N 
HETATM   10  H           1     -24.645  -3.633 -10.540  0.00  0.00     0.275 HD
HETATM   11  H           1     -24.124  -2.090 -11.046  0.00  0.00     0.275 HD
HETATM   12  H           1     -25.036  -3.071 -12.103  0.00  0.00     0.275 HD
ENDBRANCH   8   9
BRANCH   8  13
HETATM   13  C           1     -22.734  -3.075 -13.254  0.00  0.00     0.053 C 
BRANCH  13  14
HETATM   14  C           1     -23.902  -2.208 -13.704  0.00  0.00     0.115 C 
BRANCH  14  15
HETATM   15  C           1     -23.494  -1.399 -14.910  0.00  0.00     0.172 C 
HETATM   16  O           1     -24.063  -0.314 -15.157  0.00  0.00    -0.648 OA
HETATM   17  O           1     -22.586  -1.815 -15.663  0.00  0.00    -0.648 OA
ENDBRANCH  14  15
ENDBRANCH  13  14
ENDBRANCH   8  13
ENDBRANCH   2   8
BRANCH   7  18
HETATM   18  C           1     -19.970  -4.949  -8.580  0.00  0.00     0.196 C 
HETATM   19  O           1     -19.681  -5.455  -7.474  0.00  0.00    -0.646 OA
HETATM   20  O           1     -19.499  -5.434  -9.632  0.00  0.00    -0.646 OA
ENDBRANCH   7  18
TORSDOF 6
ENDMDL
MODEL 8
REMARK VINA RESULT:      -5.8     12.764     14.532
REMARK  6 active torsions:
REMARK  status: ('A' for Active; 'I' for Inactive)
REMARK       I    between atoms: N_1  and  C_6 
REMARK    1  A    between atoms: C_3  and  C_13 
REMARK    2  A    between atoms: C_6  and  C_15 
REMARK    3  A    between atoms: N_8  and  C_15 
REMARK    4  A    between atoms: C_13  and  C_14 
REMARK    5  A    between atoms: C_14  and  C_15 
REMARK    6  A    between atoms: C_16  and  C_19 
ROOT
HETATM    1  N           1     -34.722  -2.384 -12.307  0.00  0.00    -0.336 N 
HETATM    2  C           1     -35.307  -1.542 -13.214  0.00  0.00     0.251 C 
HETATM    3  O           1     -35.155  -1.728 -14.398  0.00  0.00    -0.271 OA
HETATM    4  C           1     -34.797  -2.313 -10.851  0.00  0.00     0.127 C 
HETATM    5  C           1     -33.387  -2.655 -10.398  0.00  0.00     0.022 C 
HETATM    6  C           1     -32.787  -3.464 -11.542  0.00  0.00     0.038 C 
HETATM    7  C           1     -33.886  -3.549 -12.586  0.00  0.00     0.188 C 
ENDROOT
BRANCH   2   8
HETATM    8  C           1     -36.143  -0.381 -12.735  0.00  0.00     0.275 C 
BRANCH   8   9
HETATM    9  N           1     -36.551   0.459 -13.909  0.00  0.00    -0.066 N 
HETATM   10  H           1     -36.525   1.468 -13.642  0.00  0.00     0.275 HD
HETATM   11  H           1     -35.891   0.292 -14.702  0.00  0.00     0.275 HD
HETATM   12  H           1     -37.520   0.201 -14.202  0.00  0.00     0.275 HD
ENDBRANCH   8   9
BRANCH   8  13
HETATM   13  C           1     -37.389  -0.907 -12.033  0.00  0.00     0.053 C 
BRANCH  13  14
HETATM   14  C           1     -37.944   0.169 -11.110  0.00  0.00     0.115 C 
BRANCH  14  15
HETATM   15  C           1     -37.144   0.199  -9.831  0.00  0.00     0.172 C 
HETATM   16  O           1     -36.321   1.118  -9.630  0.00  0.00    -0.648 OA
HETATM   17  O           1     -37.305  -0.696  -8.972  0.00  0.00    -0.648 OA
ENDBRANCH  14  15
ENDBRANCH  13  14
ENDBRANCH   8  13
ENDBRANCH   2   8
BRANCH   7  18
HETATM   18  C           1     -34.676  -4.825 -12.431  0.00  0.00     0.196 C 
HETATM   19  O           1     -34.711  -5.409 -11.327  0.00  0.00    -0.646 OA
HETATM   20  O           1     -35.296  -5.300 -13.408  0.00  0.00    -0.646 OA
ENDBRANCH   7  18
TORSDOF 6
ENDMDL
MODEL 9
REMARK VINA RESULT:      -5.7      3.107      4.405
REMARK  6 active torsions:
REMARK  status: ('A' for Active; 'I' for Inactive)
REMARK       I    between atoms: N_1  and  C_6 
REMARK    1  A    between atoms: C_3  and  C_13 
REMARK    2  A    between atoms: C_6  and  C_15 
REMARK    3  A    between atoms: N_8  and  C_15 
REMARK    4  A    between atoms: C_13  and  C_14 
REMARK    5  A    between atoms: C_14  and  C_15 
REMARK    6  A    between atoms: C_16  and  C_19 
ROOT
HETATM    1  N           1     -21.321  -6.547  -5.505  0.00  0.00    -0.336 N 
HETATM    2  C           1     -21.084  -5.933  -6.706  0.00  0.00     0.251 C 
HETATM    3  O           1     -20.115  -6.237  -7.359  0.00  0.00    -0.271 OA
HETATM    4  C           1     -22.433  -6.309  -4.589  0.00  0.00     0.127 C 
HETATM    5  C           1     -21.787  -6.354  -3.215  0.00  0.00     0.022 C 
HETATM    6  C           1     -20.525  -7.188  -3.396  0.00  0.00     0.038 C 
HETATM    7  C           1     -20.518  -7.583  -4.862  0.00  0.00     0.188 C 
ENDROOT
BRANCH   2   8
HETATM    8  C           1     -22.034  -4.876  -7.213  0.00  0.00     0.275 C 
BRANCH   8   9
HETATM    9  N           1     -21.509  -3.518  -6.850  0.00  0.00    -0.066 N 
HETATM   10  H           1     -21.850  -3.255  -5.899  0.00  0.00     0.275 HD
HETATM   11  H           1     -20.464  -3.537  -6.852  0.00  0.00     0.275 HD
HETATM   12  H           1     -21.846  -2.817  -7.548  0.00  0.00     0.275 HD
ENDBRANCH   8   9
BRANCH   8  13
HETATM   13  C           1     -22.153  -4.984  -8.728  0.00  0.00     0.053 C 
BRANCH  13  14
HETATM   14  C           1     -22.676  -3.669  -9.291  0.00  0.00     0.115 C 
BRANCH  14  15
HETATM   15  C           1     -24.126  -3.827  -9.675  0.00  0.00     0.172 C 
HETATM   16  O           1     -24.536  -4.914 -10.137  0.00  0.00    -0.648 OA
HETATM   17  O           1     -24.919  -2.870  -9.530  0.00  0.00    -0.648 OA
ENDBRANCH  14  15
ENDBRANCH  13  14
ENDBRANCH   8  13
ENDBRANCH   2   8
BRANCH   7  18
HETATM   18  C           1     -21.143  -8.943  -5.055  0.00  0.00     0.196 C 
HETATM   19  O           1     -21.416  -9.652  -4.062  0.00  0.00    -0.646 OA
HETATM   20  O           1     -21.386  -9.362  -6.208  0.00  0.00    -0.646 OA
ENDBRANCH   7  18
TORSDOF 6
ENDMDL
