MODEL 1
REMARK VINA RESULT:      -6.5      0.000      0.000
REMARK  11 active torsions:
REMARK  status: ('A' for Active; 'I' for Inactive)
REMARK    1  A    between atoms: N_3  and  C_21 
REMARK    2  A    between atoms: C_11  and  C_27 
REMARK    3  A    between atoms: C_11  and  C_12 
REMARK    4  A    between atoms: C_12  and  C_13 
REMARK    5  A    between atoms: C_13  and  C_14 
REMARK    6  A    between atoms: C_14  and  C_15 
REMARK    7  A    between atoms: C_14  and  N_23 
REMARK       I    between atoms: N_18  and  C_19 
REMARK    8  A    between atoms: C_19  and  C_20 
REMARK    9  A    between atoms: C_20  and  C_21 
REMARK   10  A    between atoms: C_21  and  C_22 
REMARK       I    between atoms: C_22  and  N_23 
REMARK   11  A    between atoms: N_25  and  C_27 
ROOT
HETATM    1  O           1     -36.601  -0.919 -11.629  0.00  0.00    -0.271 OA
HETATM    2  H           1     -34.544  -2.174 -13.637  0.00  0.00     0.163 HD
HETATM    3  C           1     -35.990  -1.060 -12.661  0.00  0.00     0.249 C 
HETATM    4  N           1     -35.056  -2.056 -12.773  0.00  0.00    -0.345 N 
ENDROOT
BRANCH   4   5
HETATM    5  C           1     -34.803  -2.941 -11.653  0.00  0.00     0.185 C 
BRANCH   5   6
HETATM    6  C           1     -34.716  -4.377 -12.151  0.00  0.00     0.036 C 
BRANCH   6   7
HETATM    7  C           1     -35.147  -5.327 -11.041  0.00  0.00     0.004 C 
BRANCH   7   8
HETATM    8  C           1     -34.040  -6.341 -10.782  0.00  0.00     0.027 C 
BRANCH   8   9
HETATM    9  C           1     -34.628  -7.574 -10.108  0.00  0.00     0.229 C 
BRANCH   9  10
HETATM   10  N           1     -33.705  -8.740 -10.306  0.00  0.00    -0.079 N 
HETATM   11  H           1     -34.048  -9.326 -11.100  0.00  0.00     0.274 HD
HETATM   12  H           1     -33.679  -9.315  -9.434  0.00  0.00     0.274 HD
HETATM   13  H           1     -32.743  -8.391 -10.521  0.00  0.00     0.274 HD
ENDBRANCH   9  10
ENDBRANCH   8   9
ENDBRANCH   7   8
ENDBRANCH   6   7
ENDBRANCH   5   6
BRANCH   5  14
HETATM   14  C           1     -33.501  -2.557 -10.995  0.00  0.00     0.196 C 
HETATM   15  O           1     -33.476  -1.638 -10.148  0.00  0.00    -0.646 OA
HETATM   16  O           1     -32.447  -3.159 -11.294  0.00  0.00    -0.646 OA
ENDBRANCH   5  14
ENDBRANCH   4   5
BRANCH   3  17
HETATM   17  C           1     -36.253  -0.139 -13.827  0.00  0.00     0.283 C 
BRANCH  17  18
HETATM   18  N           1     -35.308  -0.465 -14.945  0.00  0.00    -0.066 N 
HETATM   19  H           1     -35.035   0.415 -15.439  0.00  0.00     0.275 HD
HETATM   20  H           1     -34.454  -0.925 -14.555  0.00  0.00     0.275 HD
HETATM   21  H           1     -35.776  -1.112 -15.619  0.00  0.00     0.275 HD
ENDBRANCH  17  18
BRANCH  17  22
HETATM   22  C           1     -37.687  -0.322 -14.306  0.00  0.00     0.145 C 
BRANCH  22  23
HETATM   23  C           1     -37.806   0.159 -15.732  0.00  0.00     0.217 C 
HETATM   24  O           1     -37.685  -0.623 -16.645  0.00  0.00    -0.274 OA
HETATM   25  N           1     -38.052   1.480 -15.991  0.00  0.00    -0.370 N 
HETATM   26  H           1     -38.154   2.135 -15.226  0.00  0.00     0.159 HD
HETATM   27  H           1     -38.132   1.802 -16.947  0.00  0.00     0.159 HD
ENDBRANCH  22  23
ENDBRANCH  17  22
ENDBRANCH   3  17
TORSDOF 11
ENDMDL
MODEL 2
REMARK VINA RESULT:      -6.5      2.654      3.105
REMARK  11 active torsions:
REMARK  status: ('A' for Active; 'I' for Inactive)
REMARK    1  A    between atoms: N_3  and  C_21 
REMARK    2  A    between atoms: C_11  and  C_27 
REMARK    3  A    between atoms: C_11  and  C_12 
REMARK    4  A    between atoms: C_12  and  C_13 
REMARK    5  A    between atoms: C_13  and  C_14 
REMARK    6  A    between atoms: C_14  and  C_15 
REMARK    7  A    between atoms: C_14  and  N_23 
REMARK       I    between atoms: N_18  and  C_19 
REMARK    8  A    between atoms: C_19  and  C_20 
REMARK    9  A    between atoms: C_20  and  C_21 
REMARK   10  A    between atoms: C_21  and  C_22 
REMARK       I    between atoms: C_22  and  N_23 
REMARK   11  A    between atoms: N_25  and  C_27 
ROOT
HETATM    1  O           1     -37.229  -0.920 -12.997  0.00  0.00    -0.271 OA
HETATM    2  H           1     -34.540  -0.008 -11.662  0.00  0.00     0.163 HD
HETATM    3  C           1     -36.179  -0.334 -12.883  0.00  0.00     0.249 C 
HETATM    4  N           1     -35.419  -0.500 -11.757  0.00  0.00    -0.345 N 
ENDROOT
BRANCH   4   5
HETATM    5  C           1     -35.875  -1.382 -10.700  0.00  0.00     0.185 C 
BRANCH   5   6
HETATM    6  C           1     -34.682  -2.114 -10.100  0.00  0.00     0.036 C 
BRANCH   6   7
HETATM    7  C           1     -33.535  -2.122 -11.103  0.00  0.00     0.004 C 
BRANCH   7   8
HETATM    8  C           1     -33.222  -3.557 -11.506  0.00  0.00     0.027 C 
BRANCH   8   9
HETATM    9  C           1     -34.237  -4.028 -12.541  0.00  0.00     0.229 C 
BRANCH   9  10
HETATM   10  N           1     -33.564  -4.162 -13.875  0.00  0.00    -0.079 N 
HETATM   11  H           1     -34.248  -3.943 -14.634  0.00  0.00     0.274 HD
HETATM   12  H           1     -33.215  -5.141 -13.991  0.00  0.00     0.274 HD
HETATM   13  H           1     -32.760  -3.498 -13.929  0.00  0.00     0.274 HD
ENDBRANCH   9  10
ENDBRANCH   8   9
ENDBRANCH   7   8
ENDBRANCH   6   7
ENDBRANCH   5   6
BRANCH   5  14
HETATM   14  C           1     -36.557  -0.569  -9.627  0.00  0.00     0.196 C 
HETATM   15  O           1     -35.894  -0.119  -8.667  0.00  0.00    -0.646 OA
HETATM   16  O           1     -37.784  -0.344  -9.698  0.00  0.00    -0.646 OA
ENDBRANCH   5  14
ENDBRANCH   4   5
BRANCH   3  17
HETATM   17  C           1     -35.705   0.584 -13.983  0.00  0.00     0.283 C 
BRANCH  17  18
HETATM   18  N           1     -34.395   1.200 -13.591  0.00  0.00    -0.066 N 
HETATM   19  H           1     -33.611   0.653 -14.014  0.00  0.00     0.275 HD
HETATM   20  H           1     -34.357   2.186 -13.936  0.00  0.00     0.275 HD
HETATM   21  H           1     -34.304   1.190 -12.550  0.00  0.00     0.275 HD
ENDBRANCH  17  18
BRANCH  17  22
HETATM   22  C           1     -35.526  -0.213 -15.269  0.00  0.00     0.145 C 
BRANCH  22  23
HETATM   23  C           1     -36.755  -0.061 -16.131  0.00  0.00     0.217 C 
HETATM   24  O           1     -36.878  -0.728 -17.131  0.00  0.00    -0.274 OA
HETATM   25  N           1     -37.732   0.831 -15.780  0.00  0.00    -0.370 N 
HETATM   26  H           1     -37.629   1.389 -14.942  0.00  0.00     0.159 HD
HETATM   27  H           1     -38.557   0.932 -16.358  0.00  0.00     0.159 HD
ENDBRANCH  22  23
ENDBRANCH  17  22
ENDBRANCH   3  17
TORSDOF 11
ENDMDL
MODEL 3
REMARK VINA RESULT:      -6.5      3.922      5.221
REMARK  11 active torsions:
REMARK  status: ('A' for Active; 'I' for Inactive)
REMARK    1  A    between atoms: N_3  and  C_21 
REMARK    2  A    between atoms: C_11  and  C_27 
REMARK    3  A    between atoms: C_11  and  C_12 
REMARK    4  A    between atoms: C_12  and  C_13 
REMARK    5  A    between atoms: C_13  and  C_14 
REMARK    6  A    between atoms: C_14  and  C_15 
REMARK    7  A    between atoms: C_14  and  N_23 
REMARK       I    between atoms: N_18  and  C_19 
REMARK    8  A    between atoms: C_19  and  C_20 
REMARK    9  A    between atoms: C_20  and  C_21 
REMARK   10  A    between atoms: C_21  and  C_22 
REMARK       I    between atoms: C_22  and  N_23 
REMARK   11  A    between atoms: N_25  and  C_27 
ROOT
HETATM    1  O           1     -35.014  -5.072 -15.322  0.00  0.00    -0.271 OA
HETATM    2  H           1     -32.520  -3.501 -14.246  0.00  0.00     0.163 HD
HETATM    3  C           1     -33.944  -4.512 -15.357  0.00  0.00     0.249 C 
HETATM    4  N           1     -33.416  -3.970 -14.216  0.00  0.00    -0.345 N 
ENDROOT
BRANCH   4   5
HETATM    5  C           1     -34.142  -4.068 -12.965  0.00  0.00     0.185 C 
BRANCH   5   6
HETATM    6  C           1     -33.160  -4.311 -11.826  0.00  0.00     0.036 C 
BRANCH   6   7
HETATM    7  C           1     -33.386  -5.702 -11.248  0.00  0.00     0.004 C 
BRANCH   7   8
HETATM    8  C           1     -34.536  -5.656 -10.251  0.00  0.00     0.027 C 
BRANCH   8   9
HETATM    9  C           1     -34.863  -7.069  -9.786  0.00  0.00     0.229 C 
BRANCH   9  10
HETATM   10  N           1     -34.774  -8.012 -10.949  0.00  0.00    -0.079 N 
HETATM   11  H           1     -33.927  -7.785 -11.518  0.00  0.00     0.274 HD
HETATM   12  H           1     -35.629  -7.914 -11.542  0.00  0.00     0.274 HD
HETATM   13  H           1     -34.705  -8.994 -10.598  0.00  0.00     0.274 HD
ENDBRANCH   9  10
ENDBRANCH   8   9
ENDBRANCH   7   8
ENDBRANCH   6   7
ENDBRANCH   5   6
BRANCH   5  14
HETATM   14  C           1     -34.891  -2.782 -12.717  0.00  0.00     0.196 C 
HETATM   15  O           1     -34.858  -1.866 -13.566  0.00  0.00    -0.646 OA
HETATM   16  O           1     -35.547  -2.633 -11.663  0.00  0.00    -0.646 OA
ENDBRANCH   5  14
ENDBRANCH   4   5
BRANCH   3  17
HETATM   17  C           1     -33.188  -4.410 -16.659  0.00  0.00     0.283 C 
BRANCH  17  18
HETATM   18  N           1     -33.491  -3.094 -17.311  0.00  0.00    -0.066 N 
HETATM   19  H           1     -32.834  -2.939 -18.108  0.00  0.00     0.275 HD
HETATM   20  H           1     -34.475  -3.100 -17.667  0.00  0.00     0.275 HD
HETATM   21  H           1     -33.379  -2.325 -16.612  0.00  0.00     0.275 HD
ENDBRANCH  17  18
BRANCH  17  22
HETATM   22  C           1     -31.693  -4.510 -16.390  0.00  0.00     0.145 C 
BRANCH  22  23
HETATM   23  C           1     -31.127  -5.700 -17.126  0.00  0.00     0.217 C 
HETATM   24  O           1     -30.019  -5.643 -17.605  0.00  0.00    -0.274 OA
HETATM   25  N           1     -31.868  -6.844 -17.252  0.00  0.00    -0.370 N 
HETATM   26  H           1     -32.796  -6.891 -16.850  0.00  0.00     0.159 HD
HETATM   27  H           1     -31.489  -7.642 -17.745  0.00  0.00     0.159 HD
ENDBRANCH  22  23
ENDBRANCH  17  22
ENDBRANCH   3  17
TORSDOF 11
ENDMDL
MODEL 4
REMARK VINA RESULT:      -6.2      2.112      2.663
REMARK  11 active torsions:
REMARK  status: ('A' for Active; 'I' for Inactive)
REMARK    1  A    between atoms: N_3  and  C_21 
REMARK    2  A    between atoms: C_11  and  C_27 
REMARK    3  A    between atoms: C_11  and  C_12 
REMARK    4  A    between atoms: C_12  and  C_13 
REMARK    5  A    between atoms: C_13  and  C_14 
REMARK    6  A    between atoms: C_14  and  C_15 
REMARK    7  A    between atoms: C_14  and  N_23 
REMARK       I    between atoms: N_18  and  C_19 
REMARK    8  A    between atoms: C_19  and  C_20 
REMARK    9  A    between atoms: C_20  and  C_21 
REMARK   10  A    between atoms: C_21  and  C_22 
REMARK       I    between atoms: C_22  and  N_23 
REMARK   11  A    between atoms: N_25  and  C_27 
ROOT
HETATM    1  O           1     -34.101  -1.264 -11.133  0.00  0.00    -0.271 OA
HETATM    2  H           1     -35.754  -2.255 -13.608  0.00  0.00     0.163 HD
HETATM    3  C           1     -34.886  -1.206 -12.049  0.00  0.00     0.249 C 
HETATM    4  N           1     -35.097  -2.304 -12.841  0.00  0.00    -0.345 N 
ENDROOT
BRANCH   4   5
HETATM    5  C           1     -34.379  -3.536 -12.577  0.00  0.00     0.185 C 
BRANCH   5   6
HETATM    6  C           1     -35.089  -4.311 -11.476  0.00  0.00     0.036 C 
BRANCH   6   7
HETATM    7  C           1     -34.058  -4.889 -10.516  0.00  0.00     0.004 C 
BRANCH   7   8
HETATM    8  C           1     -33.953  -6.394 -10.728  0.00  0.00     0.027 C 
BRANCH   8   9
HETATM    9  C           1     -34.901  -7.109  -9.775  0.00  0.00     0.229 C 
BRANCH   9  10
HETATM   10  N           1     -34.397  -8.498  -9.516  0.00  0.00    -0.079 N 
HETATM   11  H           1     -33.395  -8.456  -9.220  0.00  0.00     0.274 HD
HETATM   12  H           1     -34.478  -9.066 -10.390  0.00  0.00     0.274 HD
HETATM   13  H           1     -34.965  -8.940  -8.759  0.00  0.00     0.274 HD
ENDBRANCH   9  10
ENDBRANCH   8   9
ENDBRANCH   7   8
ENDBRANCH   6   7
ENDBRANCH   5   6
BRANCH   5  14
HETATM   14  C           1     -34.337  -4.370 -13.834  0.00  0.00     0.196 C 
HETATM   15  O           1     -35.048  -5.394 -13.928  0.00  0.00    -0.646 OA
HETATM   16  O           1     -33.593  -4.037 -14.781  0.00  0.00    -0.646 OA
ENDBRANCH   5  14
ENDBRANCH   4   5
BRANCH   3  17
HETATM   17  C           1     -35.633   0.076 -12.323  0.00  0.00     0.283 C 
BRANCH  17  18
HETATM   18  N           1     -35.958   0.752 -11.025  0.00  0.00    -0.066 N 
HETATM   19  H           1     -35.948   1.789 -11.159  0.00  0.00     0.275 HD
HETATM   20  H           1     -36.907   0.452 -10.704  0.00  0.00     0.275 HD
HETATM   21  H           1     -35.247   0.487 -10.306  0.00  0.00     0.275 HD
ENDBRANCH  17  18
BRANCH  17  22
HETATM   22  C           1     -34.769   0.997 -13.173  0.00  0.00     0.145 C 
BRANCH  22  23
HETATM   23  C           1     -35.100   0.796 -14.631  0.00  0.00     0.217 C 
HETATM   24  O           1     -34.716  -0.195 -15.207  0.00  0.00    -0.274 OA
HETATM   25  N           1     -35.836   1.734 -15.303  0.00  0.00    -0.370 N 
HETATM   26  H           1     -36.158   2.564 -14.820  0.00  0.00     0.159 HD
HETATM   27  H           1     -36.059   1.598 -16.281  0.00  0.00     0.159 HD
ENDBRANCH  22  23
ENDBRANCH  17  22
ENDBRANCH   3  17
TORSDOF 11
ENDMDL
MODEL 5
REMARK VINA RESULT:      -6.2     11.680     15.135
REMARK  11 active torsions:
REMARK  status: ('A' for Active; 'I' for Inactive)
REMARK    1  A    between atoms: N_3  and  C_21 
REMARK    2  A    between atoms: C_11  and  C_27 
REMARK    3  A    between atoms: C_11  and  C_12 
REMARK    4  A    between atoms: C_12  and  C_13 
REMARK    5  A    between atoms: C_13  and  C_14 
REMARK    6  A    between atoms: C_14  and  C_15 
REMARK    7  A    between atoms: C_14  and  N_23 
REMARK       I    between atoms: N_18  and  C_19 
REMARK    8  A    between atoms: C_19  and  C_20 
REMARK    9  A    between atoms: C_20  and  C_21 
REMARK   10  A    between atoms: C_21  and  C_22 
REMARK       I    between atoms: C_22  and  N_23 
REMARK   11  A    between atoms: N_25  and  C_27 
ROOT
HETATM    1  O           1     -22.172  -3.615  -7.434  0.00  0.00    -0.271 OA
HETATM    2  H           1     -21.805  -5.601  -9.834  0.00  0.00     0.163 HD
HETATM    3  C           1     -21.831  -4.619  -8.013  0.00  0.00     0.249 C 
HETATM    4  N           1     -22.089  -4.760  -9.350  0.00  0.00    -0.345 N 
ENDROOT
BRANCH   4   5
HETATM    5  C           1     -22.769  -3.702 -10.072  0.00  0.00     0.185 C 
BRANCH   5   6
HETATM    6  C           1     -22.473  -3.832 -11.560  0.00  0.00     0.036 C 
BRANCH   6   7
HETATM    7  C           1     -22.691  -2.488 -12.241  0.00  0.00     0.004 C 
BRANCH   7   8
HETATM    8  C           1     -23.851  -2.596 -13.221  0.00  0.00     0.027 C 
BRANCH   8   9
HETATM    9  C           1     -23.527  -1.805 -14.482  0.00  0.00     0.229 C 
BRANCH   9  10
HETATM   10  N           1     -24.461  -0.637 -14.594  0.00  0.00    -0.079 N 
HETATM   11  H           1     -25.227  -0.734 -13.888  0.00  0.00     0.274 HD
HETATM   12  H           1     -24.873  -0.611 -15.554  0.00  0.00     0.274 HD
HETATM   13  H           1     -23.935   0.249 -14.417  0.00  0.00     0.274 HD
ENDBRANCH   9  10
ENDBRANCH   8   9
ENDBRANCH   7   8
ENDBRANCH   6   7
ENDBRANCH   5   6
BRANCH   5  14
HETATM   14  C           1     -24.257  -3.815  -9.843  0.00  0.00     0.196 C 
HETATM   15  O           1     -24.931  -2.791  -9.601  0.00  0.00    -0.646 OA
HETATM   16  O           1     -24.815  -4.932  -9.898  0.00  0.00    -0.646 OA
ENDBRANCH   5  14
ENDBRANCH   4   5
BRANCH   3  17
HETATM   17  C           1     -21.123  -5.719  -7.261  0.00  0.00     0.283 C 
BRANCH  17  18
HETATM   18  N           1     -19.785  -5.972  -7.888  0.00  0.00    -0.066 N 
HETATM   19  H           1     -19.484  -6.952  -7.688  0.00  0.00     0.275 HD
HETATM   20  H           1     -19.853  -5.833  -8.923  0.00  0.00     0.275 HD
HETATM   21  H           1     -19.083  -5.305  -7.493  0.00  0.00     0.275 HD
ENDBRANCH  17  18
BRANCH  17  22
HETATM   22  C           1     -20.932  -5.303  -5.809  0.00  0.00     0.145 C 
BRANCH  22  23
HETATM   23  C           1     -21.713  -6.231  -4.912  0.00  0.00     0.217 C 
HETATM   24  O           1     -22.921  -6.199  -4.915  0.00  0.00    -0.274 OA
HETATM   25  N           1     -21.055  -7.110  -4.096  0.00  0.00    -0.370 N 
HETATM   26  H           1     -20.043  -7.137  -4.094  0.00  0.00     0.159 HD
HETATM   27  H           1     -21.579  -7.733  -3.494  0.00  0.00     0.159 HD
ENDBRANCH  22  23
ENDBRANCH  17  22
ENDBRANCH   3  17
TORSDOF 11
ENDMDL
MODEL 6
REMARK VINA RESULT:      -6.1      1.890      2.298
REMARK  11 active torsions:
REMARK  status: ('A' for Active; 'I' for Inactive)
REMARK    1  A    between atoms: N_3  and  C_21 
REMARK    2  A    between atoms: C_11  and  C_27 
REMARK    3  A    between atoms: C_11  and  C_12 
REMARK    4  A    between atoms: C_12  and  C_13 
REMARK    5  A    between atoms: C_13  and  C_14 
REMARK    6  A    between atoms: C_14  and  C_15 
REMARK    7  A    between atoms: C_14  and  N_23 
REMARK       I    between atoms: N_18  and  C_19 
REMARK    8  A    between atoms: C_19  and  C_20 
REMARK    9  A    between atoms: C_20  and  C_21 
REMARK   10  A    between atoms: C_21  and  C_22 
REMARK       I    between atoms: C_22  and  N_23 
REMARK   11  A    between atoms: N_25  and  C_27 
ROOT
HETATM    1  O           1     -35.025  -2.026 -14.131  0.00  0.00    -0.271 OA
HETATM    2  H           1     -35.124  -0.546 -11.366  0.00  0.00     0.163 HD
HETATM    3  C           1     -35.090  -1.097 -13.361  0.00  0.00     0.249 C 
HETATM    4  N           1     -35.069  -1.324 -12.011  0.00  0.00    -0.345 N 
ENDROOT
BRANCH   4   5
HETATM    5  C           1     -34.966  -2.679 -11.505  0.00  0.00     0.185 C 
BRANCH   5   6
HETATM    6  C           1     -33.725  -2.801 -10.631  0.00  0.00     0.036 C 
BRANCH   6   7
HETATM    7  C           1     -32.617  -3.490 -11.416  0.00  0.00     0.004 C 
BRANCH   7   8
HETATM    8  C           1     -33.172  -4.738 -12.090  0.00  0.00     0.027 C 
BRANCH   8   9
HETATM    9  C           1     -33.447  -5.805 -11.038  0.00  0.00     0.229 C 
BRANCH   9  10
HETATM   10  N           1     -34.661  -6.594 -11.432  0.00  0.00    -0.079 N 
HETATM   11  H           1     -34.873  -6.428 -12.442  0.00  0.00     0.274 HD
HETATM   12  H           1     -35.476  -6.291 -10.851  0.00  0.00     0.274 HD
HETATM   13  H           1     -34.482  -7.611 -11.276  0.00  0.00     0.274 HD
ENDBRANCH   9  10
ENDBRANCH   8   9
ENDBRANCH   7   8
ENDBRANCH   6   7
ENDBRANCH   5   6
BRANCH   5  14
HETATM   14  C           1     -36.192  -3.003 -10.687  0.00  0.00     0.196 C 
HETATM   15  O           1     -36.920  -2.082 -10.260  0.00  0.00    -0.646 OA
HETATM   16  O           1     -36.480  -4.193 -10.438  0.00  0.00    -0.646 OA
ENDBRANCH   5  14
ENDBRANCH   4   5
BRANCH   3  17
HETATM   17  C           1     -35.197   0.313 -13.887  0.00  0.00     0.283 C 
BRANCH  17  18
HETATM   18  N           1     -34.226   0.501 -15.015  0.00  0.00    -0.066 N 
HETATM   19  H           1     -34.597   0.041 -15.876  0.00  0.00     0.275 HD
HETATM   20  H           1     -34.096   1.523 -15.195  0.00  0.00     0.275 HD
HETATM   21  H           1     -33.308   0.073 -14.758  0.00  0.00     0.275 HD
ENDBRANCH  17  18
BRANCH  17  22
HETATM   22  C           1     -36.612   0.563 -14.391  0.00  0.00     0.145 C 
BRANCH  22  23
HETATM   23  C           1     -36.570   0.917 -15.857  0.00  0.00     0.217 C 
HETATM   24  O           1     -36.441   0.046 -16.685  0.00  0.00    -0.274 OA
HETATM   25  N           1     -36.677   2.223 -16.250  0.00  0.00    -0.370 N 
HETATM   26  H           1     -36.785   2.952 -15.557  0.00  0.00     0.159 HD
HETATM   27  H           1     -36.649   2.460 -17.234  0.00  0.00     0.159 HD
ENDBRANCH  22  23
ENDBRANCH  17  22
ENDBRANCH   3  17
TORSDOF 11
ENDMDL
MODEL 7
REMARK VINA RESULT:      -6.0      2.164      2.745
REMARK  11 active torsions:
REMARK  status: ('A' for Active; 'I' for Inactive)
REMARK    1  A    between atoms: N_3  and  C_21 
REMARK    2  A    between atoms: C_11  and  C_27 
REMARK    3  A    between atoms: C_11  and  C_12 
REMARK    4  A    between atoms: C_12  and  C_13 
REMARK    5  A    between atoms: C_13  and  C_14 
REMARK    6  A    between atoms: C_14  and  C_15 
REMARK    7  A    between atoms: C_14  and  N_23 
REMARK       I    between atoms: N_18  and  C_19 
REMARK    8  A    between atoms: C_19  and  C_20 
REMARK    9  A    between atoms: C_20  and  C_21 
REMARK   10  A    between atoms: C_21  and  C_22 
REMARK       I    between atoms: C_22  and  N_23 
REMARK   11  A    between atoms: N_25  and  C_27 
ROOT
HETATM    1  O           1     -34.804  -1.303  -9.856  0.00  0.00    -0.271 OA
HETATM    2  H           1     -36.409  -2.980 -11.966  0.00  0.00     0.163 HD
HETATM    3  C           1     -35.675  -1.559 -10.653  0.00  0.00     0.249 C 
HETATM    4  N           1     -35.680  -2.766 -11.298  0.00  0.00    -0.345 N 
ENDROOT
BRANCH   4   5
HETATM    5  C           1     -34.640  -3.739 -11.023  0.00  0.00     0.185 C 
BRANCH   5   6
HETATM    6  C           1     -35.237  -5.140 -11.049  0.00  0.00     0.036 C 
BRANCH   6   7
HETATM    7  C           1     -34.339  -6.089 -10.267  0.00  0.00     0.004 C 
BRANCH   7   8
HETATM    8  C           1     -34.722  -7.528 -10.584  0.00  0.00     0.027 C 
BRANCH   8   9
HETATM    9  C           1     -33.988  -8.470  -9.638  0.00  0.00     0.229 C 
BRANCH   9  10
HETATM   10  N           1     -33.479  -9.654 -10.406  0.00  0.00    -0.079 N 
HETATM   11  H           1     -32.803 -10.189  -9.815  0.00  0.00     0.274 HD
HETATM   12  H           1     -32.999  -9.325 -11.274  0.00  0.00     0.274 HD
HETATM   13  H           1     -34.280 -10.273 -10.665  0.00  0.00     0.274 HD
ENDBRANCH   9  10
ENDBRANCH   8   9
ENDBRANCH   7   8
ENDBRANCH   6   7
ENDBRANCH   5   6
BRANCH   5  14
HETATM   14  C           1     -33.562  -3.631 -12.073  0.00  0.00     0.196 C 
HETATM   15  O           1     -32.359  -3.611 -11.733  0.00  0.00    -0.646 OA
HETATM   16  O           1     -33.870  -3.564 -13.282  0.00  0.00    -0.646 OA
ENDBRANCH   5  14
ENDBRANCH   4   5
BRANCH   3  17
HETATM   17  C           1     -36.757  -0.547 -10.940  0.00  0.00     0.283 C 
BRANCH  17  18
HETATM   18  N           1     -36.425   0.747 -10.258  0.00  0.00    -0.066 N 
HETATM   19  H           1     -35.512   1.108 -10.617  0.00  0.00     0.275 HD
HETATM   20  H           1     -37.177   1.447 -10.454  0.00  0.00     0.275 HD
HETATM   21  H           1     -36.355   0.590  -9.227  0.00  0.00     0.275 HD
ENDBRANCH  17  18
BRANCH  17  22
HETATM   22  C           1     -36.855  -0.317 -12.442  0.00  0.00     0.145 C 
BRANCH  22  23
HETATM   23  C           1     -35.480  -0.038 -12.999  0.00  0.00     0.217 C 
HETATM   24  O           1     -34.817   0.866 -12.548  0.00  0.00    -0.274 OA
HETATM   25  N           1     -34.983  -0.809 -14.014  0.00  0.00    -0.370 N 
HETATM   26  H           1     -35.538  -1.567 -14.392  0.00  0.00     0.159 HD
HETATM   27  H           1     -34.061  -0.622 -14.388  0.00  0.00     0.159 HD
ENDBRANCH  22  23
ENDBRANCH  17  22
ENDBRANCH   3  17
TORSDOF 11
ENDMDL
MODEL 8
REMARK VINA RESULT:      -5.9     12.424     14.539
REMARK  11 active torsions:
REMARK  status: ('A' for Active; 'I' for Inactive)
REMARK    1  A    between atoms: N_3  and  C_21 
REMARK    2  A    between atoms: C_11  and  C_27 
REMARK    3  A    between atoms: C_11  and  C_12 
REMARK    4  A    between atoms: C_12  and  C_13 
REMARK    5  A    between atoms: C_13  and  C_14 
REMARK    6  A    between atoms: C_14  and  C_15 
REMARK    7  A    between atoms: C_14  and  N_23 
REMARK       I    between atoms: N_18  and  C_19 
REMARK    8  A    between atoms: C_19  and  C_20 
REMARK    9  A    between atoms: C_20  and  C_21 
REMARK   10  A    between atoms: C_21  and  C_22 
REMARK       I    between atoms: C_22  and  N_23 
REMARK   11  A    between atoms: N_25  and  C_27 
ROOT
HETATM    1  O           1     -23.118  -3.245  -8.518  0.00  0.00    -0.271 OA
HETATM    2  H           1     -21.999  -6.086  -9.240  0.00  0.00     0.163 HD
HETATM    3  C           1     -23.038  -4.301  -9.098  0.00  0.00     0.249 C 
HETATM    4  N           1     -22.066  -5.201  -8.753  0.00  0.00    -0.345 N 
ENDROOT
BRANCH   4   5
HETATM    5  C           1     -21.133  -4.887  -7.689  0.00  0.00     0.185 C 
BRANCH   5   6
HETATM    6  C           1     -20.991  -6.090  -6.766  0.00  0.00     0.036 C 
BRANCH   6   7
HETATM    7  C           1     -21.127  -5.638  -5.318  0.00  0.00     0.004 C 
BRANCH   7   8
HETATM    8  C           1     -22.038  -6.601  -4.569  0.00  0.00     0.027 C 
BRANCH   8   9
HETATM    9  C           1     -21.551  -6.749  -3.133  0.00  0.00     0.229 C 
BRANCH   9  10
HETATM   10  N           1     -22.365  -5.864  -2.235  0.00  0.00    -0.079 N 
HETATM   11  H           1     -21.790  -5.582  -1.410  0.00  0.00     0.274 HD
HETATM   12  H           1     -23.211  -6.384  -1.909  0.00  0.00     0.274 HD
HETATM   13  H           1     -22.661  -5.012  -2.761  0.00  0.00     0.274 HD
ENDBRANCH   9  10
ENDBRANCH   8   9
ENDBRANCH   7   8
ENDBRANCH   6   7
ENDBRANCH   5   6
BRANCH   5  14
HETATM   14  C           1     -19.788  -4.549  -8.285  0.00  0.00     0.196 C 
HETATM   15  O           1     -18.795  -4.399  -7.541  0.00  0.00    -0.646 OA
HETATM   16  O           1     -19.667  -4.420  -9.522  0.00  0.00    -0.646 OA
ENDBRANCH   5  14
ENDBRANCH   4   5
BRANCH   3  17
HETATM   17  C           1     -24.010  -4.629 -10.205  0.00  0.00     0.283 C 
BRANCH  17  18
HETATM   18  N           1     -25.051  -3.553 -10.292  0.00  0.00    -0.066 N 
HETATM   19  H           1     -24.617  -2.674 -10.654  0.00  0.00     0.275 HD
HETATM   20  H           1     -25.813  -3.857 -10.940  0.00  0.00     0.275 HD
HETATM   21  H           1     -25.451  -3.378  -9.342  0.00  0.00     0.275 HD
ENDBRANCH  17  18
BRANCH  17  22
HETATM   22  C           1     -23.263  -4.718 -11.529  0.00  0.00     0.145 C 
BRANCH  22  23
HETATM   23  C           1     -22.632  -3.383 -11.841  0.00  0.00     0.217 C 
HETATM   24  O           1     -23.322  -2.457 -12.199  0.00  0.00    -0.274 OA
HETATM   25  N           1     -21.279  -3.219 -11.720  0.00  0.00    -0.370 N 
HETATM   26  H           1     -20.701  -3.994 -11.420  0.00  0.00     0.159 HD
HETATM   27  H           1     -20.856  -2.324 -11.929  0.00  0.00     0.159 HD
ENDBRANCH  22  23
ENDBRANCH  17  22
ENDBRANCH   3  17
TORSDOF 11
ENDMDL
MODEL 9
REMARK VINA RESULT:      -5.7     14.584     16.310
REMARK  11 active torsions:
REMARK  status: ('A' for Active; 'I' for Inactive)
REMARK    1  A    between atoms: N_3  and  C_21 
REMARK    2  A    between atoms: C_11  and  C_27 
REMARK    3  A    between atoms: C_11  and  C_12 
REMARK    4  A    between atoms: C_12  and  C_13 
REMARK    5  A    between atoms: C_13  and  C_14 
REMARK    6  A    between atoms: C_14  and  C_15 
REMARK    7  A    between atoms: C_14  and  N_23 
REMARK       I    between atoms: N_18  and  C_19 
REMARK    8  A    between atoms: C_19  and  C_20 
REMARK    9  A    between atoms: C_20  and  C_21 
REMARK   10  A    between atoms: C_21  and  C_22 
REMARK       I    between atoms: C_22  and  N_23 
REMARK   11  A    between atoms: N_25  and  C_27 
ROOT
HETATM    1  O           1     -20.392  -4.289  -6.304  0.00  0.00    -0.271 OA
HETATM    2  H           1     -21.946  -6.962  -6.834  0.00  0.00     0.163 HD
HETATM    3  C           1     -21.086  -5.081  -6.897  0.00  0.00     0.249 C 
HETATM    4  N           1     -21.366  -6.299  -6.337  0.00  0.00    -0.345 N 
ENDROOT
BRANCH   4   5
HETATM    5  C           1     -20.831  -6.637  -5.033  0.00  0.00     0.185 C 
BRANCH   5   6
HETATM    6  C           1     -21.958  -6.643  -4.009  0.00  0.00     0.036 C 
BRANCH   6   7
HETATM    7  C           1     -21.466  -6.022  -2.708  0.00  0.00     0.004 C 
BRANCH   7   8
HETATM    8  C           1     -22.224  -6.631  -1.536  0.00  0.00     0.027 C 
BRANCH   8   9
HETATM    9  C           1     -21.415  -7.781  -0.949  0.00  0.00     0.229 C 
BRANCH   9  10
HETATM   10  N           1     -21.953  -9.083  -1.462  0.00  0.00    -0.079 N 
HETATM   11  H           1     -21.461  -9.875  -0.989  0.00  0.00     0.274 HD
HETATM   12  H           1     -21.797  -9.142  -2.494  0.00  0.00     0.274 HD
HETATM   13  H           1     -22.977  -9.141  -1.262  0.00  0.00     0.274 HD
ENDBRANCH   9  10
ENDBRANCH   8   9
ENDBRANCH   7   8
ENDBRANCH   6   7
ENDBRANCH   5   6
BRANCH   5  14
HETATM   14  C           1     -20.196  -8.005  -5.090  0.00  0.00     0.196 C 
HETATM   15  O           1     -19.364  -8.271  -5.985  0.00  0.00    -0.646 OA
HETATM   16  O           1     -20.500  -8.871  -4.242  0.00  0.00    -0.646 OA
ENDBRANCH   5  14
ENDBRANCH   4   5
BRANCH   3  17
HETATM   17  C           1     -21.642  -4.729  -8.254  0.00  0.00     0.283 C 
BRANCH  17  18
HETATM   18  N           1     -22.607  -3.589  -8.119  0.00  0.00    -0.066 N 
HETATM   19  H           1     -23.469  -3.917  -7.627  0.00  0.00     0.275 HD
HETATM   20  H           1     -22.162  -2.820  -7.566  0.00  0.00     0.275 HD
HETATM   21  H           1     -22.862  -3.233  -9.068  0.00  0.00     0.275 HD
ENDBRANCH  17  18
BRANCH  17  22
HETATM   22  C           1     -20.505  -4.322  -9.181  0.00  0.00     0.145 C 
BRANCH  22  23
HETATM   23  C           1     -21.042  -4.112 -10.576  0.00  0.00     0.217 C 
HETATM   24  O           1     -22.095  -4.609 -10.898  0.00  0.00    -0.274 OA
HETATM   25  N           1     -20.337  -3.360 -11.476  0.00  0.00    -0.370 N 
HETATM   26  H           1     -19.455  -2.944 -11.205  0.00  0.00     0.159 HD
HETATM   27  H           1     -20.698  -3.220 -12.411  0.00  0.00     0.159 HD
ENDBRANCH  22  23
ENDBRANCH  17  22
ENDBRANCH   3  17
TORSDOF 11
ENDMDL
