MODEL 1
REMARK VINA RESULT:      -5.8      0.000      0.000
REMARK  6 active torsions:
REMARK  status: ('A' for Active; 'I' for Inactive)
REMARK    1  A    between atoms: C_1  and  C_4 
REMARK    2  A    between atoms: C_1  and  C_9 
REMARK       I    between atoms: N_2  and  C_3 
REMARK    3  A    between atoms: C_3  and  C_4 
REMARK    4  A    between atoms: C_4  and  N_15 
REMARK    5  A    between atoms: C_9  and  S_14 
REMARK    6  A    between atoms: C_16  and  C_18 
ROOT
HETATM    1  N           1     -35.932  -0.917 -13.315  0.00  0.00    -0.336 N 
HETATM    2  C           1     -35.065  -1.863 -12.841  0.00  0.00     0.251 C 
HETATM    3  C           1     -38.053   0.080 -13.222  0.00  0.00     0.022 C 
HETATM    4  C           1     -36.697   0.057 -12.538  0.00  0.00     0.127 C 
HETATM    5  O           1     -34.501  -2.605 -13.610  0.00  0.00    -0.271 OA
HETATM    6  C           1     -37.791  -0.397 -14.646  0.00  0.00     0.038 C 
HETATM    7  C           1     -36.296  -0.660 -14.705  0.00  0.00     0.188 C 
ENDROOT
BRANCH   2   8
HETATM    8  C           1     -34.812  -1.980 -11.358  0.00  0.00     0.275 C 
BRANCH   8   9
HETATM    9  C           1     -33.531  -2.770 -11.121  0.00  0.00     0.053 C 
BRANCH   9  10
HETATM   10  C           1     -33.854  -4.045 -10.354  0.00  0.00     0.076 C 
BRANCH  10  11
HETATM   11  S           1     -33.495  -5.488 -11.394  0.00  0.00    -0.173 SA
HETATM   12  C           1     -34.517  -6.665 -10.464  0.00  0.00     0.089 C 
ENDBRANCH  10  11
ENDBRANCH   9  10
ENDBRANCH   8   9
BRANCH   8  13
HETATM   13  N           1     -35.963  -2.690 -10.710  0.00  0.00    -0.066 N 
HETATM   14  H           1     -36.852  -2.184 -10.927  0.00  0.00     0.275 HD
HETATM   15  H           1     -36.021  -3.666 -11.078  0.00  0.00     0.275 HD
HETATM   16  H           1     -35.821  -2.714  -9.675  0.00  0.00     0.275 HD
ENDBRANCH   8  13
ENDBRANCH   2   8
BRANCH   7  17
HETATM   17  C           1     -35.559   0.543 -15.240  0.00  0.00     0.196 C 
HETATM   18  O           1     -34.355   0.715 -14.955  0.00  0.00    -0.646 OA
HETATM   19  O           1     -36.153   1.367 -15.968  0.00  0.00    -0.646 OA
ENDBRANCH   7  17
TORSDOF 6
ENDMDL
MODEL 2
REMARK VINA RESULT:      -5.6     13.216     15.046
REMARK  6 active torsions:
REMARK  status: ('A' for Active; 'I' for Inactive)
REMARK    1  A    between atoms: C_1  and  C_4 
REMARK    2  A    between atoms: C_1  and  C_9 
REMARK       I    between atoms: N_2  and  C_3 
REMARK    3  A    between atoms: C_3  and  C_4 
REMARK    4  A    between atoms: C_4  and  N_15 
REMARK    5  A    between atoms: C_9  and  S_14 
REMARK    6  A    between atoms: C_16  and  C_18 
ROOT
HETATM    1  N           1     -21.616  -4.359  -9.517  0.00  0.00    -0.336 N 
HETATM    2  C           1     -21.688  -4.607  -8.173  0.00  0.00     0.251 C 
HETATM    3  C           1     -20.364  -3.595 -11.348  0.00  0.00     0.022 C 
HETATM    4  C           1     -20.580  -4.800 -10.448  0.00  0.00     0.127 C 
HETATM    5  O           1     -22.613  -4.172  -7.528  0.00  0.00    -0.271 OA
HETATM    6  C           1     -21.662  -2.800 -11.268  0.00  0.00     0.038 C 
HETATM    7  C           1     -22.557  -3.597 -10.334  0.00  0.00     0.188 C 
ENDROOT
BRANCH   2   8
HETATM    8  C           1     -20.614  -5.422  -7.497  0.00  0.00     0.275 C 
BRANCH   8   9
HETATM    9  C           1     -21.252  -6.361  -6.481  0.00  0.00     0.053 C 
BRANCH   9  10
HETATM   10  C           1     -20.829  -5.952  -5.076  0.00  0.00     0.076 C 
BRANCH  10  11
HETATM   11  S           1     -21.231  -7.283  -3.910  0.00  0.00    -0.173 SA
HETATM   12  C           1     -21.750  -6.205  -2.545  0.00  0.00     0.089 C 
ENDBRANCH  10  11
ENDBRANCH   9  10
ENDBRANCH   8   9
BRANCH   8  13
HETATM   13  N           1     -19.658  -4.504  -6.797  0.00  0.00    -0.066 N 
HETATM   14  H           1     -18.964  -4.132  -7.485  0.00  0.00     0.275 HD
HETATM   15  H           1     -20.186  -3.709  -6.373  0.00  0.00     0.275 HD
HETATM   16  H           1     -19.155  -5.029  -6.046  0.00  0.00     0.275 HD
ENDBRANCH   8  13
ENDBRANCH   2   8
BRANCH   7  17
HETATM   17  C           1     -23.462  -4.519 -11.112  0.00  0.00     0.196 C 
HETATM   18  O           1     -24.011  -5.485 -10.540  0.00  0.00    -0.646 OA
HETATM   19  O           1     -23.664  -4.317 -12.329  0.00  0.00    -0.646 OA
ENDBRANCH   7  17
TORSDOF 6
ENDMDL
MODEL 3
REMARK VINA RESULT:      -5.6     12.935     14.604
REMARK  6 active torsions:
REMARK  status: ('A' for Active; 'I' for Inactive)
REMARK    1  A    between atoms: C_1  and  C_4 
REMARK    2  A    between atoms: C_1  and  C_9 
REMARK       I    between atoms: N_2  and  C_3 
REMARK    3  A    between atoms: C_3  and  C_4 
REMARK    4  A    between atoms: C_4  and  N_15 
REMARK    5  A    between atoms: C_9  and  S_14 
REMARK    6  A    between atoms: C_16  and  C_18 
ROOT
HETATM    1  N           1     -22.187  -4.221  -9.421  0.00  0.00    -0.336 N 
HETATM    2  C           1     -21.296  -4.570  -8.444  0.00  0.00     0.251 C 
HETATM    3  C           1     -24.405  -4.178 -10.185  0.00  0.00     0.022 C 
HETATM    4  C           1     -23.429  -3.467  -9.263  0.00  0.00     0.127 C 
HETATM    5  O           1     -20.305  -5.201  -8.729  0.00  0.00    -0.271 OA
HETATM    6  C           1     -23.535  -4.875 -11.225  0.00  0.00     0.038 C 
HETATM    7  C           1     -22.107  -4.520 -10.848  0.00  0.00     0.188 C 
ENDROOT
BRANCH   2   8
HETATM    8  C           1     -21.549  -4.169  -7.012  0.00  0.00     0.275 C 
BRANCH   8   9
HETATM    9  C           1     -20.368  -4.594  -6.148  0.00  0.00     0.053 C 
BRANCH   9  10
HETATM   10  C           1     -20.850  -5.546  -5.062  0.00  0.00     0.076 C 
BRANCH  10  11
HETATM   11  S           1     -20.289  -7.230  -5.438  0.00  0.00    -0.173 SA
HETATM   12  C           1     -21.637  -8.088  -4.577  0.00  0.00     0.089 C 
ENDBRANCH  10  11
ENDBRANCH   9  10
ENDBRANCH   8   9
BRANCH   8  13
HETATM   13  N           1     -22.796  -4.841  -6.519  0.00  0.00    -0.066 N 
HETATM   14  H           1     -22.658  -5.877  -6.520  0.00  0.00     0.275 HD
HETATM   15  H           1     -23.002  -4.520  -5.546  0.00  0.00     0.275 HD
HETATM   16  H           1     -23.595  -4.596  -7.145  0.00  0.00     0.275 HD
ENDBRANCH   8  13
ENDBRANCH   2   8
BRANCH   7  17
HETATM   17  C           1     -21.630  -3.317 -11.623  0.00  0.00     0.196 C 
HETATM   18  O           1     -20.565  -2.747 -11.299  0.00  0.00    -0.646 OA
HETATM   19  O           1     -22.299  -2.890 -12.589  0.00  0.00    -0.646 OA
ENDBRANCH   7  17
TORSDOF 6
ENDMDL
MODEL 4
REMARK VINA RESULT:      -5.4      2.656      5.615
REMARK  6 active torsions:
REMARK  status: ('A' for Active; 'I' for Inactive)
REMARK    1  A    between atoms: C_1  and  C_4 
REMARK    2  A    between atoms: C_1  and  C_9 
REMARK       I    between atoms: N_2  and  C_3 
REMARK    3  A    between atoms: C_3  and  C_4 
REMARK    4  A    between atoms: C_4  and  N_15 
REMARK    5  A    between atoms: C_9  and  S_14 
REMARK    6  A    between atoms: C_16  and  C_18 
ROOT
HETATM    1  N           1     -34.780  -2.524 -12.298  0.00  0.00    -0.336 N 
HETATM    2  C           1     -35.208  -1.684 -13.289  0.00  0.00     0.251 C 
HETATM    3  C           1     -33.824  -2.789 -10.172  0.00  0.00     0.022 C 
HETATM    4  C           1     -35.132  -2.480 -10.880  0.00  0.00     0.127 C 
HETATM    5  O           1     -34.827  -1.846 -14.424  0.00  0.00    -0.271 OA
HETATM    6  C           1     -32.992  -3.560 -11.189  0.00  0.00     0.038 C 
HETATM    7  C           1     -33.871  -3.660 -12.425  0.00  0.00     0.188 C 
ENDROOT
BRANCH   2   8
HETATM    8  C           1     -36.156  -0.556 -12.965  0.00  0.00     0.275 C 
BRANCH   8   9
HETATM    9  C           1     -36.420   0.264 -14.222  0.00  0.00     0.053 C 
BRANCH   9  10
HETATM   10  C           1     -37.893   0.162 -14.595  0.00  0.00     0.076 C 
BRANCH  10  11
HETATM   11  S           1     -38.075  -0.885 -16.066  0.00  0.00    -0.173 SA
HETATM   12  C           1     -36.454  -0.503 -16.787  0.00  0.00     0.089 C 
ENDBRANCH  10  11
ENDBRANCH   9  10
ENDBRANCH   8   9
BRANCH   8  13
HETATM   13  N           1     -35.545   0.323 -11.915  0.00  0.00    -0.066 N 
HETATM   14  H           1     -35.543  -0.178 -10.998  0.00  0.00     0.275 HD
HETATM   15  H           1     -34.563   0.556 -12.185  0.00  0.00     0.275 HD
HETATM   16  H           1     -36.102   1.203 -11.829  0.00  0.00     0.275 HD
ENDBRANCH   8  13
ENDBRANCH   2   8
BRANCH   7  17
HETATM   17  C           1     -34.635  -4.961 -12.437  0.00  0.00     0.196 C 
HETATM   18  O           1     -34.525  -5.760 -11.483  0.00  0.00    -0.646 OA
HETATM   19  O           1     -35.380  -5.239 -13.402  0.00  0.00    -0.646 OA
ENDBRANCH   7  17
TORSDOF 6
ENDMDL
MODEL 5
REMARK VINA RESULT:      -5.4     13.067     15.524
REMARK  6 active torsions:
REMARK  status: ('A' for Active; 'I' for Inactive)
REMARK    1  A    between atoms: C_1  and  C_4 
REMARK    2  A    between atoms: C_1  and  C_9 
REMARK       I    between atoms: N_2  and  C_3 
REMARK    3  A    between atoms: C_3  and  C_4 
REMARK    4  A    between atoms: C_4  and  N_15 
REMARK    5  A    between atoms: C_9  and  S_14 
REMARK    6  A    between atoms: C_16  and  C_18 
ROOT
HETATM    1  N           1     -21.255  -4.647  -8.520  0.00  0.00    -0.336 N 
HETATM    2  C           1     -21.993  -4.529  -9.666  0.00  0.00     0.251 C 
HETATM    3  C           1     -19.149  -4.649  -7.486  0.00  0.00     0.022 C 
HETATM    4  C           1     -20.232  -3.729  -8.023  0.00  0.00     0.127 C 
HETATM    5  O           1     -22.809  -5.375  -9.948  0.00  0.00    -0.271 OA
HETATM    6  C           1     -19.862  -5.958  -7.165  0.00  0.00     0.038 C 
HETATM    7  C           1     -21.317  -5.715  -7.527  0.00  0.00     0.188 C 
ENDROOT
BRANCH   2   8
HETATM    8  C           1     -21.789  -3.344 -10.578  0.00  0.00     0.275 C 
BRANCH   8   9
HETATM    9  C           1     -23.037  -3.135 -11.426  0.00  0.00     0.053 C 
BRANCH   9  10
HETATM   10  C           1     -22.724  -2.165 -12.558  0.00  0.00     0.076 C 
BRANCH  10  11
HETATM   11  S           1     -23.283  -2.872 -14.134  0.00  0.00    -0.173 SA
HETATM   12  C           1     -23.728  -1.295 -14.914  0.00  0.00     0.089 C 
ENDBRANCH  10  11
ENDBRANCH   9  10
ENDBRANCH   8   9
BRANCH   8  13
HETATM   13  N           1     -20.614  -3.601 -11.473  0.00  0.00    -0.066 N 
HETATM   14  H           1     -19.821  -2.980 -11.195  0.00  0.00     0.275 HD
HETATM   15  H           1     -20.321  -4.600 -11.384  0.00  0.00     0.275 HD
HETATM   16  H           1     -20.880  -3.402 -12.464  0.00  0.00     0.275 HD
ENDBRANCH   8  13
ENDBRANCH   2   8
BRANCH   7  17
HETATM   17  C           1     -22.107  -5.279  -6.317  0.00  0.00     0.196 C 
HETATM   18  O           1     -23.221  -4.732  -6.462  0.00  0.00    -0.646 OA
HETATM   19  O           1     -21.647  -5.466  -5.170  0.00  0.00    -0.646 OA
ENDBRANCH   7  17
TORSDOF 6
ENDMDL
MODEL 6
REMARK VINA RESULT:      -5.2      1.869      2.579
REMARK  6 active torsions:
REMARK  status: ('A' for Active; 'I' for Inactive)
REMARK    1  A    between atoms: C_1  and  C_4 
REMARK    2  A    between atoms: C_1  and  C_9 
REMARK       I    between atoms: N_2  and  C_3 
REMARK    3  A    between atoms: C_3  and  C_4 
REMARK    4  A    between atoms: C_4  and  N_15 
REMARK    5  A    between atoms: C_9  and  S_14 
REMARK    6  A    between atoms: C_16  and  C_18 
ROOT
HETATM    1  N           1     -36.135   0.133 -13.855  0.00  0.00    -0.336 N 
HETATM    2  C           1     -36.800  -0.384 -12.776  0.00  0.00     0.251 C 
HETATM    3  C           1     -34.884   1.886 -14.783  0.00  0.00     0.022 C 
HETATM    4  C           1     -34.774   0.663 -13.890  0.00  0.00     0.127 C 
HETATM    5  O           1     -37.933  -0.786 -12.901  0.00  0.00    -0.271 OA
HETATM    6  C           1     -36.109   1.635 -15.655  0.00  0.00     0.038 C 
HETATM    7  C           1     -36.631   0.276 -15.221  0.00  0.00     0.188 C 
ENDROOT
BRANCH   2   8
HETATM    8  C           1     -36.119  -0.451 -11.431  0.00  0.00     0.275 C 
BRANCH   8   9
HETATM    9  C           1     -35.112  -1.595 -11.428  0.00  0.00     0.053 C 
BRANCH   9  10
HETATM   10  C           1     -35.776  -2.855 -10.889  0.00  0.00     0.076 C 
BRANCH  10  11
HETATM   11  S           1     -34.591  -4.229 -10.928  0.00  0.00    -0.173 SA
HETATM   12  C           1     -33.141  -3.232 -11.374  0.00  0.00     0.089 C 
ENDBRANCH  10  11
ENDBRANCH   9  10
ENDBRANCH   8   9
BRANCH   8  13
HETATM   13  N           1     -37.146  -0.687 -10.364  0.00  0.00    -0.066 N 
HETATM   14  H           1     -37.754  -1.493 -10.636  0.00  0.00     0.275 HD
HETATM   15  H           1     -36.666  -0.905  -9.462  0.00  0.00     0.275 HD
HETATM   16  H           1     -37.734   0.169 -10.249  0.00  0.00     0.275 HD
ENDBRANCH   8  13
ENDBRANCH   2   8
BRANCH   7  17
HETATM   17  C           1     -36.087  -0.817 -16.107  0.00  0.00     0.196 C 
HETATM   18  O           1     -35.326  -1.687 -15.630  0.00  0.00    -0.646 OA
HETATM   19  O           1     -36.398  -0.854 -17.317  0.00  0.00    -0.646 OA
ENDBRANCH   7  17
TORSDOF 6
ENDMDL
MODEL 7
REMARK VINA RESULT:      -5.0      2.645      3.369
REMARK  6 active torsions:
REMARK  status: ('A' for Active; 'I' for Inactive)
REMARK    1  A    between atoms: C_1  and  C_4 
REMARK    2  A    between atoms: C_1  and  C_9 
REMARK       I    between atoms: N_2  and  C_3 
REMARK    3  A    between atoms: C_3  and  C_4 
REMARK    4  A    between atoms: C_4  and  N_15 
REMARK    5  A    between atoms: C_9  and  S_14 
REMARK    6  A    between atoms: C_16  and  C_18 
ROOT
HETATM    1  N           1     -36.112  -0.800 -13.399  0.00  0.00    -0.336 N 
HETATM    2  C           1     -35.461  -1.675 -12.573  0.00  0.00     0.251 C 
HETATM    3  C           1     -38.075  -0.206 -14.539  0.00  0.00     0.022 C 
HETATM    4  C           1     -37.408  -0.162 -13.175  0.00  0.00     0.127 C 
HETATM    5  O           1     -34.387  -2.124 -12.896  0.00  0.00    -0.271 OA
HETATM    6  C           1     -36.929  -0.303 -15.540  0.00  0.00     0.038 C 
HETATM    7  C           1     -35.666  -0.300 -14.697  0.00  0.00     0.188 C 
ENDROOT
BRANCH   2   8
HETATM    8  C           1     -36.084  -2.079 -11.260  0.00  0.00     0.275 C 
BRANCH   8   9
HETATM    9  C           1     -35.744  -1.043 -10.195  0.00  0.00     0.053 C 
BRANCH   9  10
HETATM   10  C           1     -36.990  -0.726  -9.379  0.00  0.00     0.076 C 
BRANCH  10  11
HETATM   11  S           1     -37.228   1.072  -9.309  0.00  0.00    -0.173 SA
HETATM   12  C           1     -36.955   1.241  -7.523  0.00  0.00     0.089 C 
ENDBRANCH  10  11
ENDBRANCH   9  10
ENDBRANCH   8   9
BRANCH   8  13
HETATM   13  N           1     -35.547  -3.416 -10.844  0.00  0.00    -0.066 N 
HETATM   14  H           1     -34.547  -3.316 -10.554  0.00  0.00     0.275 HD
HETATM   15  H           1     -36.106  -3.781 -10.041  0.00  0.00     0.275 HD
HETATM   16  H           1     -35.611  -4.083 -11.646  0.00  0.00     0.275 HD
ENDBRANCH   8  13
ENDBRANCH   2   8
BRANCH   7  17
HETATM   17  C           1     -35.106   1.096 -14.571  0.00  0.00     0.196 C 
HETATM   18  O           1     -34.326   1.374 -13.635  0.00  0.00    -0.646 OA
HETATM   19  O           1     -35.423   1.973 -15.403  0.00  0.00    -0.646 OA
ENDBRANCH   7  17
TORSDOF 6
ENDMDL
MODEL 8
REMARK VINA RESULT:      -5.0     14.246     17.026
REMARK  6 active torsions:
REMARK  status: ('A' for Active; 'I' for Inactive)
REMARK    1  A    between atoms: C_1  and  C_4 
REMARK    2  A    between atoms: C_1  and  C_9 
REMARK       I    between atoms: N_2  and  C_3 
REMARK    3  A    between atoms: C_3  and  C_4 
REMARK    4  A    between atoms: C_4  and  N_15 
REMARK    5  A    between atoms: C_9  and  S_14 
REMARK    6  A    between atoms: C_16  and  C_18 
ROOT
HETATM    1  N           1     -21.155  -6.732  -5.442  0.00  0.00    -0.336 N 
HETATM    2  C           1     -20.746  -6.134  -6.603  0.00  0.00     0.251 C 
HETATM    3  C           1     -21.905  -6.507  -3.231  0.00  0.00     0.022 C 
HETATM    4  C           1     -22.368  -6.450  -4.677  0.00  0.00     0.127 C 
HETATM    5  O           1     -19.710  -6.475  -7.124  0.00  0.00    -0.271 OA
HETATM    6  C           1     -20.658  -7.384  -3.245  0.00  0.00     0.038 C 
HETATM    7  C           1     -20.477  -7.790  -4.698  0.00  0.00     0.188 C 
ENDROOT
BRANCH   2   8
HETATM    8  C           1     -21.586  -5.050  -7.231  0.00  0.00     0.275 C 
BRANCH   8   9
HETATM    9  C           1     -21.514  -5.165  -8.748  0.00  0.00     0.053 C 
BRANCH   9  10
HETATM   10  C           1     -22.062  -3.893  -9.381  0.00  0.00     0.076 C 
BRANCH  10  11
HETATM   11  S           1     -23.877  -3.936  -9.355  0.00  0.00    -0.173 SA
HETATM   12  C           1     -24.117  -3.283 -11.031  0.00  0.00     0.089 C 
ENDBRANCH  10  11
ENDBRANCH   9  10
ENDBRANCH   8   9
BRANCH   8  13
HETATM   13  N           1     -21.066  -3.708  -6.808  0.00  0.00    -0.066 N 
HETATM   14  H           1     -21.862  -3.110  -6.489  0.00  0.00     0.275 HD
HETATM   15  H           1     -20.388  -3.830  -6.022  0.00  0.00     0.275 HD
HETATM   16  H           1     -20.587  -3.248  -7.615  0.00  0.00     0.275 HD
ENDBRANCH   8  13
ENDBRANCH   2   8
BRANCH   7  17
HETATM   17  C           1     -21.117  -9.130  -4.966  0.00  0.00     0.196 C 
HETATM   18  O           1     -21.182  -9.569  -6.134  0.00  0.00    -0.646 OA
HETATM   19  O           1     -21.582  -9.801  -4.019  0.00  0.00    -0.646 OA
ENDBRANCH   7  17
TORSDOF 6
ENDMDL
MODEL 9
REMARK VINA RESULT:      -4.8     12.557     13.819
REMARK  6 active torsions:
REMARK  status: ('A' for Active; 'I' for Inactive)
REMARK    1  A    between atoms: C_1  and  C_4 
REMARK    2  A    between atoms: C_1  and  C_9 
REMARK       I    between atoms: N_2  and  C_3 
REMARK    3  A    between atoms: C_3  and  C_4 
REMARK    4  A    between atoms: C_4  and  N_15 
REMARK    5  A    between atoms: C_9  and  S_14 
REMARK    6  A    between atoms: C_16  and  C_18 
ROOT
HETATM    1  N           1     -22.909  -3.568 -10.295  0.00  0.00    -0.336 N 
HETATM    2  C           1     -23.517  -3.613  -9.070  0.00  0.00     0.251 C 
HETATM    3  C           1     -21.097  -2.860 -11.606  0.00  0.00     0.022 C 
HETATM    4  C           1     -21.530  -3.929 -10.618  0.00  0.00     0.127 C 
HETATM    5  O           1     -24.673  -3.279  -8.958  0.00  0.00    -0.271 OA
HETATM    6  C           1     -22.390  -2.342 -12.226  0.00  0.00     0.038 C 
HETATM    7  C           1     -23.495  -3.148 -11.565  0.00  0.00     0.188 C 
ENDROOT
BRANCH   2   8
HETATM    8  C           1     -22.744  -4.078  -7.861  0.00  0.00     0.275 C 
BRANCH   8   9
HETATM    9  C           1     -21.813  -5.216  -8.259  0.00  0.00     0.053 C 
BRANCH   9  10
HETATM   10  C           1     -21.286  -5.903  -7.006  0.00  0.00     0.076 C 
BRANCH  10  11
HETATM   11  S           1     -20.073  -4.828  -6.189  0.00  0.00    -0.173 SA
HETATM   12  C           1     -19.139  -4.404  -7.687  0.00  0.00     0.089 C 
ENDBRANCH  10  11
ENDBRANCH   9  10
ENDBRANCH   8   9
BRANCH   8  13
HETATM   13  N           1     -23.702  -4.561  -6.812  0.00  0.00    -0.066 N 
HETATM   14  H           1     -23.224  -4.574  -5.883  0.00  0.00     0.275 HD
HETATM   15  H           1     -24.525  -3.918  -6.771  0.00  0.00     0.275 HD
HETATM   16  H           1     -24.024  -5.526  -7.051  0.00  0.00     0.275 HD
ENDBRANCH   8  13
ENDBRANCH   2   8
BRANCH   7  17
HETATM   17  C           1     -23.865  -4.344 -12.407  0.00  0.00     0.196 C 
HETATM   18  O           1     -24.218  -4.187 -13.596  0.00  0.00    -0.646 OA
HETATM   19  O           1     -23.818  -5.493 -11.916  0.00  0.00    -0.646 OA
ENDBRANCH   7  17
TORSDOF 6
ENDMDL
