MODEL 1
REMARK VINA RESULT:      -4.9      0.000      0.000
REMARK  8 active torsions:
REMARK  status: ('A' for Active; 'I' for Inactive)
REMARK    1  A    between atoms: C_1  and  C_13 
REMARK    2  A    between atoms: C_1  and  C_3 
REMARK    3  A    between atoms: C_3  and  C_4 
REMARK    4  A    between atoms: C_3  and  N_9 
REMARK    5  A    between atoms: N_6  and  C_14 
REMARK       I    between atoms: N_9  and  C_19 
REMARK    6  A    between atoms: C_14  and  C_19 
REMARK    7  A    between atoms: C_14  and  C_15 
REMARK    8  A    between atoms: C_15  and  S_16 
ROOT
HETATM    1  O           1     -19.874  -5.050  -6.122  0.00  0.00    -0.271 OA
HETATM    2  N           1     -21.524  -6.437  -5.534  0.00  0.00    -0.344 N 
HETATM    3  H           1     -22.498  -6.697  -5.622  0.00  0.00     0.163 HD
HETATM    4  C           1     -21.037  -5.361  -6.227  0.00  0.00     0.249 C 
ENDROOT
BRANCH   2   5
HETATM    5  C           1     -20.644  -7.203  -4.674  0.00  0.00     0.189 C 
BRANCH   5   6
HETATM    6  C           1     -21.374  -7.550  -3.382  0.00  0.00     0.014 C 
HETATM    7  C           1     -20.414  -8.252  -2.431  0.00  0.00     0.012 C 
BRANCH   6   8
HETATM    8  C           1     -21.890  -6.273  -2.733  0.00  0.00     0.002 C 
HETATM    9  C           1     -22.286  -6.559  -1.290  0.00  0.00     0.005 C 
ENDBRANCH   6   8
ENDBRANCH   5   6
BRANCH   5  10
HETATM   10  C           1     -20.233  -8.473  -5.377  0.00  0.00     0.197 C 
HETATM   11  O           1     -21.097  -9.322  -5.688  0.00  0.00    -0.646 OA
HETATM   12  O           1     -19.031  -8.676  -5.651  0.00  0.00    -0.646 OA
ENDBRANCH   5  10
ENDBRANCH   2   5
BRANCH   4  13
HETATM   13  C           1     -21.953  -4.564  -7.123  0.00  0.00     0.283 C 
BRANCH  13  14
HETATM   14  N           1     -21.606  -3.108  -7.020  0.00  0.00    -0.066 N 
HETATM   15  H           1     -21.023  -2.947  -6.168  0.00  0.00     0.275 HD
HETATM   16  H           1     -21.069  -2.817  -7.868  0.00  0.00     0.275 HD
HETATM   17  H           1     -22.484  -2.544  -6.952  0.00  0.00     0.275 HD
ENDBRANCH  13  14
BRANCH  13  18
HETATM   18  C           1     -21.781  -5.025  -8.564  0.00  0.00     0.113 C 
BRANCH  18  19
HETATM   19  S           1     -23.088  -4.299  -9.594  0.00  0.00    -0.180 SA
HETATM   20  H           1     -24.117  -4.778  -8.872  0.00  0.00     0.101 HD
ENDBRANCH  18  19
ENDBRANCH  13  18
ENDBRANCH   4  13
TORSDOF 8
ENDMDL
MODEL 2
REMARK VINA RESULT:      -4.7     13.543     14.634
REMARK  8 active torsions:
REMARK  status: ('A' for Active; 'I' for Inactive)
REMARK    1  A    between atoms: C_1  and  C_13 
REMARK    2  A    between atoms: C_1  and  C_3 
REMARK    3  A    between atoms: C_3  and  C_4 
REMARK    4  A    between atoms: C_3  and  N_9 
REMARK    5  A    between atoms: N_6  and  C_14 
REMARK       I    between atoms: N_9  and  C_19 
REMARK    6  A    between atoms: C_14  and  C_19 
REMARK    7  A    between atoms: C_14  and  C_15 
REMARK    8  A    between atoms: C_15  and  S_16 
ROOT
HETATM    1  O           1     -26.104  -5.693 -17.049  0.00  0.00    -0.271 OA
HETATM    2  N           1     -27.659  -6.720 -18.281  0.00  0.00    -0.344 N 
HETATM    3  H           1     -27.885  -7.232 -19.124  0.00  0.00     0.163 HD
HETATM    4  C           1     -26.374  -6.305 -18.056  0.00  0.00     0.249 C 
ENDROOT
BRANCH   2   5
HETATM    5  C           1     -28.697  -6.424 -17.313  0.00  0.00     0.189 C 
BRANCH   5   6
HETATM    6  C           1     -30.046  -6.361 -18.018  0.00  0.00     0.014 C 
HETATM    7  C           1     -30.297  -7.673 -18.749  0.00  0.00     0.012 C 
BRANCH   6   8
HETATM    8  C           1     -31.145  -6.134 -16.989  0.00  0.00     0.002 C 
HETATM    9  C           1     -31.511  -4.656 -16.952  0.00  0.00     0.005 C 
ENDBRANCH   6   8
ENDBRANCH   5   6
BRANCH   5  10
HETATM   10  C           1     -28.728  -7.509 -16.263  0.00  0.00     0.197 C 
HETATM   11  O           1     -29.163  -8.644 -16.551  0.00  0.00    -0.646 OA
HETATM   12  O           1     -28.316  -7.271 -15.107  0.00  0.00    -0.646 OA
ENDBRANCH   5  10
ENDBRANCH   2   5
BRANCH   4  13
HETATM   13  C           1     -25.294  -6.613 -19.064  0.00  0.00     0.283 C 
BRANCH  13  14
HETATM   14  N           1     -24.263  -7.501 -18.433  0.00  0.00    -0.066 N 
HETATM   15  H           1     -23.659  -6.936 -17.793  0.00  0.00     0.275 HD
HETATM   16  H           1     -24.739  -8.254 -17.886  0.00  0.00     0.275 HD
HETATM   17  H           1     -23.671  -7.933 -19.178  0.00  0.00     0.275 HD
ENDBRANCH  13  14
BRANCH  13  18
HETATM   18  C           1     -25.906  -7.321 -20.265  0.00  0.00     0.113 C 
BRANCH  18  19
HETATM   19  S           1     -24.590  -7.828 -21.407  0.00  0.00    -0.180 SA
HETATM   20  H           1     -25.252  -8.876 -21.928  0.00  0.00     0.101 HD
ENDBRANCH  18  19
ENDBRANCH  13  18
ENDBRANCH   4  13
TORSDOF 8
ENDMDL
MODEL 3
REMARK VINA RESULT:      -4.6      2.339      3.126
REMARK  8 active torsions:
REMARK  status: ('A' for Active; 'I' for Inactive)
REMARK    1  A    between atoms: C_1  and  C_13 
REMARK    2  A    between atoms: C_1  and  C_3 
REMARK    3  A    between atoms: C_3  and  C_4 
REMARK    4  A    between atoms: C_3  and  N_9 
REMARK    5  A    between atoms: N_6  and  C_14 
REMARK       I    between atoms: N_9  and  C_19 
REMARK    6  A    between atoms: C_14  and  C_19 
REMARK    7  A    between atoms: C_14  and  C_15 
REMARK    8  A    between atoms: C_15  and  S_16 
ROOT
HETATM    1  O           1     -22.668  -5.928  -5.521  0.00  0.00    -0.271 OA
HETATM    2  N           1     -20.815  -6.766  -4.596  0.00  0.00    -0.344 N 
HETATM    3  H           1     -19.803  -6.792  -4.576  0.00  0.00     0.163 HD
HETATM    4  C           1     -21.460  -5.960  -5.495  0.00  0.00     0.249 C 
ENDROOT
BRANCH   2   5
HETATM    5  C           1     -21.581  -7.582  -3.675  0.00  0.00     0.189 C 
BRANCH   5   6
HETATM    6  C           1     -20.916  -8.946  -3.532  0.00  0.00     0.014 C 
HETATM    7  C           1     -21.822 -10.015  -4.128  0.00  0.00     0.012 C 
BRANCH   6   8
HETATM    8  C           1     -19.584  -8.939  -4.269  0.00  0.00     0.002 C 
HETATM    9  C           1     -18.465  -9.306  -3.303  0.00  0.00     0.005 C 
ENDBRANCH   6   8
ENDBRANCH   5   6
BRANCH   5  10
HETATM   10  C           1     -21.632  -6.904  -2.327  0.00  0.00     0.197 C 
HETATM   11  O           1     -22.322  -5.873  -2.173  0.00  0.00    -0.646 OA
HETATM   12  O           1     -20.986  -7.374  -1.366  0.00  0.00    -0.646 OA
ENDBRANCH   5  10
ENDBRANCH   2   5
BRANCH   4  13
HETATM   13  C           1     -20.663  -5.110  -6.455  0.00  0.00     0.283 C 
BRANCH  13  14
HETATM   14  N           1     -20.065  -5.985  -7.516  0.00  0.00    -0.066 N 
HETATM   15  H           1     -19.157  -6.376  -7.175  0.00  0.00     0.275 HD
HETATM   16  H           1     -20.721  -6.769  -7.732  0.00  0.00     0.275 HD
HETATM   17  H           1     -19.898  -5.421  -8.380  0.00  0.00     0.275 HD
ENDBRANCH  13  14
BRANCH  13  18
HETATM   18  C           1     -21.580  -4.081  -7.103  0.00  0.00     0.113 C 
BRANCH  18  19
HETATM   19  S           1     -21.826  -4.504  -8.851  0.00  0.00    -0.180 SA
HETATM   20  H           1     -22.771  -3.577  -9.088  0.00  0.00     0.101 HD
ENDBRANCH  18  19
ENDBRANCH  13  18
ENDBRANCH   4  13
TORSDOF 8
ENDMDL
MODEL 4
REMARK VINA RESULT:      -4.6      3.656      4.705
REMARK  8 active torsions:
REMARK  status: ('A' for Active; 'I' for Inactive)
REMARK    1  A    between atoms: C_1  and  C_13 
REMARK    2  A    between atoms: C_1  and  C_3 
REMARK    3  A    between atoms: C_3  and  C_4 
REMARK    4  A    between atoms: C_3  and  N_9 
REMARK    5  A    between atoms: N_6  and  C_14 
REMARK       I    between atoms: N_9  and  C_19 
REMARK    6  A    between atoms: C_14  and  C_19 
REMARK    7  A    between atoms: C_14  and  C_15 
REMARK    8  A    between atoms: C_15  and  S_16 
ROOT
HETATM    1  O           1     -20.810  -7.017  -2.152  0.00  0.00    -0.271 OA
HETATM    2  N           1     -21.579  -9.114  -2.185  0.00  0.00    -0.344 N 
HETATM    3  H           1     -22.023  -9.856  -2.711  0.00  0.00     0.163 HD
HETATM    4  C           1     -21.339  -7.904  -2.780  0.00  0.00     0.249 C 
ENDROOT
BRANCH   2   5
HETATM    5  C           1     -21.200  -9.331  -0.803  0.00  0.00     0.189 C 
BRANCH   5   6
HETATM    6  C           1     -22.449  -9.583   0.032  0.00  0.00     0.014 C 
HETATM    7  C           1     -23.102  -8.253   0.382  0.00  0.00     0.012 C 
BRANCH   6   8
HETATM    8  C           1     -23.427 -10.436  -0.765  0.00  0.00     0.002 C 
HETATM    9  C           1     -23.770 -11.691   0.026  0.00  0.00     0.005 C 
ENDBRANCH   6   8
ENDBRANCH   5   6
BRANCH   5  10
HETATM   10  C           1     -20.285 -10.528  -0.716  0.00  0.00     0.197 C 
HETATM   11  O           1     -20.038 -11.045   0.395  0.00  0.00    -0.646 OA
HETATM   12  O           1     -19.775 -11.002  -1.754  0.00  0.00    -0.646 OA
ENDBRANCH   5  10
ENDBRANCH   2   5
BRANCH   4  13
HETATM   13  C           1     -21.734  -7.678  -4.218  0.00  0.00     0.283 C 
BRANCH  13  14
HETATM   14  N           1     -22.339  -6.313  -4.360  0.00  0.00    -0.066 N 
HETATM   15  H           1     -22.772  -6.027  -3.452  0.00  0.00     0.275 HD
HETATM   16  H           1     -21.595  -5.626  -4.619  0.00  0.00     0.275 HD
HETATM   17  H           1     -23.072  -6.331  -5.104  0.00  0.00     0.275 HD
ENDBRANCH  13  14
BRANCH  13  18
HETATM   18  C           1     -20.501  -7.780  -5.106  0.00  0.00     0.113 C 
BRANCH  18  19
HETATM   19  S           1     -20.350  -6.276  -6.112  0.00  0.00    -0.180 SA
HETATM   20  H           1     -21.658  -6.171  -6.404  0.00  0.00     0.101 HD
ENDBRANCH  18  19
ENDBRANCH  13  18
ENDBRANCH   4  13
TORSDOF 8
ENDMDL
MODEL 5
REMARK VINA RESULT:      -4.5     20.779     23.289
REMARK  8 active torsions:
REMARK  status: ('A' for Active; 'I' for Inactive)
REMARK    1  A    between atoms: C_1  and  C_13 
REMARK    2  A    between atoms: C_1  and  C_3 
REMARK    3  A    between atoms: C_3  and  C_4 
REMARK    4  A    between atoms: C_3  and  N_9 
REMARK    5  A    between atoms: N_6  and  C_14 
REMARK       I    between atoms: N_9  and  C_19 
REMARK    6  A    between atoms: C_14  and  C_19 
REMARK    7  A    between atoms: C_14  and  C_15 
REMARK    8  A    between atoms: C_15  and  S_16 
ROOT
HETATM    1  O           1     -13.334   6.751 -19.450  0.00  0.00    -0.271 OA
HETATM    2  N           1     -11.960   7.529 -21.030  0.00  0.00    -0.344 N 
HETATM    3  H           1     -11.414   7.339 -21.860  0.00  0.00     0.163 HD
HETATM    4  C           1     -12.682   6.525 -20.442  0.00  0.00     0.249 C 
ENDROOT
BRANCH   2   5
HETATM    5  C           1     -11.977   8.862 -20.462  0.00  0.00     0.189 C 
BRANCH   5   6
HETATM    6  C           1     -10.559   9.272 -20.085  0.00  0.00     0.014 C 
HETATM    7  C           1     -10.349   9.054 -18.593  0.00  0.00     0.012 C 
BRANCH   6   8
HETATM    8  C           1      -9.563   8.427 -20.868  0.00  0.00     0.002 C 
HETATM    9  C           1      -8.545   9.335 -21.545  0.00  0.00     0.005 C 
ENDBRANCH   6   8
ENDBRANCH   5   6
BRANCH   5  10
HETATM   10  C           1     -12.528   9.833 -21.478  0.00  0.00     0.197 C 
HETATM   11  O           1     -11.880  10.860 -21.777  0.00  0.00    -0.646 OA
HETATM   12  O           1     -13.631   9.610 -22.022  0.00  0.00    -0.646 OA
ENDBRANCH   5  10
ENDBRANCH   2   5
BRANCH   4  13
HETATM   13  C           1     -12.664   5.137 -21.032  0.00  0.00     0.283 C 
BRANCH  13  14
HETATM   14  N           1     -11.785   4.252 -20.199  0.00  0.00    -0.066 N 
HETATM   15  H           1     -10.941   4.787 -19.893  0.00  0.00     0.275 HD
HETATM   16  H           1     -12.314   3.929 -19.357  0.00  0.00     0.275 HD
HETATM   17  H           1     -11.487   3.424 -20.763  0.00  0.00     0.275 HD
ENDBRANCH  13  14
BRANCH  13  18
HETATM   18  C           1     -14.079   4.574 -21.050  0.00  0.00     0.113 C 
BRANCH  18  19
HETATM   19  S           1     -14.991   5.266 -22.459  0.00  0.00    -0.180 SA
HETATM   20  H           1     -16.136   5.487 -21.790  0.00  0.00     0.101 HD
ENDBRANCH  18  19
ENDBRANCH  13  18
ENDBRANCH   4  13
TORSDOF 8
ENDMDL
MODEL 6
REMARK VINA RESULT:      -4.4      5.698      6.799
REMARK  8 active torsions:
REMARK  status: ('A' for Active; 'I' for Inactive)
REMARK    1  A    between atoms: C_1  and  C_13 
REMARK    2  A    between atoms: C_1  and  C_3 
REMARK    3  A    between atoms: C_3  and  C_4 
REMARK    4  A    between atoms: C_3  and  N_9 
REMARK    5  A    between atoms: N_6  and  C_14 
REMARK       I    between atoms: N_9  and  C_19 
REMARK    6  A    between atoms: C_14  and  C_19 
REMARK    7  A    between atoms: C_14  and  C_15 
REMARK    8  A    between atoms: C_15  and  S_16 
ROOT
HETATM    1  O           1     -19.710 -11.303  -0.061  0.00  0.00    -0.271 OA
HETATM    2  N           1     -20.965 -10.113  -1.476  0.00  0.00    -0.344 N 
HETATM    3  H           1     -21.072  -9.716  -2.401  0.00  0.00     0.163 HD
HETATM    4  C           1     -19.839 -10.828  -1.165  0.00  0.00     0.249 C 
ENDROOT
BRANCH   2   5
HETATM    5  C           1     -22.002  -9.925  -0.481  0.00  0.00     0.189 C 
BRANCH   5   6
HETATM    6  C           1     -22.303  -8.438  -0.338  0.00  0.00     0.014 C 
HETATM    7  C           1     -21.946  -7.982   1.071  0.00  0.00     0.012 C 
BRANCH   6   8
HETATM    8  C           1     -21.478  -7.655  -1.349  0.00  0.00     0.002 C 
HETATM    9  C           1     -22.210  -6.371  -1.719  0.00  0.00     0.005 C 
ENDBRANCH   6   8
ENDBRANCH   5   6
BRANCH   5  10
HETATM   10  C           1     -23.251 -10.652  -0.913  0.00  0.00     0.197 C 
HETATM   11  O           1     -23.368 -11.047  -2.094  0.00  0.00    -0.646 OA
HETATM   12  O           1     -24.169 -10.862  -0.091  0.00  0.00    -0.646 OA
ENDBRANCH   5  10
ENDBRANCH   2   5
BRANCH   4  13
HETATM   13  C           1     -18.760 -11.025  -2.201  0.00  0.00     0.283 C 
BRANCH  13  14
HETATM   14  N           1     -19.303 -11.837  -3.339  0.00  0.00    -0.066 N 
HETATM   15  H           1     -20.045 -11.291  -3.835  0.00  0.00     0.275 HD
HETATM   16  H           1     -18.532 -12.059  -4.008  0.00  0.00     0.275 HD
HETATM   17  H           1     -19.714 -12.724  -2.971  0.00  0.00     0.275 HD
ENDBRANCH  13  14
BRANCH  13  18
HETATM   18  C           1     -18.300  -9.669  -2.719  0.00  0.00     0.113 C 
BRANCH  18  19
HETATM   19  S           1     -16.490  -9.655  -2.861  0.00  0.00    -0.180 SA
HETATM   20  H           1     -16.446  -8.998  -4.033  0.00  0.00     0.101 HD
ENDBRANCH  18  19
ENDBRANCH  13  18
ENDBRANCH   4  13
TORSDOF 8
ENDMDL
MODEL 7
REMARK VINA RESULT:      -4.3      5.392      6.626
REMARK  8 active torsions:
REMARK  status: ('A' for Active; 'I' for Inactive)
REMARK    1  A    between atoms: C_1  and  C_13 
REMARK    2  A    between atoms: C_1  and  C_3 
REMARK    3  A    between atoms: C_3  and  C_4 
REMARK    4  A    between atoms: C_3  and  N_9 
REMARK    5  A    between atoms: N_6  and  C_14 
REMARK       I    between atoms: N_9  and  C_19 
REMARK    6  A    between atoms: C_14  and  C_19 
REMARK    7  A    between atoms: C_14  and  C_15 
REMARK    8  A    between atoms: C_15  and  S_16 
ROOT
HETATM    1  O           1     -20.973 -10.519  -3.410  0.00  0.00    -0.271 OA
HETATM    2  N           1     -20.456  -9.235  -1.657  0.00  0.00    -0.344 N 
HETATM    3  H           1     -19.744  -8.899  -1.020  0.00  0.00     0.163 HD
HETATM    4  C           1     -20.124 -10.117  -2.649  0.00  0.00     0.249 C 
ENDROOT
BRANCH   2   5
HETATM    5  C           1     -21.826  -8.781  -1.518  0.00  0.00     0.189 C 
BRANCH   5   6
HETATM    6  C           1     -22.361  -9.196  -0.153  0.00  0.00     0.014 C 
HETATM    7  C           1     -23.386 -10.309  -0.328  0.00  0.00     0.012 C 
BRANCH   6   8
HETATM    8  C           1     -21.212  -9.695   0.712  0.00  0.00     0.002 C 
HETATM    9  C           1     -20.887  -8.656   1.776  0.00  0.00     0.005 C 
ENDBRANCH   6   8
ENDBRANCH   5   6
BRANCH   5  10
HETATM   10  C           1     -21.872  -7.278  -1.641  0.00  0.00     0.197 C 
HETATM   11  O           1     -21.145  -6.697  -2.476  0.00  0.00    -0.646 OA
HETATM   12  O           1     -22.639  -6.614  -0.910  0.00  0.00    -0.646 OA
ENDBRANCH   5  10
ENDBRANCH   2   5
BRANCH   4  13
HETATM   13  C           1     -18.698 -10.590  -2.794  0.00  0.00     0.283 C 
BRANCH  13  14
HETATM   14  N           1     -17.796  -9.404  -2.968  0.00  0.00    -0.066 N 
HETATM   15  H           1     -18.144  -8.611  -2.381  0.00  0.00     0.275 HD
HETATM   16  H           1     -16.827  -9.657  -2.669  0.00  0.00     0.275 HD
HETATM   17  H           1     -17.788  -9.115  -3.972  0.00  0.00     0.275 HD
ENDBRANCH  13  14
BRANCH  13  18
HETATM   18  C           1     -18.289 -11.360  -1.546  0.00  0.00     0.113 C 
BRANCH  18  19
HETATM   19  S           1     -16.496 -11.643  -1.568  0.00  0.00    -0.180 SA
HETATM   20  H           1     -16.352 -11.531  -2.900  0.00  0.00     0.101 HD
ENDBRANCH  18  19
ENDBRANCH  13  18
ENDBRANCH   4  13
TORSDOF 8
ENDMDL
MODEL 8
REMARK VINA RESULT:      -4.3      5.031      6.452
REMARK  8 active torsions:
REMARK  status: ('A' for Active; 'I' for Inactive)
REMARK    1  A    between atoms: C_1  and  C_13 
REMARK    2  A    between atoms: C_1  and  C_3 
REMARK    3  A    between atoms: C_3  and  C_4 
REMARK    4  A    between atoms: C_3  and  N_9 
REMARK    5  A    between atoms: N_6  and  C_14 
REMARK       I    between atoms: N_9  and  C_19 
REMARK    6  A    between atoms: C_14  and  C_19 
REMARK    7  A    between atoms: C_14  and  C_15 
REMARK    8  A    between atoms: C_15  and  S_16 
ROOT
HETATM    1  O           1     -21.056  -8.715  -3.257  0.00  0.00    -0.271 OA
HETATM    2  N           1     -20.859  -9.410  -1.144  0.00  0.00    -0.344 N 
HETATM    3  H           1     -20.259  -9.767  -0.411  0.00  0.00     0.163 HD
HETATM    4  C           1     -20.340  -9.141  -2.381  0.00  0.00     0.249 C 
ENDROOT
BRANCH   2   5
HETATM    5  C           1     -22.266  -9.185  -0.883  0.00  0.00     0.189 C 
BRANCH   5   6
HETATM    6  C           1     -22.810 -10.318  -0.021  0.00  0.00     0.014 C 
HETATM    7  C           1     -23.878 -11.077  -0.797  0.00  0.00     0.012 C 
BRANCH   6   8
HETATM    8  C           1     -21.676 -11.266   0.344  0.00  0.00     0.002 C 
HETATM    9  C           1     -22.255 -12.589   0.828  0.00  0.00     0.005 C 
ENDBRANCH   6   8
ENDBRANCH   5   6
BRANCH   5  10
HETATM   10  C           1     -22.439  -7.873  -0.158  0.00  0.00     0.197 C 
HETATM   11  O           1     -22.724  -6.838  -0.799  0.00  0.00    -0.646 OA
HETATM   12  O           1     -22.299  -7.821   1.083  0.00  0.00    -0.646 OA
ENDBRANCH   5  10
ENDBRANCH   2   5
BRANCH   4  13
HETATM   13  C           1     -18.874  -9.375  -2.653  0.00  0.00     0.283 C 
BRANCH  13  14
HETATM   14  N           1     -18.480 -10.725  -2.132  0.00  0.00    -0.066 N 
HETATM   15  H           1     -18.443 -11.408  -2.923  0.00  0.00     0.275 HD
HETATM   16  H           1     -17.539 -10.664  -1.682  0.00  0.00     0.275 HD
HETATM   17  H           1     -19.184 -11.047  -1.429  0.00  0.00     0.275 HD
ENDBRANCH  13  14
BRANCH  13  18
HETATM   18  C           1     -18.620  -9.317  -4.153  0.00  0.00     0.113 C 
BRANCH  18  19
HETATM   19  S           1     -18.450 -11.002  -4.807  0.00  0.00    -0.180 SA
HETATM   20  H           1     -17.110 -11.056  -4.709  0.00  0.00     0.101 HD
ENDBRANCH  18  19
ENDBRANCH  13  18
ENDBRANCH   4  13
TORSDOF 8
ENDMDL
MODEL 9
REMARK VINA RESULT:      -4.3     20.489     22.513
REMARK  8 active torsions:
REMARK  status: ('A' for Active; 'I' for Inactive)
REMARK    1  A    between atoms: C_1  and  C_13 
REMARK    2  A    between atoms: C_1  and  C_3 
REMARK    3  A    between atoms: C_3  and  C_4 
REMARK    4  A    between atoms: C_3  and  N_9 
REMARK    5  A    between atoms: N_6  and  C_14 
REMARK       I    between atoms: N_9  and  C_19 
REMARK    6  A    between atoms: C_14  and  C_19 
REMARK    7  A    between atoms: C_14  and  C_15 
REMARK    8  A    between atoms: C_15  and  S_16 
ROOT
HETATM    1  O           1     -11.963   5.376 -19.079  0.00  0.00    -0.271 OA
HETATM    2  N           1     -12.712   6.982 -20.439  0.00  0.00    -0.344 N 
HETATM    3  H           1     -13.334   7.246 -21.192  0.00  0.00     0.163 HD
HETATM    4  C           1     -12.706   5.693 -19.978  0.00  0.00     0.249 C 
ENDROOT
BRANCH   2   5
HETATM    5  C           1     -11.828   7.967 -19.849  0.00  0.00     0.189 C 
BRANCH   5   6
HETATM    6  C           1     -10.862   8.482 -20.909  0.00  0.00     0.014 C 
HETATM    7  C           1      -9.748   9.274 -20.238  0.00  0.00     0.012 C 
BRANCH   6   8
HETATM    8  C           1     -10.264   7.303 -21.664  0.00  0.00     0.002 C 
HETATM    9  C           1      -9.172   6.659 -20.821  0.00  0.00     0.005 C 
ENDBRANCH   6   8
ENDBRANCH   5   6
BRANCH   5  10
HETATM   10  C           1     -12.645   9.117 -19.311  0.00  0.00     0.197 C 
HETATM   11  O           1     -12.698   9.323 -18.079  0.00  0.00    -0.646 OA
HETATM   12  O           1     -13.266   9.864 -20.098  0.00  0.00    -0.646 OA
ENDBRANCH   5  10
ENDBRANCH   2   5
BRANCH   4  13
HETATM   13  C           1     -13.626   4.667 -20.592  0.00  0.00     0.283 C 
BRANCH  13  14
HETATM   14  N           1     -15.031   4.917 -20.129  0.00  0.00    -0.066 N 
HETATM   15  H           1     -15.578   5.364 -20.899  0.00  0.00     0.275 HD
HETATM   16  H           1     -15.478   4.009 -19.867  0.00  0.00     0.275 HD
HETATM   17  H           1     -15.017   5.551 -19.298  0.00  0.00     0.275 HD
ENDBRANCH  13  14
BRANCH  13  18
HETATM   18  C           1     -13.567   4.774 -22.110  0.00  0.00     0.113 C 
BRANCH  18  19
HETATM   19  S           1     -12.002   4.074 -22.708  0.00  0.00    -0.180 SA
HETATM   20  H           1     -11.290   5.209 -22.599  0.00  0.00     0.101 HD
ENDBRANCH  18  19
ENDBRANCH  13  18
ENDBRANCH   4  13
TORSDOF 8
ENDMDL
