MODEL 1
REMARK VINA RESULT:      -6.4      0.000      0.000
REMARK  6 active torsions:
REMARK  status: ('A' for Active; 'I' for Inactive)
REMARK    1  A    between atoms: C_2  and  C_3 
REMARK    2  A    between atoms: C_3  and  C_8 
REMARK    3  A    between atoms: C_3  and  N_16 
REMARK    4  A    between atoms: N_4  and  C_19 
REMARK       I    between atoms: N_4  and  C_8 
REMARK    5  A    between atoms: C_11  and  C_19 
REMARK    6  A    between atoms: C_18  and  C_19 
ROOT
HETATM    1  N           1     -35.341  -1.686 -12.740  0.00  0.00    -0.344 N 
HETATM    2  C           1     -34.451  -2.455 -12.040  0.00  0.00     0.249 C 
HETATM    3  H           1     -35.899  -2.101 -13.476  0.00  0.00     0.163 HD
HETATM    4  O           1     -33.785  -1.960 -11.162  0.00  0.00    -0.271 OA
ENDROOT
BRANCH   2   5
HETATM    5  C           1     -34.300  -3.921 -12.366  0.00  0.00     0.278 C 
BRANCH   5   6
HETATM    6  C           1     -33.296  -4.553 -11.412  0.00  0.00     0.017 C 
HETATM    7  C           1     -33.837  -5.887 -10.914  0.00  0.00     0.012 C 
HETATM    8  C           1     -31.978  -4.781 -12.140  0.00  0.00     0.012 C 
ENDBRANCH   5   6
BRANCH   5   9
HETATM    9  N           1     -33.813  -4.072 -13.776  0.00  0.00    -0.066 N 
HETATM   10  H           1     -34.170  -4.970 -14.174  0.00  0.00     0.275 HD
HETATM   11  H           1     -32.768  -4.078 -13.784  0.00  0.00     0.275 HD
HETATM   12  H           1     -34.160  -3.272 -14.352  0.00  0.00     0.275 HD
ENDBRANCH   5   9
ENDBRANCH   2   5
BRANCH   1  13
HETATM   13  C           1     -35.485  -0.277 -12.428  0.00  0.00     0.189 C 
BRANCH  13  14
HETATM   14  C           1     -35.724   0.505 -13.713  0.00  0.00     0.010 C 
HETATM   15  C           1     -34.545   1.437 -13.965  0.00  0.00     0.012 C 
HETATM   16  C           1     -35.864  -0.465 -14.879  0.00  0.00     0.012 C 
ENDBRANCH  13  14
BRANCH  13  17
HETATM   17  C           1     -36.658  -0.087 -11.498  0.00  0.00     0.197 C 
HETATM   18  O           1     -37.780  -0.545 -11.805  0.00  0.00    -0.646 OA
HETATM   19  O           1     -36.508   0.530 -10.420  0.00  0.00    -0.646 OA
ENDBRANCH  13  17
ENDBRANCH   1  13
TORSDOF 6
ENDMDL
MODEL 2
REMARK VINA RESULT:      -6.0      2.342      3.386
REMARK  6 active torsions:
REMARK  status: ('A' for Active; 'I' for Inactive)
REMARK    1  A    between atoms: C_2  and  C_3 
REMARK    2  A    between atoms: C_3  and  C_8 
REMARK    3  A    between atoms: C_3  and  N_16 
REMARK    4  A    between atoms: N_4  and  C_19 
REMARK       I    between atoms: N_4  and  C_8 
REMARK    5  A    between atoms: C_11  and  C_19 
REMARK    6  A    between atoms: C_18  and  C_19 
ROOT
HETATM    1  N           1     -34.750  -0.996 -13.876  0.00  0.00    -0.344 N 
HETATM    2  C           1     -35.221  -1.518 -12.701  0.00  0.00     0.249 C 
HETATM    3  H           1     -33.763  -1.052 -14.095  0.00  0.00     0.163 HD
HETATM    4  O           1     -36.398  -1.450 -12.439  0.00  0.00    -0.271 OA
ENDROOT
BRANCH   2   5
HETATM    5  C           1     -34.268  -2.175 -11.732  0.00  0.00     0.278 C 
BRANCH   5   6
HETATM    6  C           1     -34.269  -3.680 -11.961  0.00  0.00     0.017 C 
HETATM    7  C           1     -32.839  -4.204 -11.902  0.00  0.00     0.012 C 
HETATM    8  C           1     -35.101  -4.358 -10.881  0.00  0.00     0.012 C 
ENDBRANCH   5   6
BRANCH   5   9
HETATM    9  N           1     -34.704  -1.884 -10.327  0.00  0.00    -0.066 N 
HETATM   10  H           1     -35.566  -2.433 -10.109  0.00  0.00     0.275 HD
HETATM   11  H           1     -34.907  -0.863 -10.230  0.00  0.00     0.275 HD
HETATM   12  H           1     -33.943  -2.152  -9.663  0.00  0.00     0.275 HD
ENDBRANCH   5   9
ENDBRANCH   2   5
BRANCH   1  13
HETATM   13  C           1     -35.665  -0.363 -14.806  0.00  0.00     0.189 C 
BRANCH  13  14
HETATM   14  C           1     -35.143   1.023 -15.166  0.00  0.00     0.010 C 
HETATM   15  C           1     -36.263   1.836 -15.801  0.00  0.00     0.012 C 
HETATM   16  C           1     -34.656   1.724 -13.906  0.00  0.00     0.012 C 
ENDBRANCH  13  14
BRANCH  13  17
HETATM   17  C           1     -35.770  -1.202 -16.056  0.00  0.00     0.197 C 
HETATM   18  O           1     -34.736  -1.658 -16.591  0.00  0.00    -0.646 OA
HETATM   19  O           1     -36.891  -1.441 -16.556  0.00  0.00    -0.646 OA
ENDBRANCH  13  17
ENDBRANCH   1  13
TORSDOF 6
ENDMDL
MODEL 3
REMARK VINA RESULT:      -5.8      2.223      2.933
REMARK  6 active torsions:
REMARK  status: ('A' for Active; 'I' for Inactive)
REMARK    1  A    between atoms: C_2  and  C_3 
REMARK    2  A    between atoms: C_3  and  C_8 
REMARK    3  A    between atoms: C_3  and  N_16 
REMARK    4  A    between atoms: N_4  and  C_19 
REMARK       I    between atoms: N_4  and  C_8 
REMARK    5  A    between atoms: C_11  and  C_19 
REMARK    6  A    between atoms: C_18  and  C_19 
ROOT
HETATM    1  N           1     -34.857  -1.470 -12.613  0.00  0.00    -0.344 N 
HETATM    2  C           1     -34.425  -2.696 -13.041  0.00  0.00     0.249 C 
HETATM    3  H           1     -34.640  -1.156 -11.675  0.00  0.00     0.163 HD
HETATM    4  O           1     -34.685  -3.071 -14.159  0.00  0.00    -0.271 OA
ENDROOT
BRANCH   2   5
HETATM    5  C           1     -33.626  -3.580 -12.115  0.00  0.00     0.278 C 
BRANCH   5   6
HETATM    6  C           1     -34.471  -4.778 -11.703  0.00  0.00     0.017 C 
HETATM    7  C           1     -33.586  -5.813 -11.018  0.00  0.00     0.012 C 
HETATM    8  C           1     -35.558  -4.324 -10.738  0.00  0.00     0.012 C 
ENDBRANCH   5   6
BRANCH   5   9
HETATM    9  N           1     -33.234  -2.802 -10.895  0.00  0.00    -0.066 N 
HETATM   10  H           1     -32.718  -3.427 -10.234  0.00  0.00     0.275 HD
HETATM   11  H           1     -34.092  -2.432 -10.428  0.00  0.00     0.275 HD
HETATM   12  H           1     -32.618  -2.005 -11.173  0.00  0.00     0.275 HD
ENDBRANCH   5   9
ENDBRANCH   2   5
BRANCH   1  13
HETATM   13  C           1     -35.626  -0.621 -13.502  0.00  0.00     0.189 C 
BRANCH  13  14
HETATM   14  C           1     -36.744   0.055 -12.717  0.00  0.00     0.010 C 
HETATM   15  C           1     -38.061  -0.117 -13.461  0.00  0.00     0.012 C 
HETATM   16  C           1     -36.851  -0.581 -11.338  0.00  0.00     0.012 C 
ENDBRANCH  13  14
BRANCH  13  17
HETATM   17  C           1     -34.723   0.430 -14.098  0.00  0.00     0.197 C 
HETATM   18  O           1     -34.424   1.447 -13.435  0.00  0.00    -0.646 OA
HETATM   19  O           1     -34.273   0.285 -15.256  0.00  0.00    -0.646 OA
ENDBRANCH  13  17
ENDBRANCH   1  13
TORSDOF 6
ENDMDL
MODEL 4
REMARK VINA RESULT:      -5.2     16.512     18.693
REMARK  6 active torsions:
REMARK  status: ('A' for Active; 'I' for Inactive)
REMARK    1  A    between atoms: C_2  and  C_3 
REMARK    2  A    between atoms: C_3  and  C_8 
REMARK    3  A    between atoms: C_3  and  N_16 
REMARK    4  A    between atoms: N_4  and  C_19 
REMARK       I    between atoms: N_4  and  C_8 
REMARK    5  A    between atoms: C_11  and  C_19 
REMARK    6  A    between atoms: C_18  and  C_19 
ROOT
HETATM    1  N           1     -20.988  -8.514  -2.469  0.00  0.00    -0.344 N 
HETATM    2  C           1     -21.686  -9.587  -1.986  0.00  0.00     0.249 C 
HETATM    3  H           1     -20.488  -7.907  -1.831  0.00  0.00     0.163 HD
HETATM    4  O           1     -22.283 -10.312  -2.746  0.00  0.00    -0.271 OA
ENDROOT
BRANCH   2   5
HETATM    5  C           1     -21.714  -9.865  -0.503  0.00  0.00     0.278 C 
BRANCH   5   6
HETATM    6  C           1     -21.689  -8.548   0.261  0.00  0.00     0.017 C 
HETATM    7  C           1     -23.117  -8.091   0.534  0.00  0.00     0.012 C 
HETATM    8  C           1     -20.957  -8.740   1.583  0.00  0.00     0.012 C 
ENDBRANCH   5   6
BRANCH   5   9
HETATM    9  N           1     -20.516 -10.683  -0.125  0.00  0.00    -0.066 N 
HETATM   10  H           1     -19.722 -10.048   0.119  0.00  0.00     0.275 HD
HETATM   11  H           1     -20.242 -11.291  -0.929  0.00  0.00     0.275 HD
HETATM   12  H           1     -20.748 -11.282   0.700  0.00  0.00     0.275 HD
ENDBRANCH   5   9
ENDBRANCH   2   5
BRANCH   1  13
HETATM   13  C           1     -20.963  -8.247  -3.894  0.00  0.00     0.189 C 
BRANCH  13  14
HETATM   14  C           1     -21.191  -6.760  -4.135  0.00  0.00     0.010 C 
HETATM   15  C           1     -22.389  -6.574  -5.058  0.00  0.00     0.012 C 
HETATM   16  C           1     -21.461  -6.067  -2.806  0.00  0.00     0.012 C 
ENDBRANCH  13  14
BRANCH  13  17
HETATM   17  C           1     -19.622  -8.648  -4.457  0.00  0.00     0.197 C 
HETATM   18  O           1     -18.700  -8.997  -3.687  0.00  0.00    -0.646 OA
HETATM   19  O           1     -19.432  -8.631  -5.693  0.00  0.00    -0.646 OA
ENDBRANCH  13  17
ENDBRANCH   1  13
TORSDOF 6
ENDMDL
MODEL 5
REMARK VINA RESULT:      -5.1     16.145     18.272
REMARK  6 active torsions:
REMARK  status: ('A' for Active; 'I' for Inactive)
REMARK    1  A    between atoms: C_2  and  C_3 
REMARK    2  A    between atoms: C_3  and  C_8 
REMARK    3  A    between atoms: C_3  and  N_16 
REMARK    4  A    between atoms: N_4  and  C_19 
REMARK       I    between atoms: N_4  and  C_8 
REMARK    5  A    between atoms: C_11  and  C_19 
REMARK    6  A    between atoms: C_18  and  C_19 
ROOT
HETATM    1  N           1     -21.591  -8.459  -2.720  0.00  0.00    -0.344 N 
HETATM    2  C           1     -20.419  -8.331  -3.414  0.00  0.00     0.249 C 
HETATM    3  H           1     -22.444  -8.057  -3.089  0.00  0.00     0.163 HD
HETATM    4  O           1     -19.401  -8.809  -2.975  0.00  0.00    -0.271 OA
ENDROOT
BRANCH   2   5
HETATM    5  C           1     -20.397  -7.588  -4.729  0.00  0.00     0.278 C 
BRANCH   5   6
HETATM    6  C           1     -21.121  -6.258  -4.572  0.00  0.00     0.017 C 
HETATM    7  C           1     -20.361  -5.174  -5.327  0.00  0.00     0.012 C 
HETATM    8  C           1     -22.529  -6.376  -5.139  0.00  0.00     0.012 C 
ENDBRANCH   5   6
BRANCH   5   9
HETATM    9  N           1     -21.082  -8.409  -5.779  0.00  0.00    -0.066 N 
HETATM   10  H           1     -20.395  -9.069  -6.208  0.00  0.00     0.275 HD
HETATM   11  H           1     -21.469  -7.778  -6.517  0.00  0.00     0.275 HD
HETATM   12  H           1     -21.862  -8.952  -5.343  0.00  0.00     0.275 HD
ENDBRANCH   5   9
ENDBRANCH   2   5
BRANCH   1  13
HETATM   13  C           1     -21.612  -9.171  -1.457  0.00  0.00     0.189 C 
BRANCH  13  14
HETATM   14  C           1     -22.294  -8.309  -0.401  0.00  0.00     0.010 C 
HETATM   15  C           1     -21.495  -8.369   0.894  0.00  0.00     0.012 C 
HETATM   16  C           1     -22.363  -6.869  -0.890  0.00  0.00     0.012 C 
ENDBRANCH  13  14
BRANCH  13  17
HETATM   17  C           1     -22.374 -10.463  -1.622  0.00  0.00     0.197 C 
HETATM   18  O           1     -21.881 -11.399  -2.287  0.00  0.00    -0.646 OA
HETATM   19  O           1     -23.499 -10.597  -1.092  0.00  0.00    -0.646 OA
ENDBRANCH  13  17
ENDBRANCH   1  13
TORSDOF 6
ENDMDL
MODEL 6
REMARK VINA RESULT:      -5.0      2.438      5.444
REMARK  6 active torsions:
REMARK  status: ('A' for Active; 'I' for Inactive)
REMARK    1  A    between atoms: C_2  and  C_3 
REMARK    2  A    between atoms: C_3  and  C_8 
REMARK    3  A    between atoms: C_3  and  N_16 
REMARK    4  A    between atoms: N_4  and  C_19 
REMARK       I    between atoms: N_4  and  C_8 
REMARK    5  A    between atoms: C_11  and  C_19 
REMARK    6  A    between atoms: C_18  and  C_19 
ROOT
HETATM    1  N           1     -34.800  -2.741 -12.519  0.00  0.00    -0.344 N 
HETATM    2  C           1     -35.113  -2.069 -13.670  0.00  0.00     0.249 C 
HETATM    3  H           1     -35.080  -2.365 -11.622  0.00  0.00     0.163 HD
HETATM    4  O           1     -34.779  -2.517 -14.740  0.00  0.00    -0.271 OA
ENDROOT
BRANCH   2   5
HETATM    5  C           1     -35.874  -0.768 -13.601  0.00  0.00     0.278 C 
BRANCH   5   6
HETATM    6  C           1     -35.280   0.222 -14.594  0.00  0.00     0.017 C 
HETATM    7  C           1     -36.380   0.752 -15.504  0.00  0.00     0.012 C 
HETATM    8  C           1     -34.646   1.382 -13.837  0.00  0.00     0.012 C 
ENDBRANCH   5   6
BRANCH   5   9
HETATM    9  N           1     -35.777  -0.204 -12.215  0.00  0.00    -0.066 N 
HETATM   10  H           1     -36.509  -0.640 -11.609  0.00  0.00     0.275 HD
HETATM   11  H           1     -35.923   0.830 -12.249  0.00  0.00     0.275 HD
HETATM   12  H           1     -34.831  -0.409 -11.821  0.00  0.00     0.275 HD
ENDBRANCH   5   9
ENDBRANCH   2   5
BRANCH   1  13
HETATM   13  C           1     -34.068  -3.990 -12.585  0.00  0.00     0.189 C 
BRANCH  13  14
HETATM   14  C           1     -33.004  -4.013 -11.493  0.00  0.00     0.010 C 
HETATM   15  C           1     -31.695  -4.533 -12.072  0.00  0.00     0.012 C 
HETATM   16  C           1     -32.799  -2.603 -10.957  0.00  0.00     0.012 C 
ENDBRANCH  13  14
BRANCH  13  17
HETATM   17  C           1     -35.020  -5.142 -12.383  0.00  0.00     0.197 C 
HETATM   18  O           1     -35.402  -5.444 -11.231  0.00  0.00    -0.646 OA
HETATM   19  O           1     -35.429  -5.796 -13.368  0.00  0.00    -0.646 OA
ENDBRANCH  13  17
ENDBRANCH   1  13
TORSDOF 6
ENDMDL
MODEL 7
REMARK VINA RESULT:      -4.9     17.670     19.417
REMARK  6 active torsions:
REMARK  status: ('A' for Active; 'I' for Inactive)
REMARK    1  A    between atoms: C_2  and  C_3 
REMARK    2  A    between atoms: C_3  and  C_8 
REMARK    3  A    between atoms: C_3  and  N_16 
REMARK    4  A    between atoms: N_4  and  C_19 
REMARK       I    between atoms: N_4  and  C_8 
REMARK    5  A    between atoms: C_11  and  C_19 
REMARK    6  A    between atoms: C_18  and  C_19 
ROOT
HETATM    1  N           1     -20.376  -8.621  -1.496  0.00  0.00    -0.344 N 
HETATM    2  C           1     -20.153  -9.787  -2.176  0.00  0.00     0.249 C 
HETATM    3  H           1     -19.602  -8.128  -1.069  0.00  0.00     0.163 HD
HETATM    4  O           1     -21.076 -10.376  -2.685  0.00  0.00    -0.271 OA
ENDROOT
BRANCH   2   5
HETATM    5  C           1     -18.753 -10.340  -2.288  0.00  0.00     0.278 C 
BRANCH   5   6
HETATM    6  C           1     -17.893  -9.384  -3.104  0.00  0.00     0.017 C 
HETATM    7  C           1     -16.421  -9.641  -2.804  0.00  0.00     0.012 C 
HETATM    8  C           1     -18.154  -9.607  -4.588  0.00  0.00     0.012 C 
ENDBRANCH   5   6
BRANCH   5   9
HETATM    9  N           1     -18.794 -11.676  -2.966  0.00  0.00    -0.066 N 
HETATM   10  H           1     -19.604 -12.227  -2.601  0.00  0.00     0.275 HD
HETATM   11  H           1     -17.906 -12.192  -2.773  0.00  0.00     0.275 HD
HETATM   12  H           1     -18.901 -11.541  -3.997  0.00  0.00     0.275 HD
ENDBRANCH   5   9
ENDBRANCH   2   5
BRANCH   1  13
HETATM   13  C           1     -21.721  -8.091  -1.388  0.00  0.00     0.189 C 
BRANCH  13  14
HETATM   14  C           1     -22.029  -7.782   0.073  0.00  0.00     0.010 C 
HETATM   15  C           1     -23.443  -8.241   0.401  0.00  0.00     0.012 C 
HETATM   16  C           1     -21.036  -8.515   0.965  0.00  0.00     0.012 C 
ENDBRANCH  13  14
BRANCH  13  17
HETATM   17  C           1     -21.830  -6.826  -2.203  0.00  0.00     0.197 C 
HETATM   18  O           1     -22.438  -5.835  -1.742  0.00  0.00    -0.646 OA
HETATM   19  O           1     -21.313  -6.768  -3.340  0.00  0.00    -0.646 OA
ENDBRANCH  13  17
ENDBRANCH   1  13
TORSDOF 6
ENDMDL
MODEL 8
REMARK VINA RESULT:      -4.8     17.607     19.042
REMARK  6 active torsions:
REMARK  status: ('A' for Active; 'I' for Inactive)
REMARK    1  A    between atoms: C_2  and  C_3 
REMARK    2  A    between atoms: C_3  and  C_8 
REMARK    3  A    between atoms: C_3  and  N_16 
REMARK    4  A    between atoms: N_4  and  C_19 
REMARK       I    between atoms: N_4  and  C_8 
REMARK    5  A    between atoms: C_11  and  C_19 
REMARK    6  A    between atoms: C_18  and  C_19 
ROOT
HETATM    1  N           1     -21.522  -9.784  -1.615  0.00  0.00    -0.344 N 
HETATM    2  C           1     -22.226 -10.850  -2.106  0.00  0.00     0.249 C 
HETATM    3  H           1     -21.111  -9.831  -0.691  0.00  0.00     0.163 HD
HETATM    4  O           1     -22.716 -10.794  -3.209  0.00  0.00    -0.271 OA
ENDROOT
BRANCH   2   5
HETATM    5  C           1     -22.392 -12.094  -1.269  0.00  0.00     0.278 C 
BRANCH   5   6
HETATM    6  C           1     -22.909 -11.713   0.111  0.00  0.00     0.017 C 
HETATM    7  C           1     -24.237 -10.979  -0.027  0.00  0.00     0.012 C 
HETATM    8  C           1     -23.111 -12.972   0.944  0.00  0.00     0.012 C 
ENDBRANCH   5   6
BRANCH   5   9
HETATM    9  N           1     -21.069 -12.786  -1.133  0.00  0.00    -0.066 N 
HETATM   10  H           1     -20.303 -12.075  -1.125  0.00  0.00     0.275 HD
HETATM   11  H           1     -20.932 -13.437  -1.940  0.00  0.00     0.275 HD
HETATM   12  H           1     -21.049 -13.330  -0.241  0.00  0.00     0.275 HD
ENDBRANCH   5   9
ENDBRANCH   2   5
BRANCH   1  13
HETATM   13  C           1     -21.363  -8.587  -2.419  0.00  0.00     0.189 C 
BRANCH  13  14
HETATM   14  C           1     -21.439  -7.359  -1.520  0.00  0.00     0.010 C 
HETATM   15  C           1     -22.005  -6.187  -2.311  0.00  0.00     0.012 C 
HETATM   16  C           1     -22.343  -7.656  -0.331  0.00  0.00     0.012 C 
ENDBRANCH  13  14
BRANCH  13  17
HETATM   17  C           1     -20.024  -8.622  -3.113  0.00  0.00     0.197 C 
HETATM   18  O           1     -19.010  -9.013  -2.495  0.00  0.00    -0.646 OA
HETATM   19  O           1     -19.928  -8.259  -4.306  0.00  0.00    -0.646 OA
ENDBRANCH  13  17
ENDBRANCH   1  13
TORSDOF 6
ENDMDL
MODEL 9
REMARK VINA RESULT:      -4.8     24.899     26.500
REMARK  6 active torsions:
REMARK  status: ('A' for Active; 'I' for Inactive)
REMARK    1  A    between atoms: C_2  and  C_3 
REMARK    2  A    between atoms: C_3  and  C_8 
REMARK    3  A    between atoms: C_3  and  N_16 
REMARK    4  A    between atoms: N_4  and  C_19 
REMARK       I    between atoms: N_4  and  C_8 
REMARK    5  A    between atoms: C_11  and  C_19 
REMARK    6  A    between atoms: C_18  and  C_19 
ROOT
HETATM    1  N           1     -11.962   5.791 -20.783  0.00  0.00    -0.344 N 
HETATM    2  C           1     -11.242   6.562 -19.910  0.00  0.00     0.249 C 
HETATM    3  H           1     -12.303   6.191 -21.648  0.00  0.00     0.163 HD
HETATM    4  O           1     -10.836   6.086 -18.877  0.00  0.00    -0.271 OA
ENDROOT
BRANCH   2   5
HETATM    5  C           1     -10.959   8.008 -20.237  0.00  0.00     0.278 C 
BRANCH   5   6
HETATM    6  C           1     -10.096   8.086 -21.490  0.00  0.00     0.017 C 
HETATM    7  C           1     -10.926   8.631 -22.645  0.00  0.00     0.012 C 
HETATM    8  C           1      -8.913   9.011 -21.236  0.00  0.00     0.012 C 
ENDBRANCH   5   6
BRANCH   5   9
HETATM    9  N           1     -10.233   8.647 -19.092  0.00  0.00    -0.066 N 
HETATM   10  H           1     -10.640   8.309 -18.190  0.00  0.00     0.275 HD
HETATM   11  H           1     -10.334   9.686 -19.152  0.00  0.00     0.275 HD
HETATM   12  H           1      -9.221   8.393 -19.134  0.00  0.00     0.275 HD
ENDBRANCH   5   9
ENDBRANCH   2   5
BRANCH   1  13
HETATM   13  C           1     -12.236   4.403 -20.468  0.00  0.00     0.189 C 
BRANCH  13  14
HETATM   14  C           1     -13.665   4.063 -20.875  0.00  0.00     0.010 C 
HETATM   15  C           1     -14.638   4.882 -20.038  0.00  0.00     0.012 C 
HETATM   16  C           1     -13.862   4.387 -22.349  0.00  0.00     0.012 C 
ENDBRANCH  13  14
BRANCH  13  17
HETATM   17  C           1     -11.274   3.518 -21.221  0.00  0.00     0.197 C 
HETATM   18  O           1     -10.606   3.985 -22.170  0.00  0.00    -0.646 OA
HETATM   19  O           1     -11.144   2.317 -20.897  0.00  0.00    -0.646 OA
ENDBRANCH  13  17
ENDBRANCH   1  13
TORSDOF 6
ENDMDL
