MODEL 1
REMARK VINA RESULT:      -6.8      0.000      0.000
REMARK  8 active torsions:
REMARK  status: ('A' for Active; 'I' for Inactive)
REMARK    1  A    between atoms: C_3  and  C_6 
REMARK    2  A    between atoms: C_6  and  C_7 
REMARK    3  A    between atoms: C_6  and  N_27 
REMARK    4  A    between atoms: C_7  and  C_11 
REMARK    5  A    between atoms: C_8  and  C_29 
REMARK    6  A    between atoms: C_8  and  C_9 
REMARK    7  A    between atoms: N_23  and  C_29 
REMARK       I    between atoms: N_27  and  C_28 
REMARK    8  A    between atoms: C_28  and  C_29 
ROOT
HETATM    1  O           1     -21.323  -3.096  -6.912  0.00  0.00    -0.271 OA
HETATM    2  H           1     -23.615  -4.665  -7.453  0.00  0.00     0.163 HD
HETATM    3  N           1     -22.904  -4.219  -8.019  0.00  0.00    -0.344 N 
HETATM    4  C           1     -21.630  -4.084  -7.536  0.00  0.00     0.249 C 
ENDROOT
BRANCH   4   5
HETATM    5  C           1     -20.610  -5.167  -7.784  0.00  0.00     0.280 C 
BRANCH   5   6
HETATM    6  C           1     -19.830  -5.434  -6.503  0.00  0.00     0.101 C 
BRANCH   6   7
HETATM    7  C           1     -20.596  -6.392  -5.643  0.00  0.00     0.028 A 
HETATM    8  C           1     -21.169  -6.070  -4.436  0.00  0.00     0.114 A 
HETATM    9  N           1     -21.758  -7.227  -4.005  0.00  0.00    -0.360 N 
HETATM   10  C           1     -21.522  -8.185  -4.950  0.00  0.00     0.180 A 
HETATM   11  H           1     -22.293  -7.354  -3.110  0.00  0.00     0.166 HD
HETATM   12  N           1     -20.821  -7.708  -5.953  0.00  0.00    -0.355 N 
ATOM     13  HN          1     -20.511  -8.209  -6.785  1.00  0.00     0.166 HD
ENDBRANCH   6   7
ENDBRANCH   5   6
BRANCH   5  14
HETATM   14  N           1     -19.664  -4.726  -8.862  0.00  0.00    -0.066 N 
HETATM   15  H           1     -20.136  -4.801  -9.792  0.00  0.00     0.275 HD
HETATM   16  H           1     -18.816  -5.335  -8.851  0.00  0.00     0.275 HD
HETATM   17  H           1     -19.385  -3.733  -8.693  0.00  0.00     0.275 HD
ENDBRANCH   5  14
ENDBRANCH   4   5
BRANCH   3  18
HETATM   18  C           1     -23.235  -3.723  -9.340  0.00  0.00     0.191 C 
BRANCH  18  19
HETATM   19  C           1     -24.733  -3.742  -9.523  0.00  0.00     0.197 C 
HETATM   20  O           1     -25.326  -4.826  -9.715  0.00  0.00    -0.646 OA
HETATM   21  O           1     -25.381  -2.675  -9.483  0.00  0.00    -0.646 OA
ENDBRANCH  18  19
BRANCH  18  22
HETATM   22  C           1     -22.584  -4.611 -10.393  0.00  0.00     0.094 C 
BRANCH  22  23
HETATM   23  C           1     -22.790  -4.012 -11.749  0.00  0.00     0.028 A 
HETATM   24  C           1     -22.037  -2.989 -12.274  0.00  0.00     0.114 A 
HETATM   25  N           1     -22.564  -2.762 -13.515  0.00  0.00    -0.360 N 
HETATM   26  H           1     -22.235  -2.044 -14.207  0.00  0.00     0.166 HD
HETATM   27  C           1     -23.595  -3.641 -13.690  0.00  0.00     0.180 A 
HETATM   28  N           1     -23.755  -4.409 -12.638  0.00  0.00    -0.354 N 
ATOM     29  HN          1     -24.450  -5.145 -12.509  1.00  0.00     0.166 HD
ENDBRANCH  22  23
ENDBRANCH  18  22
ENDBRANCH   3  18
TORSDOF 8
ENDMDL
MODEL 2
REMARK VINA RESULT:      -6.6      3.074      7.753
REMARK  8 active torsions:
REMARK  status: ('A' for Active; 'I' for Inactive)
REMARK    1  A    between atoms: C_3  and  C_6 
REMARK    2  A    between atoms: C_6  and  C_7 
REMARK    3  A    between atoms: C_6  and  N_27 
REMARK    4  A    between atoms: C_7  and  C_11 
REMARK    5  A    between atoms: C_8  and  C_29 
REMARK    6  A    between atoms: C_8  and  C_9 
REMARK    7  A    between atoms: N_23  and  C_29 
REMARK       I    between atoms: N_27  and  C_28 
REMARK    8  A    between atoms: C_28  and  C_29 
ROOT
HETATM    1  O           1     -19.395  -6.548  -7.407  0.00  0.00    -0.271 OA
HETATM    2  H           1     -21.621  -7.979  -6.405  0.00  0.00     0.163 HD
HETATM    3  N           1     -20.836  -7.497  -5.988  0.00  0.00    -0.344 N 
HETATM    4  C           1     -20.294  -6.405  -6.612  0.00  0.00     0.249 C 
ENDROOT
BRANCH   4   5
HETATM    5  C           1     -20.818  -5.024  -6.306  0.00  0.00     0.280 C 
BRANCH   5   6
HETATM    6  C           1     -20.603  -4.120  -7.513  0.00  0.00     0.101 C 
BRANCH   6   7
HETATM    7  C           1     -21.823  -4.147  -8.381  0.00  0.00     0.028 A 
HETATM    8  C           1     -21.819  -4.422  -9.727  0.00  0.00     0.114 A 
HETATM    9  N           1     -23.129  -4.339 -10.110  0.00  0.00    -0.360 N 
HETATM   10  C           1     -23.861  -4.023  -9.001  0.00  0.00     0.180 A 
HETATM   11  H           1     -23.503  -4.491 -11.080  0.00  0.00     0.166 HD
HETATM   12  N           1     -23.097  -3.900  -7.940  0.00  0.00    -0.355 N 
ATOM     13  HN          1     -23.390  -3.671  -6.990  1.00  0.00     0.166 HD
ENDBRANCH   6   7
ENDBRANCH   5   6
BRANCH   5  14
HETATM   14  N           1     -20.085  -4.462  -5.124  0.00  0.00    -0.066 N 
HETATM   15  H           1     -19.057  -4.477  -5.312  0.00  0.00     0.275 HD
HETATM   16  H           1     -20.293  -5.039  -4.279  0.00  0.00     0.275 HD
HETATM   17  H           1     -20.393  -3.477  -4.960  0.00  0.00     0.275 HD
ENDBRANCH   5  14
ENDBRANCH   4   5
BRANCH   3  18
HETATM   18  C           1     -20.283  -7.961  -4.731  0.00  0.00     0.191 C 
BRANCH  18  19
HETATM   19  C           1     -19.215  -8.993  -5.002  0.00  0.00     0.197 C 
HETATM   20  O           1     -18.279  -9.152  -4.190  0.00  0.00    -0.646 OA
HETATM   21  O           1     -19.267  -9.688  -6.039  0.00  0.00    -0.646 OA
ENDBRANCH  18  19
BRANCH  18  22
HETATM   22  C           1     -21.389  -8.585  -3.890  0.00  0.00     0.094 C 
BRANCH  22  23
HETATM   23  C           1     -21.764  -7.650  -2.783  0.00  0.00     0.028 A 
HETATM   24  C           1     -21.966  -6.298  -2.938  0.00  0.00     0.114 A 
HETATM   25  N           1     -22.285  -5.844  -1.688  0.00  0.00    -0.360 N 
HETATM   26  H           1     -22.507  -4.852  -1.426  0.00  0.00     0.166 HD
HETATM   27  C           1     -22.265  -6.917  -0.843  0.00  0.00     0.180 A 
HETATM   28  N           1     -21.952  -8.022  -1.478  0.00  0.00    -0.354 N 
ATOM     29  HN          1     -21.867  -8.960  -1.084  1.00  0.00     0.166 HD
ENDBRANCH  22  23
ENDBRANCH  18  22
ENDBRANCH   3  18
TORSDOF 8
ENDMDL
MODEL 3
REMARK VINA RESULT:      -6.6      1.936      2.886
REMARK  8 active torsions:
REMARK  status: ('A' for Active; 'I' for Inactive)
REMARK    1  A    between atoms: C_3  and  C_6 
REMARK    2  A    between atoms: C_6  and  C_7 
REMARK    3  A    between atoms: C_6  and  N_27 
REMARK    4  A    between atoms: C_7  and  C_11 
REMARK    5  A    between atoms: C_8  and  C_29 
REMARK    6  A    between atoms: C_8  and  C_9 
REMARK    7  A    between atoms: N_23  and  C_29 
REMARK       I    between atoms: N_27  and  C_28 
REMARK    8  A    between atoms: C_28  and  C_29 
ROOT
HETATM    1  O           1     -24.320  -3.765  -9.035  0.00  0.00    -0.271 OA
HETATM    2  H           1     -23.226  -5.918 -10.511  0.00  0.00     0.163 HD
HETATM    3  N           1     -22.970  -4.951 -10.361  0.00  0.00    -0.344 N 
HETATM    4  C           1     -23.265  -4.340  -9.173  0.00  0.00     0.249 C 
ENDROOT
BRANCH   4   5
HETATM    5  C           1     -22.275  -4.383  -8.035  0.00  0.00     0.280 C 
BRANCH   5   6
HETATM    6  C           1     -22.955  -4.938  -6.790  0.00  0.00     0.101 C 
BRANCH   6   7
HETATM    7  C           1     -21.972  -5.751  -6.005  0.00  0.00     0.028 A 
HETATM    8  C           1     -20.806  -6.272  -6.514  0.00  0.00     0.114 A 
HETATM    9  N           1     -20.226  -6.930  -5.465  0.00  0.00    -0.360 N 
HETATM   10  C           1     -21.047  -6.784  -4.383  0.00  0.00     0.180 A 
HETATM   11  H           1     -19.315  -7.452  -5.488  0.00  0.00     0.166 HD
HETATM   12  N           1     -22.112  -6.075  -4.681  0.00  0.00    -0.355 N 
ATOM     13  HN          1     -22.880  -5.820  -4.059  1.00  0.00     0.166 HD
ENDBRANCH   6   7
ENDBRANCH   5   6
BRANCH   5  14
HETATM   14  N           1     -21.776  -2.996  -7.755  0.00  0.00    -0.066 N 
HETATM   15  H           1     -21.031  -3.035  -7.023  0.00  0.00     0.275 HD
HETATM   16  H           1     -22.567  -2.404  -7.418  0.00  0.00     0.275 HD
HETATM   17  H           1     -21.380  -2.586  -8.631  0.00  0.00     0.275 HD
ENDBRANCH   5  14
ENDBRANCH   4   5
BRANCH   3  18
HETATM   18  C           1     -22.290  -4.211 -11.407  0.00  0.00     0.191 C 
BRANCH  18  19
HETATM   19  C           1     -20.863  -3.948 -10.989  0.00  0.00     0.197 C 
HETATM   20  O           1     -20.100  -4.905 -10.734  0.00  0.00    -0.646 OA
HETATM   21  O           1     -20.445  -2.775 -10.897  0.00  0.00    -0.646 OA
ENDBRANCH  18  19
BRANCH  18  22
HETATM   22  C           1     -23.004  -2.885 -11.636  0.00  0.00     0.094 C 
BRANCH  22  23
HETATM   23  C           1     -23.077  -2.605 -13.105  0.00  0.00     0.028 A 
HETATM   24  C           1     -23.946  -1.713 -13.688  0.00  0.00     0.114 A 
HETATM   25  N           1     -23.672  -1.775 -15.026  0.00  0.00    -0.360 N 
HETATM   26  H           1     -24.147  -1.224 -15.783  0.00  0.00     0.166 HD
HETATM   27  C           1     -22.666  -2.684 -15.197  0.00  0.00     0.180 A 
HETATM   28  N           1     -22.287  -3.202 -14.053  0.00  0.00    -0.354 N 
ATOM     29  HN          1     -21.559  -3.900 -13.901  1.00  0.00     0.166 HD
ENDBRANCH  22  23
ENDBRANCH  18  22
ENDBRANCH   3  18
TORSDOF 8
ENDMDL
MODEL 4
REMARK VINA RESULT:      -6.5      2.304      7.234
REMARK  8 active torsions:
REMARK  status: ('A' for Active; 'I' for Inactive)
REMARK    1  A    between atoms: C_3  and  C_6 
REMARK    2  A    between atoms: C_6  and  C_7 
REMARK    3  A    between atoms: C_6  and  N_27 
REMARK    4  A    between atoms: C_7  and  C_11 
REMARK    5  A    between atoms: C_8  and  C_29 
REMARK    6  A    between atoms: C_8  and  C_9 
REMARK    7  A    between atoms: N_23  and  C_29 
REMARK       I    between atoms: N_27  and  C_28 
REMARK    8  A    between atoms: C_28  and  C_29 
ROOT
HETATM    1  O           1     -20.765  -4.135  -6.379  0.00  0.00    -0.271 OA
HETATM    2  H           1     -19.944  -6.661  -7.355  0.00  0.00     0.163 HD
HETATM    3  N           1     -20.748  -6.319  -6.845  0.00  0.00    -0.344 N 
HETATM    4  C           1     -21.196  -5.042  -7.050  0.00  0.00     0.249 C 
ENDROOT
BRANCH   4   5
HETATM    5  C           1     -22.230  -4.767  -8.114  0.00  0.00     0.280 C 
BRANCH   5   6
HETATM    6  C           1     -21.701  -3.710  -9.075  0.00  0.00     0.101 C 
BRANCH   6   7
HETATM    7  C           1     -22.433  -3.809 -10.378  0.00  0.00     0.028 A 
HETATM    8  C           1     -21.937  -4.417 -11.508  0.00  0.00     0.114 A 
HETATM    9  N           1     -22.923  -4.277 -12.445  0.00  0.00    -0.360 N 
HETATM   10  C           1     -23.956  -3.604 -11.858  0.00  0.00     0.180 A 
HETATM   11  H           1     -22.890  -4.624 -13.436  0.00  0.00     0.166 HD
HETATM   12  N           1     -23.688  -3.308 -10.607  0.00  0.00    -0.355 N 
ATOM     13  HN          1     -24.285  -2.811  -9.947  1.00  0.00     0.166 HD
ENDBRANCH   6   7
ENDBRANCH   5   6
BRANCH   5  14
HETATM   14  N           1     -23.490  -4.271  -7.470  0.00  0.00    -0.066 N 
HETATM   15  H           1     -23.518  -4.583  -6.473  0.00  0.00     0.275 HD
HETATM   16  H           1     -24.316  -4.657  -7.979  0.00  0.00     0.275 HD
HETATM   17  H           1     -23.512  -3.226  -7.508  0.00  0.00     0.275 HD
ENDBRANCH   5  14
ENDBRANCH   4   5
BRANCH   3  18
HETATM   18  C           1     -21.425  -7.180  -5.895  0.00  0.00     0.191 C 
BRANCH  18  19
HETATM   19  C           1     -22.141  -6.334  -4.871  0.00  0.00     0.197 C 
HETATM   20  O           1     -23.354  -6.069  -5.017  0.00  0.00    -0.646 OA
HETATM   21  O           1     -21.522  -5.897  -3.878  0.00  0.00    -0.646 OA
ENDBRANCH  18  19
BRANCH  18  22
HETATM   22  C           1     -20.403  -8.067  -5.196  0.00  0.00     0.094 C 
BRANCH  22  23
HETATM   23  C           1     -20.942  -9.459  -5.085  0.00  0.00     0.028 A 
HETATM   24  C           1     -21.617  -9.951  -3.992  0.00  0.00     0.114 A 
HETATM   25  N           1     -21.921 -11.244  -4.317  0.00  0.00    -0.360 N 
HETATM   26  H           1     -22.439 -11.930  -3.715  0.00  0.00     0.166 HD
HETATM   27  C           1     -21.428 -11.479  -5.570  0.00  0.00     0.180 A 
HETATM   28  N           1     -20.831 -10.418  -6.058  0.00  0.00    -0.354 N 
ATOM     29  HN          1     -20.380 -10.326  -6.968  1.00  0.00     0.166 HD
ENDBRANCH  22  23
ENDBRANCH  18  22
ENDBRANCH   3  18
TORSDOF 8
ENDMDL
MODEL 5
REMARK VINA RESULT:      -6.4      2.349      3.453
REMARK  8 active torsions:
REMARK  status: ('A' for Active; 'I' for Inactive)
REMARK    1  A    between atoms: C_3  and  C_6 
REMARK    2  A    between atoms: C_6  and  C_7 
REMARK    3  A    between atoms: C_6  and  N_27 
REMARK    4  A    between atoms: C_7  and  C_11 
REMARK    5  A    between atoms: C_8  and  C_29 
REMARK    6  A    between atoms: C_8  and  C_9 
REMARK    7  A    between atoms: N_23  and  C_29 
REMARK       I    between atoms: N_27  and  C_28 
REMARK    8  A    between atoms: C_28  and  C_29 
ROOT
HETATM    1  O           1     -20.247  -4.799  -5.302  0.00  0.00    -0.271 OA
HETATM    2  H           1     -22.879  -4.210  -6.160  0.00  0.00     0.163 HD
HETATM    3  N           1     -22.109  -4.749  -6.534  0.00  0.00    -0.344 N 
HETATM    4  C           1     -21.237  -5.377  -5.686  0.00  0.00     0.249 C 
ENDROOT
BRANCH   4   5
HETATM    5  C           1     -21.510  -6.789  -5.232  0.00  0.00     0.280 C 
BRANCH   5   6
HETATM    6  C           1     -20.543  -7.159  -4.114  0.00  0.00     0.101 C 
BRANCH   6   7
HETATM    7  C           1     -21.274  -7.172  -2.807  0.00  0.00     0.028 A 
HETATM    8  C           1     -21.335  -8.250  -1.956  0.00  0.00     0.114 A 
HETATM    9  N           1     -22.092  -7.825  -0.900  0.00  0.00    -0.360 N 
HETATM   10  C           1     -22.452  -6.531  -1.148  0.00  0.00     0.180 A 
HETATM   11  H           1     -22.349  -8.391  -0.053  0.00  0.00     0.166 HD
HETATM   12  N           1     -21.972  -6.109  -2.295  0.00  0.00    -0.355 N 
ATOM     13  HN          1     -22.092  -5.187  -2.715  1.00  0.00     0.166 HD
ENDBRANCH   6   7
ENDBRANCH   5   6
BRANCH   5  14
HETATM   14  N           1     -21.322  -7.730  -6.386  0.00  0.00    -0.066 N 
HETATM   15  H           1     -20.588  -7.353  -7.027  0.00  0.00     0.275 HD
HETATM   16  H           1     -22.223  -7.827  -6.905  0.00  0.00     0.275 HD
HETATM   17  H           1     -21.023  -8.665  -6.026  0.00  0.00     0.275 HD
ENDBRANCH   5  14
ENDBRANCH   4   5
BRANCH   3  18
HETATM   18  C           1     -21.929  -4.858  -7.969  0.00  0.00     0.191 C 
BRANCH  18  19
HETATM   19  C           1     -20.456  -4.830  -8.294  0.00  0.00     0.197 C 
HETATM   20  O           1     -19.866  -3.736  -8.430  0.00  0.00    -0.646 OA
HETATM   21  O           1     -19.824  -5.900  -8.428  0.00  0.00    -0.646 OA
ENDBRANCH  18  19
BRANCH  18  22
HETATM   22  C           1     -22.623  -3.690  -8.657  0.00  0.00     0.094 C 
BRANCH  22  23
HETATM   23  C           1     -22.626  -3.912 -10.137  0.00  0.00     0.028 A 
HETATM   24  C           1     -23.431  -4.817 -10.790  0.00  0.00     0.114 A 
HETATM   25  N           1     -23.107  -4.688 -12.112  0.00  0.00    -0.360 N 
HETATM   26  H           1     -23.527  -5.227 -12.910  0.00  0.00     0.166 HD
HETATM   27  C           1     -22.139  -3.728 -12.207  0.00  0.00     0.180 A 
HETATM   28  N           1     -21.828  -3.242 -11.028  0.00  0.00    -0.354 N 
ATOM     29  HN          1     -21.139  -2.519 -10.819  1.00  0.00     0.166 HD
ENDBRANCH  22  23
ENDBRANCH  18  22
ENDBRANCH   3  18
TORSDOF 8
ENDMDL
MODEL 6
REMARK VINA RESULT:      -6.3      9.279     12.178
REMARK  8 active torsions:
REMARK  status: ('A' for Active; 'I' for Inactive)
REMARK    1  A    between atoms: C_3  and  C_6 
REMARK    2  A    between atoms: C_6  and  C_7 
REMARK    3  A    between atoms: C_6  and  N_27 
REMARK    4  A    between atoms: C_7  and  C_11 
REMARK    5  A    between atoms: C_8  and  C_29 
REMARK    6  A    between atoms: C_8  and  C_9 
REMARK    7  A    between atoms: N_23  and  C_29 
REMARK       I    between atoms: N_27  and  C_28 
REMARK    8  A    between atoms: C_28  and  C_29 
ROOT
HETATM    1  O           1     -28.977  -7.832 -15.702  0.00  0.00    -0.271 OA
HETATM    2  H           1     -27.591  -5.397 -16.102  0.00  0.00     0.163 HD
HETATM    3  N           1     -27.577  -6.308 -16.542  0.00  0.00    -0.344 N 
HETATM    4  C           1     -28.719  -7.060 -16.596  0.00  0.00     0.249 C 
ENDROOT
BRANCH   4   5
HETATM    5  C           1     -29.656  -6.926 -17.770  0.00  0.00     0.280 C 
BRANCH   5   6
HETATM    6  C           1     -31.096  -6.926 -17.274  0.00  0.00     0.101 C 
BRANCH   6   7
HETATM    7  C           1     -31.609  -5.520 -17.229  0.00  0.00     0.028 A 
HETATM    8  C           1     -30.903  -4.417 -17.649  0.00  0.00     0.114 A 
HETATM    9  N           1     -31.740  -3.358 -17.431  0.00  0.00    -0.360 N 
HETATM   10  C           1     -32.897  -3.851 -16.899  0.00  0.00     0.180 A 
HETATM   11  H           1     -31.530  -2.349 -17.636  0.00  0.00     0.166 HD
HETATM   12  N           1     -32.847  -5.156 -16.765  0.00  0.00    -0.355 N 
ATOM     13  HN          1     -33.573  -5.770 -16.395  1.00  0.00     0.166 HD
ENDBRANCH   6   7
ENDBRANCH   5   6
BRANCH   5  14
HETATM   14  N           1     -29.451  -8.080 -18.707  0.00  0.00    -0.066 N 
HETATM   15  H           1     -29.785  -8.960 -18.254  0.00  0.00     0.275 HD
HETATM   16  H           1     -28.435  -8.167 -18.933  0.00  0.00     0.275 HD
HETATM   17  H           1     -29.992  -7.914 -19.586  0.00  0.00     0.275 HD
ENDBRANCH   5  14
ENDBRANCH   4   5
BRANCH   3  18
HETATM   18  C           1     -26.346  -6.818 -17.116  0.00  0.00     0.191 C 
BRANCH  18  19
HETATM   19  C           1     -25.233  -6.699 -16.103  0.00  0.00     0.197 C 
HETATM   20  O           1     -24.967  -5.590 -15.593  0.00  0.00    -0.646 OA
HETATM   21  O           1     -24.577  -7.711 -15.774  0.00  0.00    -0.646 OA
ENDBRANCH  18  19
BRANCH  18  22
HETATM   22  C           1     -25.992  -6.008 -18.356  0.00  0.00     0.094 C 
BRANCH  22  23
HETATM   23  C           1     -25.494  -6.927 -19.428  0.00  0.00     0.028 A 
HETATM   24  C           1     -24.200  -7.382 -19.527  0.00  0.00     0.114 A 
HETATM   25  N           1     -24.191  -8.183 -20.635  0.00  0.00    -0.360 N 
HETATM   26  H           1     -23.364  -8.704 -21.018  0.00  0.00     0.166 HD
HETATM   27  C           1     -25.456  -8.183 -21.152  0.00  0.00     0.180 A 
HETATM   28  N           1     -26.265  -7.432 -20.442  0.00  0.00    -0.354 N 
ATOM     29  HN          1     -27.256  -7.260 -20.610  1.00  0.00     0.166 HD
ENDBRANCH  22  23
ENDBRANCH  18  22
ENDBRANCH   3  18
TORSDOF 8
ENDMDL
MODEL 7
REMARK VINA RESULT:      -6.2      3.258      7.722
REMARK  8 active torsions:
REMARK  status: ('A' for Active; 'I' for Inactive)
REMARK    1  A    between atoms: C_3  and  C_6 
REMARK    2  A    between atoms: C_6  and  C_7 
REMARK    3  A    between atoms: C_6  and  N_27 
REMARK    4  A    between atoms: C_7  and  C_11 
REMARK    5  A    between atoms: C_8  and  C_29 
REMARK    6  A    between atoms: C_8  and  C_9 
REMARK    7  A    between atoms: N_23  and  C_29 
REMARK       I    between atoms: N_27  and  C_28 
REMARK    8  A    between atoms: C_28  and  C_29 
ROOT
HETATM    1  O           1     -22.763  -5.994  -4.786  0.00  0.00    -0.271 OA
HETATM    2  H           1     -21.168  -5.597  -2.483  0.00  0.00     0.163 HD
HETATM    3  N           1     -21.370  -6.385  -3.085  0.00  0.00    -0.344 N 
HETATM    4  C           1     -21.629  -6.183  -4.413  0.00  0.00     0.249 C 
ENDROOT
BRANCH   4   5
HETATM    5  C           1     -20.499  -6.195  -5.413  0.00  0.00     0.280 C 
BRANCH   5   6
HETATM    6  C           1     -20.147  -4.764  -5.799  0.00  0.00     0.101 C 
BRANCH   6   7
HETATM    7  C           1     -20.824  -4.414  -7.088  0.00  0.00     0.028 A 
HETATM    8  C           1     -20.216  -4.436  -8.321  0.00  0.00     0.114 A 
HETATM    9  N           1     -21.189  -4.053  -9.202  0.00  0.00    -0.360 N 
HETATM   10  C           1     -22.326  -3.818  -8.482  0.00  0.00     0.180 A 
HETATM   11  H           1     -21.081  -3.956 -10.242  0.00  0.00     0.166 HD
HETATM   12  N           1     -22.135  -4.028  -7.200  0.00  0.00    -0.355 N 
ATOM     13  HN          1     -22.816  -3.927  -6.447  1.00  0.00     0.166 HD
ENDBRANCH   6   7
ENDBRANCH   5   6
BRANCH   5  14
HETATM   14  N           1     -20.922  -6.953  -6.636  0.00  0.00    -0.066 N 
HETATM   15  H           1     -20.338  -7.814  -6.732  0.00  0.00     0.275 HD
HETATM   16  H           1     -20.796  -6.350  -7.479  0.00  0.00     0.275 HD
HETATM   17  H           1     -21.928  -7.224  -6.546  0.00  0.00     0.275 HD
ENDBRANCH   5  14
ENDBRANCH   4   5
BRANCH   3  18
HETATM   18  C           1     -21.388  -7.729  -2.540  0.00  0.00     0.191 C 
BRANCH  18  19
HETATM   19  C           1     -21.970  -7.699  -1.148  0.00  0.00     0.197 C 
HETATM   20  O           1     -21.675  -8.594  -0.327  0.00  0.00    -0.646 OA
HETATM   21  O           1     -22.748  -6.780  -0.815  0.00  0.00    -0.646 OA
ENDBRANCH  18  19
BRANCH  18  22
HETATM   22  C           1     -19.965  -8.271  -2.483  0.00  0.00     0.094 C 
BRANCH  22  23
HETATM   23  C           1     -19.713  -9.137  -3.679  0.00  0.00     0.028 A 
HETATM   24  C           1     -20.651  -9.956  -4.262  0.00  0.00     0.114 A 
HETATM   25  N           1     -20.000 -10.551  -5.306  0.00  0.00    -0.360 N 
HETATM   26  H           1     -20.409 -11.245  -5.980  0.00  0.00     0.166 HD
HETATM   27  C           1     -18.718 -10.077  -5.316  0.00  0.00     0.180 A 
HETATM   28  N           1     -18.517  -9.220  -4.342  0.00  0.00    -0.354 N 
ATOM     29  HN          1     -17.653  -8.721  -4.126  1.00  0.00     0.166 HD
ENDBRANCH  22  23
ENDBRANCH  18  22
ENDBRANCH   3  18
TORSDOF 8
ENDMDL
MODEL 8
REMARK VINA RESULT:      -6.0      2.012      2.413
REMARK  8 active torsions:
REMARK  status: ('A' for Active; 'I' for Inactive)
REMARK    1  A    between atoms: C_3  and  C_6 
REMARK    2  A    between atoms: C_6  and  C_7 
REMARK    3  A    between atoms: C_6  and  N_27 
REMARK    4  A    between atoms: C_7  and  C_11 
REMARK    5  A    between atoms: C_8  and  C_29 
REMARK    6  A    between atoms: C_8  and  C_9 
REMARK    7  A    between atoms: N_23  and  C_29 
REMARK       I    between atoms: N_27  and  C_28 
REMARK    8  A    between atoms: C_28  and  C_29 
ROOT
HETATM    1  O           1     -19.946  -4.179  -7.371  0.00  0.00    -0.271 OA
HETATM    2  H           1     -22.045  -2.392  -8.013  0.00  0.00     0.163 HD
HETATM    3  N           1     -21.824  -3.350  -8.252  0.00  0.00    -0.344 N 
HETATM    4  C           1     -21.154  -4.142  -7.359  0.00  0.00     0.249 C 
ENDROOT
BRANCH   4   5
HETATM    5  C           1     -21.924  -4.969  -6.359  0.00  0.00     0.280 C 
BRANCH   5   6
HETATM    6  C           1     -21.508  -6.429  -6.480  0.00  0.00     0.101 C 
BRANCH   6   7
HETATM    7  C           1     -21.436  -7.042  -5.115  0.00  0.00     0.028 A 
HETATM    8  C           1     -21.368  -6.330  -3.941  0.00  0.00     0.114 A 
HETATM    9  N           1     -21.320  -7.277  -2.956  0.00  0.00    -0.360 N 
HETATM   10  C           1     -21.359  -8.502  -3.560  0.00  0.00     0.180 A 
HETATM   11  H           1     -21.262  -7.095  -1.923  0.00  0.00     0.166 HD
HETATM   12  N           1     -21.430  -8.390  -4.867  0.00  0.00    -0.355 N 
ATOM     13  HN          1     -21.472  -9.146  -5.551  1.00  0.00     0.166 HD
ENDBRANCH   6   7
ENDBRANCH   5   6
BRANCH   5  14
HETATM   14  N           1     -23.394  -4.843  -6.633  0.00  0.00    -0.066 N 
HETATM   15  H           1     -23.699  -3.860  -6.454  0.00  0.00     0.275 HD
HETATM   16  H           1     -23.920  -5.492  -6.006  0.00  0.00     0.275 HD
HETATM   17  H           1     -23.583  -5.090  -7.631  0.00  0.00     0.275 HD
ENDBRANCH   5  14
ENDBRANCH   4   5
BRANCH   3  18
HETATM   18  C           1     -22.215  -3.884  -9.542  0.00  0.00     0.191 C 
BRANCH  18  19
HETATM   19  C           1     -21.066  -3.747 -10.512  0.00  0.00     0.197 C 
HETATM   20  O           1     -20.409  -4.756 -10.849  0.00  0.00    -0.646 OA
HETATM   21  O           1     -20.771  -2.626 -10.977  0.00  0.00    -0.646 OA
ENDBRANCH  18  19
BRANCH  18  22
HETATM   22  C           1     -23.417  -3.111 -10.068  0.00  0.00     0.094 C 
BRANCH  22  23
HETATM   23  C           1     -23.536  -3.316 -11.546  0.00  0.00     0.028 A 
HETATM   24  C           1     -23.853  -4.512 -12.146  0.00  0.00     0.114 A 
HETATM   25  N           1     -23.852  -4.247 -13.487  0.00  0.00    -0.360 N 
HETATM   26  H           1     -24.054  -4.932 -14.256  0.00  0.00     0.166 HD
HETATM   27  C           1     -23.540  -2.926 -13.644  0.00  0.00     0.180 A 
HETATM   28  N           1     -23.344  -2.338 -12.487  0.00  0.00    -0.354 N 
ATOM     29  HN          1     -23.100  -1.361 -12.322  1.00  0.00     0.166 HD
ENDBRANCH  22  23
ENDBRANCH  18  22
ENDBRANCH   3  18
TORSDOF 8
ENDMDL
MODEL 9
REMARK VINA RESULT:      -6.0      2.182      3.383
REMARK  8 active torsions:
REMARK  status: ('A' for Active; 'I' for Inactive)
REMARK    1  A    between atoms: C_3  and  C_6 
REMARK    2  A    between atoms: C_6  and  C_7 
REMARK    3  A    between atoms: C_6  and  N_27 
REMARK    4  A    between atoms: C_7  and  C_11 
REMARK    5  A    between atoms: C_8  and  C_29 
REMARK    6  A    between atoms: C_8  and  C_9 
REMARK    7  A    between atoms: N_23  and  C_29 
REMARK       I    between atoms: N_27  and  C_28 
REMARK    8  A    between atoms: C_28  and  C_29 
ROOT
HETATM    1  O           1     -23.299  -5.260 -10.302  0.00  0.00    -0.271 OA
HETATM    2  H           1     -21.619  -4.756 -12.523  0.00  0.00     0.163 HD
HETATM    3  N           1     -22.272  -4.205 -11.982  0.00  0.00    -0.344 N 
HETATM    4  C           1     -22.453  -4.470 -10.651  0.00  0.00     0.249 C 
ENDROOT
BRANCH   4   5
HETATM    5  C           1     -21.599  -3.775  -9.620  0.00  0.00     0.280 C 
BRANCH   5   6
HETATM    6  C           1     -20.372  -4.627  -9.320  0.00  0.00     0.101 C 
BRANCH   6   7
HETATM    7  C           1     -20.421  -5.090  -7.897  0.00  0.00     0.028 A 
HETATM    8  C           1     -19.785  -4.468  -6.850  0.00  0.00     0.114 A 
HETATM    9  N           1     -20.097  -5.217  -5.750  0.00  0.00    -0.360 N 
HETATM   10  C           1     -20.896  -6.244  -6.166  0.00  0.00     0.180 A 
HETATM   11  H           1     -19.781  -5.035  -4.765  0.00  0.00     0.166 HD
HETATM   12  N           1     -21.108  -6.193  -7.461  0.00  0.00    -0.355 N 
ATOM     13  HN          1     -21.666  -6.836  -8.023  1.00  0.00     0.166 HD
ENDBRANCH   6   7
ENDBRANCH   5   6
BRANCH   5  14
HETATM   14  N           1     -22.392  -3.582  -8.362  0.00  0.00    -0.066 N 
HETATM   15  H           1     -22.047  -4.241  -7.628  0.00  0.00     0.275 HD
HETATM   16  H           1     -23.401  -3.770  -8.555  0.00  0.00     0.275 HD
HETATM   17  H           1     -22.278  -2.598  -8.027  0.00  0.00     0.275 HD
ENDBRANCH   5  14
ENDBRANCH   4   5
BRANCH   3  18
HETATM   18  C           1     -23.018  -3.135 -12.616  0.00  0.00     0.191 C 
BRANCH  18  19
HETATM   19  C           1     -24.496  -3.413 -12.495  0.00  0.00     0.197 C 
HETATM   20  O           1     -25.146  -2.938 -11.539  0.00  0.00    -0.646 OA
HETATM   21  O           1     -25.071  -4.119 -13.351  0.00  0.00    -0.646 OA
ENDBRANCH  18  19
BRANCH  18  22
HETATM   22  C           1     -22.635  -3.053 -14.087  0.00  0.00     0.094 C 
BRANCH  22  23
HETATM   23  C           1     -23.223  -1.814 -14.688  0.00  0.00     0.028 A 
HETATM   24  C           1     -22.709  -1.156 -15.781  0.00  0.00     0.114 A 
HETATM   25  N           1     -23.547  -0.095 -15.982  0.00  0.00    -0.360 N 
HETATM   26  H           1     -23.462   0.630 -16.736  0.00  0.00     0.166 HD
HETATM   27  C           1     -24.518  -0.152 -15.022  0.00  0.00     0.180 A 
HETATM   28  N           1     -24.347  -1.181 -14.226  0.00  0.00    -0.354 N 
ATOM     29  HN          1     -24.927  -1.452 -13.431  1.00  0.00     0.166 HD
ENDBRANCH  22  23
ENDBRANCH  18  22
ENDBRANCH   3  18
TORSDOF 8
ENDMDL
