MODEL 1
REMARK VINA RESULT:      -7.5      0.000      0.000
REMARK  10 active torsions:
REMARK  status: ('A' for Active; 'I' for Inactive)
REMARK    1  A    between atoms: N_4  and  C_27 
REMARK    2  A    between atoms: C_5  and  C_27 
REMARK    3  A    between atoms: C_5  and  C_13 
REMARK    4  A    between atoms: N_6  and  C_22 
REMARK    5  A    between atoms: C_12  and  C_14 
REMARK    6  A    between atoms: C_12  and  C_29 
REMARK    7  A    between atoms: C_12  and  N_23 
REMARK    8  A    between atoms: C_13  and  C_22 
REMARK       I    between atoms: C_16  and  N_23 
REMARK    9  A    between atoms: C_16  and  C_27 
REMARK   10  A    between atoms: C_24  and  C_29 
ROOT
HETATM    1  H           1     -23.301  -5.967  -4.454  0.00  0.00     0.163 HD
HETATM    2  C           1     -21.536  -6.409  -3.467  0.00  0.00     0.249 C 
HETATM    3  O           1     -20.867  -5.474  -3.095  0.00  0.00    -0.271 OA
HETATM    4  N           1     -22.344  -6.280  -4.563  0.00  0.00    -0.344 N 
ENDROOT
BRANCH   4   5
HETATM    5  C           1     -21.831  -6.592  -5.884  0.00  0.00     0.190 C 
BRANCH   5   6
HETATM    6  C           1     -20.853  -7.736  -5.786  0.00  0.00     0.197 C 
HETATM    7  O           1     -21.271  -8.911  -5.714  0.00  0.00    -0.646 OA
HETATM    8  O           1     -19.623  -7.509  -5.776  0.00  0.00    -0.646 OA
ENDBRANCH   5   6
BRANCH   5   9
HETATM    9  C           1     -21.127  -5.369  -6.454  0.00  0.00     0.077 C 
BRANCH   9  10
HETATM   10  C           1     -21.988  -4.739  -7.504  0.00  0.00    -0.021 A 
HETATM   11  C           1     -21.594  -4.419  -8.833  0.00  0.00     0.005 A 
HETATM   12  C           1     -22.701  -3.851  -9.465  0.00  0.00     0.132 A 
HETATM   13  C           1     -20.397  -4.559  -9.560  0.00  0.00     0.014 A 
HETATM   14  N           1     -23.725  -3.832  -8.545  0.00  0.00    -0.076 N 
HETATM   15  C           1     -22.670  -3.415 -10.794  0.00  0.00     0.037 A 
HETATM   16  C           1     -23.306  -4.367  -7.356  0.00  0.00     0.195 A 
HETATM   17  H           1     -24.691  -3.460  -8.729  0.00  0.00     0.272 HD
HETATM   18  C           1     -21.471  -3.564 -11.496  0.00  0.00     0.002 A 
HETATM   19  C           1     -20.348  -4.127 -10.891  0.00  0.00     0.001 A 
ENDBRANCH   9  10
ENDBRANCH   5   9
ENDBRANCH   4   5
BRANCH   2  20
HETATM   20  C           1     -21.480  -7.720  -2.721  0.00  0.00     0.274 C 
BRANCH  20  21
HETATM   21  N           1     -20.095  -8.287  -2.812  0.00  0.00    -0.067 N 
HETATM   22  H           1     -19.984  -9.051  -2.109  0.00  0.00     0.275 HD
HETATM   23  H           1     -19.939  -8.672  -3.772  0.00  0.00     0.275 HD
HETATM   24  H           1     -19.396  -7.534  -2.620  0.00  0.00     0.275 HD
ENDBRANCH  20  21
BRANCH  20  25
HETATM   25  C           1     -21.838  -7.489  -1.259  0.00  0.00     0.044 C 
BRANCH  25  26
HETATM   26  C           1     -21.447  -8.713  -0.441  0.00  0.00     0.033 C 
BRANCH  26  27
HETATM   27  C           1     -22.664  -9.228   0.318  0.00  0.00     0.619 C 
BRANCH  27  28
HETATM   28  N           1     -23.593  -8.087   0.608  0.00  0.00    -0.077 N 
HETATM   29  H           1     -24.416  -8.136  -0.036  0.00  0.00     0.274 HD
HETATM   30  H           1     -23.921  -8.147   1.597  0.00  0.00     0.274 HD
HETATM   31  H           1     -23.090  -7.183   0.462  0.00  0.00     0.274 HD
ENDBRANCH  27  28
ENDBRANCH  26  27
ENDBRANCH  25  26
ENDBRANCH  20  25
ENDBRANCH   2  20
TORSDOF 10
ENDMDL
MODEL 2
REMARK VINA RESULT:      -7.4      3.228      7.260
REMARK  10 active torsions:
REMARK  status: ('A' for Active; 'I' for Inactive)
REMARK    1  A    between atoms: N_4  and  C_27 
REMARK    2  A    between atoms: C_5  and  C_27 
REMARK    3  A    between atoms: C_5  and  C_13 
REMARK    4  A    between atoms: N_6  and  C_22 
REMARK    5  A    between atoms: C_12  and  C_14 
REMARK    6  A    between atoms: C_12  and  C_29 
REMARK    7  A    between atoms: C_12  and  N_23 
REMARK    8  A    between atoms: C_13  and  C_22 
REMARK       I    between atoms: C_16  and  N_23 
REMARK    9  A    between atoms: C_16  and  C_27 
REMARK   10  A    between atoms: C_24  and  C_29 
ROOT
HETATM    1  H           1     -21.116  -5.655  -2.479  0.00  0.00     0.163 HD
HETATM    2  C           1     -21.573  -6.261  -4.405  0.00  0.00     0.249 C 
HETATM    3  O           1     -22.700  -6.058  -4.790  0.00  0.00    -0.271 OA
HETATM    4  N           1     -21.328  -6.448  -3.071  0.00  0.00    -0.344 N 
ENDROOT
BRANCH   4   5
HETATM    5  C           1     -21.374  -7.783  -2.505  0.00  0.00     0.190 C 
BRANCH   5   6
HETATM    6  C           1     -22.187  -7.762  -1.234  0.00  0.00     0.197 C 
HETATM    7  O           1     -22.699  -6.693  -0.838  0.00  0.00    -0.646 OA
HETATM    8  O           1     -22.349  -8.813  -0.577  0.00  0.00    -0.646 OA
ENDBRANCH   5   6
BRANCH   5   9
HETATM    9  C           1     -19.959  -8.249  -2.195  0.00  0.00     0.077 C 
BRANCH   9  10
HETATM   10  C           1     -19.504  -9.206  -3.253  0.00  0.00    -0.021 A 
HETATM   11  C           1     -18.169  -9.649  -3.466  0.00  0.00     0.005 A 
HETATM   12  C           1     -18.196 -10.528  -4.549  0.00  0.00     0.132 A 
HETATM   13  C           1     -16.938  -9.385  -2.838  0.00  0.00     0.014 A 
HETATM   14  N           1     -19.504 -10.609  -4.972  0.00  0.00    -0.076 N 
HETATM   15  C           1     -17.047 -11.160  -5.038  0.00  0.00     0.037 A 
HETATM   16  C           1     -20.303  -9.814  -4.195  0.00  0.00     0.195 A 
HETATM   17  H           1     -19.841 -11.197  -5.775  0.00  0.00     0.272 HD
HETATM   18  C           1     -15.835 -10.882  -4.399  0.00  0.00     0.002 A 
HETATM   19  C           1     -15.777 -10.008  -3.314  0.00  0.00     0.001 A 
ENDBRANCH   9  10
ENDBRANCH   5   9
ENDBRANCH   4   5
BRANCH   2  20
HETATM   20  C           1     -20.435  -6.310  -5.395  0.00  0.00     0.274 C 
BRANCH  20  21
HETATM   21  N           1     -20.848  -7.112  -6.592  0.00  0.00    -0.067 N 
HETATM   22  H           1     -21.360  -6.497  -7.264  0.00  0.00     0.275 HD
HETATM   23  H           1     -19.999  -7.506  -7.058  0.00  0.00     0.275 HD
HETATM   24  H           1     -21.474  -7.892  -6.290  0.00  0.00     0.275 HD
ENDBRANCH  20  21
BRANCH  20  25
HETATM   25  C           1     -20.078  -4.895  -5.830  0.00  0.00     0.044 C 
BRANCH  25  26
HETATM   26  C           1     -20.487  -4.693  -7.284  0.00  0.00     0.033 C 
BRANCH  26  27
HETATM   27  C           1     -21.563  -3.618  -7.365  0.00  0.00     0.619 C 
BRANCH  27  28
HETATM   28  N           1     -22.918  -4.261  -7.343  0.00  0.00    -0.077 N 
HETATM   29  H           1     -23.374  -4.082  -6.420  0.00  0.00     0.274 HD
HETATM   30  H           1     -23.507  -3.860  -8.107  0.00  0.00     0.274 HD
HETATM   31  H           1     -22.815  -5.291  -7.488  0.00  0.00     0.274 HD
ENDBRANCH  27  28
ENDBRANCH  26  27
ENDBRANCH  25  26
ENDBRANCH  20  25
ENDBRANCH   2  20
TORSDOF 10
ENDMDL
MODEL 3
REMARK VINA RESULT:      -7.3      1.992      8.218
REMARK  10 active torsions:
REMARK  status: ('A' for Active; 'I' for Inactive)
REMARK    1  A    between atoms: N_4  and  C_27 
REMARK    2  A    between atoms: C_5  and  C_27 
REMARK    3  A    between atoms: C_5  and  C_13 
REMARK    4  A    between atoms: N_6  and  C_22 
REMARK    5  A    between atoms: C_12  and  C_14 
REMARK    6  A    between atoms: C_12  and  C_29 
REMARK    7  A    between atoms: C_12  and  N_23 
REMARK    8  A    between atoms: C_13  and  C_22 
REMARK       I    between atoms: C_16  and  N_23 
REMARK    9  A    between atoms: C_16  and  C_27 
REMARK   10  A    between atoms: C_24  and  C_29 
ROOT
HETATM    1  H           1     -19.588  -7.220  -7.020  0.00  0.00     0.163 HD
HETATM    2  C           1     -20.584  -5.408  -6.944  0.00  0.00     0.249 C 
HETATM    3  O           1     -20.034  -4.504  -6.360  0.00  0.00    -0.271 OA
HETATM    4  N           1     -20.341  -6.705  -6.582  0.00  0.00    -0.344 N 
ENDROOT
BRANCH   4   5
HETATM    5  C           1     -21.163  -7.343  -5.571  0.00  0.00     0.190 C 
BRANCH   5   6
HETATM    6  C           1     -21.950  -6.292  -4.827  0.00  0.00     0.197 C 
HETATM    7  O           1     -21.415  -5.654  -3.896  0.00  0.00    -0.646 OA
HETATM    8  O           1     -23.137  -6.059  -5.142  0.00  0.00    -0.646 OA
ENDBRANCH   5   6
BRANCH   5   9
HETATM    9  C           1     -20.271  -8.096  -4.595  0.00  0.00     0.077 C 
BRANCH   9  10
HETATM   10  C           1     -21.104  -9.033  -3.776  0.00  0.00    -0.021 A 
HETATM   11  C           1     -21.408  -8.895  -2.393  0.00  0.00     0.005 A 
HETATM   12  C           1     -22.207  -9.983  -2.038  0.00  0.00     0.132 A 
HETATM   13  C           1     -21.079  -7.946  -1.408  0.00  0.00     0.014 A 
HETATM   14  N           1     -22.376 -10.747  -3.170  0.00  0.00    -0.076 N 
HETATM   15  C           1     -22.695 -10.169  -0.740  0.00  0.00     0.037 A 
HETATM   16  C           1     -21.714 -10.181  -4.228  0.00  0.00     0.195 A 
HETATM   17  H           1     -22.934 -11.636  -3.218  0.00  0.00     0.272 HD
HETATM   18  C           1     -22.355  -9.213   0.223  0.00  0.00     0.002 A 
HETATM   19  C           1     -21.558  -8.117  -0.103  0.00  0.00     0.001 A 
ENDBRANCH   9  10
ENDBRANCH   5   9
ENDBRANCH   4   5
BRANCH   2  20
HETATM   20  C           1     -21.540  -5.105  -8.072  0.00  0.00     0.274 C 
BRANCH  20  21
HETATM   21  N           1     -22.562  -4.110  -7.608  0.00  0.00    -0.067 N 
HETATM   22  H           1     -23.476  -4.306  -8.074  0.00  0.00     0.275 HD
HETATM   23  H           1     -22.676  -4.187  -6.572  0.00  0.00     0.275 HD
HETATM   24  H           1     -22.245  -3.146  -7.854  0.00  0.00     0.275 HD
ENDBRANCH  20  21
BRANCH  20  25
HETATM   25  C           1     -20.768  -4.528  -9.251  0.00  0.00     0.044 C 
BRANCH  25  26
HETATM   26  C           1     -21.712  -3.710 -10.124  0.00  0.00     0.033 C 
BRANCH  26  27
HETATM   27  C           1     -22.041  -4.491 -11.389  0.00  0.00     0.619 C 
BRANCH  27  28
HETATM   28  N           1     -21.664  -3.680 -12.592  0.00  0.00    -0.077 N 
HETATM   29  H           1     -22.457  -3.049 -12.849  0.00  0.00     0.274 HD
HETATM   30  H           1     -20.819  -3.106 -12.375  0.00  0.00     0.274 HD
HETATM   31  H           1     -21.454  -4.320 -13.391  0.00  0.00     0.274 HD
ENDBRANCH  27  28
ENDBRANCH  26  27
ENDBRANCH  25  26
ENDBRANCH  20  25
ENDBRANCH   2  20
TORSDOF 10
ENDMDL
MODEL 4
REMARK VINA RESULT:      -7.3      1.982      7.469
REMARK  10 active torsions:
REMARK  status: ('A' for Active; 'I' for Inactive)
REMARK    1  A    between atoms: N_4  and  C_27 
REMARK    2  A    between atoms: C_5  and  C_27 
REMARK    3  A    between atoms: C_5  and  C_13 
REMARK    4  A    between atoms: N_6  and  C_22 
REMARK    5  A    between atoms: C_12  and  C_14 
REMARK    6  A    between atoms: C_12  and  C_29 
REMARK    7  A    between atoms: C_12  and  N_23 
REMARK    8  A    between atoms: C_13  and  C_22 
REMARK       I    between atoms: C_16  and  N_23 
REMARK    9  A    between atoms: C_16  and  C_27 
REMARK   10  A    between atoms: C_24  and  C_29 
ROOT
HETATM    1  H           1     -19.265  -7.690  -7.244  0.00  0.00     0.163 HD
HETATM    2  C           1     -20.159  -5.878  -6.797  0.00  0.00     0.249 C 
HETATM    3  O           1     -19.428  -4.925  -6.665  0.00  0.00    -0.271 OA
HETATM    4  N           1     -19.700  -7.136  -6.517  0.00  0.00    -0.344 N 
ENDROOT
BRANCH   4   5
HETATM    5  C           1     -19.836  -7.677  -5.178  0.00  0.00     0.190 C 
BRANCH   5   6
HETATM    6  C           1     -19.059  -8.966  -5.075  0.00  0.00     0.197 C 
HETATM    7  O           1     -19.027  -9.755  -6.044  0.00  0.00    -0.646 OA
HETATM    8  O           1     -18.447  -9.246  -4.021  0.00  0.00    -0.646 OA
ENDBRANCH   5   6
BRANCH   5   9
HETATM    9  C           1     -21.306  -7.946  -4.888  0.00  0.00     0.077 C 
BRANCH   9  10
HETATM   10  C           1     -21.662  -7.388  -3.545  0.00  0.00    -0.021 A 
HETATM   11  C           1     -21.681  -8.105  -2.316  0.00  0.00     0.005 A 
HETATM   12  C           1     -22.065  -7.205  -1.321  0.00  0.00     0.132 A 
HETATM   13  C           1     -21.408  -9.437  -1.956  0.00  0.00     0.014 A 
HETATM   14  N           1     -22.269  -5.988  -1.933  0.00  0.00    -0.076 N 
HETATM   15  C           1     -22.190  -7.574   0.023  0.00  0.00     0.037 A 
HETATM   16  C           1     -22.027  -6.087  -3.278  0.00  0.00     0.195 A 
HETATM   17  H           1     -22.566  -5.110  -1.440  0.00  0.00     0.272 HD
HETATM   18  C           1     -21.913  -8.902   0.358  0.00  0.00     0.002 A 
HETATM   19  C           1     -21.528  -9.823  -0.615  0.00  0.00     0.001 A 
ENDBRANCH   9  10
ENDBRANCH   5   9
ENDBRANCH   4   5
BRANCH   2  20
HETATM   20  C           1     -21.578  -5.680  -7.270  0.00  0.00     0.274 C 
BRANCH  20  21
HETATM   21  N           1     -22.310  -4.800  -6.301  0.00  0.00    -0.067 N 
HETATM   22  H           1     -21.624  -4.210  -5.778  0.00  0.00     0.275 HD
HETATM   23  H           1     -22.973  -4.183  -6.823  0.00  0.00     0.275 HD
HETATM   24  H           1     -22.843  -5.394  -5.626  0.00  0.00     0.275 HD
ENDBRANCH  20  21
BRANCH  20  25
HETATM   25  C           1     -21.569  -5.023  -8.644  0.00  0.00     0.044 C 
BRANCH  25  26
HETATM   26  C           1     -22.747  -4.064  -8.756  0.00  0.00     0.033 C 
BRANCH  26  27
HETATM   27  C           1     -23.630  -4.478  -9.926  0.00  0.00     0.619 C 
BRANCH  27  28
HETATM   28  N           1     -25.072  -4.314  -9.548  0.00  0.00    -0.077 N 
HETATM   29  H           1     -25.401  -3.363  -9.833  0.00  0.00     0.274 HD
HETATM   30  H           1     -25.644  -5.040 -10.033  0.00  0.00     0.274 HD
HETATM   31  H           1     -25.175  -4.423  -8.514  0.00  0.00     0.274 HD
ENDBRANCH  27  28
ENDBRANCH  26  27
ENDBRANCH  25  26
ENDBRANCH  20  25
ENDBRANCH   2  20
TORSDOF 10
ENDMDL
MODEL 5
REMARK VINA RESULT:      -7.2      2.022      7.414
REMARK  10 active torsions:
REMARK  status: ('A' for Active; 'I' for Inactive)
REMARK    1  A    between atoms: N_4  and  C_27 
REMARK    2  A    between atoms: C_5  and  C_27 
REMARK    3  A    between atoms: C_5  and  C_13 
REMARK    4  A    between atoms: N_6  and  C_22 
REMARK    5  A    between atoms: C_12  and  C_14 
REMARK    6  A    between atoms: C_12  and  C_29 
REMARK    7  A    between atoms: C_12  and  N_23 
REMARK    8  A    between atoms: C_13  and  C_22 
REMARK       I    between atoms: C_16  and  N_23 
REMARK    9  A    between atoms: C_16  and  C_27 
REMARK   10  A    between atoms: C_24  and  C_29 
ROOT
HETATM    1  H           1     -19.282  -7.426  -7.229  0.00  0.00     0.163 HD
HETATM    2  C           1     -20.280  -5.808  -6.411  0.00  0.00     0.249 C 
HETATM    3  O           1     -19.604  -4.871  -6.055  0.00  0.00    -0.271 OA
HETATM    4  N           1     -19.754  -7.072  -6.407  0.00  0.00    -0.344 N 
ENDROOT
BRANCH   4   5
HETATM    5  C           1     -19.871  -7.903  -5.224  0.00  0.00     0.190 C 
BRANCH   5   6
HETATM    6  C           1     -18.754  -8.917  -5.210  0.00  0.00     0.197 C 
HETATM    7  O           1     -18.378  -9.448  -6.277  0.00  0.00    -0.646 OA
HETATM    8  O           1     -18.203  -9.226  -4.130  0.00  0.00    -0.646 OA
ENDBRANCH   5   6
BRANCH   5   9
HETATM    9  C           1     -21.211  -8.625  -5.244  0.00  0.00     0.077 C 
BRANCH   9  10
HETATM   10  C           1     -21.515  -9.154  -3.877  0.00  0.00    -0.021 A 
HETATM   11  C           1     -21.786  -8.376  -2.717  0.00  0.00     0.005 A 
HETATM   12  C           1     -22.015  -9.267  -1.668  0.00  0.00     0.132 A 
HETATM   13  C           1     -21.859  -6.994  -2.460  0.00  0.00     0.014 A 
HETATM   14  N           1     -21.885 -10.538  -2.182  0.00  0.00    -0.076 N 
HETATM   15  C           1     -22.314  -8.843  -0.369  0.00  0.00     0.037 A 
HETATM   16  C           1     -21.584 -10.481  -3.517  0.00  0.00     0.195 A 
HETATM   17  H           1     -22.001 -11.424  -1.630  0.00  0.00     0.272 HD
HETATM   18  C           1     -22.381  -7.466  -0.137  0.00  0.00     0.002 A 
HETATM   19  C           1     -22.157  -6.552  -1.165  0.00  0.00     0.001 A 
ENDBRANCH   9  10
ENDBRANCH   5   9
ENDBRANCH   4   5
BRANCH   2  20
HETATM   20  C           1     -21.703  -5.585  -6.857  0.00  0.00     0.274 C 
BRANCH  20  21
HETATM   21  N           1     -22.596  -5.496  -5.656  0.00  0.00    -0.067 N 
HETATM   22  H           1     -22.086  -5.847  -4.815  0.00  0.00     0.275 HD
HETATM   23  H           1     -22.875  -4.500  -5.503  0.00  0.00     0.275 HD
HETATM   24  H           1     -23.450  -6.078  -5.813  0.00  0.00     0.275 HD
ENDBRANCH  20  21
BRANCH  20  25
HETATM   25  C           1     -21.789  -4.288  -7.651  0.00  0.00     0.044 C 
BRANCH  25  26
HETATM   26  C           1     -22.490  -4.550  -8.978  0.00  0.00     0.033 C 
BRANCH  26  27
HETATM   27  C           1     -23.778  -3.741  -9.043  0.00  0.00     0.619 C 
BRANCH  27  28
HETATM   28  N           1     -24.856  -4.563  -9.684  0.00  0.00    -0.077 N 
HETATM   29  H           1     -25.199  -5.279  -9.004  0.00  0.00     0.274 HD
HETATM   30  H           1     -25.647  -3.942  -9.966  0.00  0.00     0.274 HD
HETATM   31  H           1     -24.471  -5.042 -10.530  0.00  0.00     0.274 HD
ENDBRANCH  27  28
ENDBRANCH  26  27
ENDBRANCH  25  26
ENDBRANCH  20  25
ENDBRANCH   2  20
TORSDOF 10
ENDMDL
MODEL 6
REMARK VINA RESULT:      -7.1      1.414      2.033
REMARK  10 active torsions:
REMARK  status: ('A' for Active; 'I' for Inactive)
REMARK    1  A    between atoms: N_4  and  C_27 
REMARK    2  A    between atoms: C_5  and  C_27 
REMARK    3  A    between atoms: C_5  and  C_13 
REMARK    4  A    between atoms: N_6  and  C_22 
REMARK    5  A    between atoms: C_12  and  C_14 
REMARK    6  A    between atoms: C_12  and  C_29 
REMARK    7  A    between atoms: C_12  and  N_23 
REMARK    8  A    between atoms: C_13  and  C_22 
REMARK       I    between atoms: C_16  and  N_23 
REMARK    9  A    between atoms: C_16  and  C_27 
REMARK   10  A    between atoms: C_24  and  C_29 
ROOT
HETATM    1  H           1     -23.567  -6.615  -4.120  0.00  0.00     0.163 HD
HETATM    2  C           1     -22.001  -6.507  -2.771  0.00  0.00     0.249 C 
HETATM    3  O           1     -21.794  -5.433  -2.257  0.00  0.00    -0.271 OA
HETATM    4  N           1     -22.561  -6.572  -4.018  0.00  0.00    -0.344 N 
ENDROOT
BRANCH   4   5
HETATM    5  C           1     -21.713  -6.581  -5.195  0.00  0.00     0.190 C 
BRANCH   5   6
HETATM    6  C           1     -20.885  -7.842  -5.209  0.00  0.00     0.197 C 
HETATM    7  O           1     -21.389  -8.916  -5.599  0.00  0.00    -0.646 OA
HETATM    8  O           1     -19.693  -7.811  -4.830  0.00  0.00    -0.646 OA
ENDBRANCH   5   6
BRANCH   5   9
HETATM    9  C           1     -20.793  -5.369  -5.164  0.00  0.00     0.077 C 
BRANCH   9  10
HETATM   10  C           1     -20.507  -4.921  -6.565  0.00  0.00    -0.021 A 
HETATM   11  C           1     -21.473  -4.547  -7.539  0.00  0.00     0.005 A 
HETATM   12  C           1     -20.776  -4.201  -8.697  0.00  0.00     0.132 A 
HETATM   13  C           1     -22.878  -4.469  -7.546  0.00  0.00     0.014 A 
HETATM   14  N           1     -19.436  -4.363  -8.426  0.00  0.00    -0.076 N 
HETATM   15  C           1     -21.417  -3.780  -9.868  0.00  0.00     0.037 A 
HETATM   16  C           1     -19.262  -4.797  -7.138  0.00  0.00     0.195 A 
HETATM   17  H           1     -18.658  -4.179  -9.107  0.00  0.00     0.272 HD
HETATM   18  C           1     -22.813  -3.710  -9.851  0.00  0.00     0.002 A 
HETATM   19  C           1     -23.536  -4.049  -8.709  0.00  0.00     0.001 A 
ENDBRANCH   9  10
ENDBRANCH   5   9
ENDBRANCH   4   5
BRANCH   2  20
HETATM   20  C           1     -21.641  -7.776  -2.038  0.00  0.00     0.274 C 
BRANCH  20  21
HETATM   21  N           1     -20.155  -7.842  -1.853  0.00  0.00    -0.067 N 
HETATM   22  H           1     -19.728  -6.929  -2.128  0.00  0.00     0.275 HD
HETATM   23  H           1     -19.937  -8.040  -0.850  0.00  0.00     0.275 HD
HETATM   24  H           1     -19.763  -8.603  -2.452  0.00  0.00     0.275 HD
ENDBRANCH  20  21
BRANCH  20  25
HETATM   25  C           1     -22.323  -7.787  -0.676  0.00  0.00     0.044 C 
BRANCH  25  26
HETATM   26  C           1     -22.000  -9.091   0.042  0.00  0.00     0.033 C 
BRANCH  26  27
HETATM   27  C           1     -22.621 -10.257  -0.716  0.00  0.00     0.619 C 
BRANCH  27  28
HETATM   28  N           1     -23.971 -10.567  -0.142  0.00  0.00    -0.077 N 
HETATM   29  H           1     -23.877 -10.774   0.878  0.00  0.00     0.274 HD
HETATM   30  H           1     -24.603  -9.746  -0.273  0.00  0.00     0.274 HD
HETATM   31  H           1     -24.375 -11.398  -0.631  0.00  0.00     0.274 HD
ENDBRANCH  27  28
ENDBRANCH  26  27
ENDBRANCH  25  26
ENDBRANCH  20  25
ENDBRANCH   2  20
TORSDOF 10
ENDMDL
MODEL 7
REMARK VINA RESULT:      -7.1     13.680     16.949
REMARK  10 active torsions:
REMARK  status: ('A' for Active; 'I' for Inactive)
REMARK    1  A    between atoms: N_4  and  C_27 
REMARK    2  A    between atoms: C_5  and  C_27 
REMARK    3  A    between atoms: C_5  and  C_13 
REMARK    4  A    between atoms: N_6  and  C_22 
REMARK    5  A    between atoms: C_12  and  C_14 
REMARK    6  A    between atoms: C_12  and  C_29 
REMARK    7  A    between atoms: C_12  and  N_23 
REMARK    8  A    between atoms: C_13  and  C_22 
REMARK       I    between atoms: C_16  and  N_23 
REMARK    9  A    between atoms: C_16  and  C_27 
REMARK   10  A    between atoms: C_24  and  C_29 
ROOT
HETATM    1  H           1     -33.882  -1.743 -13.172  0.00  0.00     0.163 HD
HETATM    2  C           1     -35.361  -0.310 -13.384  0.00  0.00     0.249 C 
HETATM    3  O           1     -35.103   0.804 -12.993  0.00  0.00    -0.271 OA
HETATM    4  N           1     -34.759  -1.395 -12.805  0.00  0.00    -0.344 N 
ENDROOT
BRANCH   4   5
HETATM    5  C           1     -35.377  -2.045 -11.665  0.00  0.00     0.190 C 
BRANCH   5   6
HETATM    6  C           1     -36.392  -1.116 -11.046  0.00  0.00     0.197 C 
HETATM    7  O           1     -37.590  -1.178 -11.395  0.00  0.00    -0.646 OA
HETATM    8  O           1     -36.034  -0.284 -10.184  0.00  0.00    -0.646 OA
ENDBRANCH   5   6
BRANCH   5   9
HETATM    9  C           1     -34.308  -2.388 -10.637  0.00  0.00     0.077 C 
BRANCH   9  10
HETATM   10  C           1     -33.667  -3.692 -10.998  0.00  0.00    -0.021 A 
HETATM   11  C           1     -34.096  -4.982 -10.581  0.00  0.00     0.005 A 
HETATM   12  C           1     -33.219  -5.909 -11.144  0.00  0.00     0.132 A 
HETATM   13  C           1     -35.152  -5.450  -9.777  0.00  0.00     0.014 A 
HETATM   14  N           1     -32.293  -5.198 -11.874  0.00  0.00    -0.076 N 
HETATM   15  C           1     -33.344  -7.288 -10.941  0.00  0.00     0.037 A 
HETATM   16  C           1     -32.555  -3.856 -11.793  0.00  0.00     0.195 A 
HETATM   17  H           1     -31.500  -5.623 -12.416  0.00  0.00     0.272 HD
HETATM   18  C           1     -34.400  -7.730 -10.139  0.00  0.00     0.002 A 
HETATM   19  C           1     -35.293  -6.827  -9.563  0.00  0.00     0.001 A 
ENDBRANCH   9  10
ENDBRANCH   5   9
ENDBRANCH   4   5
BRANCH   2  20
HETATM   20  C           1     -36.346  -0.506 -14.510  0.00  0.00     0.274 C 
BRANCH  20  21
HETATM   21  N           1     -37.586   0.290 -14.233  0.00  0.00    -0.067 N 
HETATM   22  H           1     -38.014   0.594 -15.136  0.00  0.00     0.275 HD
HETATM   23  H           1     -38.268  -0.300 -13.706  0.00  0.00     0.275 HD
HETATM   24  H           1     -37.340   1.132 -13.665  0.00  0.00     0.275 HD
ENDBRANCH  20  21
BRANCH  20  25
HETATM   25  C           1     -35.722  -0.036 -15.818  0.00  0.00     0.044 C 
BRANCH  25  26
HETATM   26  C           1     -35.844  -1.138 -16.863  0.00  0.00     0.033 C 
BRANCH  26  27
HETATM   27  C           1     -35.045  -2.355 -16.414  0.00  0.00     0.619 C 
BRANCH  27  28
HETATM   28  N           1     -33.963  -2.640 -17.412  0.00  0.00    -0.077 N 
HETATM   29  H           1     -33.721  -1.762 -17.925  0.00  0.00     0.274 HD
HETATM   30  H           1     -33.117  -2.998 -16.916  0.00  0.00     0.274 HD
HETATM   31  H           1     -34.299  -3.360 -18.092  0.00  0.00     0.274 HD
ENDBRANCH  27  28
ENDBRANCH  26  27
ENDBRANCH  25  26
ENDBRANCH  20  25
ENDBRANCH   2  20
TORSDOF 10
ENDMDL
MODEL 8
REMARK VINA RESULT:      -6.8      2.055      2.927
REMARK  10 active torsions:
REMARK  status: ('A' for Active; 'I' for Inactive)
REMARK    1  A    between atoms: N_4  and  C_27 
REMARK    2  A    between atoms: C_5  and  C_27 
REMARK    3  A    between atoms: C_5  and  C_13 
REMARK    4  A    between atoms: N_6  and  C_22 
REMARK    5  A    between atoms: C_12  and  C_14 
REMARK    6  A    between atoms: C_12  and  C_29 
REMARK    7  A    between atoms: C_12  and  N_23 
REMARK    8  A    between atoms: C_13  and  C_22 
REMARK       I    between atoms: C_16  and  N_23 
REMARK    9  A    between atoms: C_16  and  C_27 
REMARK   10  A    between atoms: C_24  and  C_29 
ROOT
HETATM    1  H           1     -18.807  -8.759  -3.032  0.00  0.00     0.163 HD
HETATM    2  C           1     -20.409  -9.313  -1.844  0.00  0.00     0.249 C 
HETATM    3  O           1     -20.532 -10.492  -1.605  0.00  0.00    -0.271 OA
HETATM    4  N           1     -19.808  -8.909  -3.005  0.00  0.00    -0.344 N 
ENDROOT
BRANCH   4   5
HETATM    5  C           1     -20.604  -8.697  -4.199  0.00  0.00     0.190 C 
BRANCH   5   6
HETATM    6  C           1     -20.670  -9.977  -4.994  0.00  0.00     0.197 C 
HETATM    7  O           1     -21.598 -10.790  -4.793  0.00  0.00    -0.646 OA
HETATM    8  O           1     -19.796 -10.226  -5.853  0.00  0.00    -0.646 OA
ENDBRANCH   5   6
BRANCH   5   9
HETATM    9  C           1     -19.965  -7.606  -5.046  0.00  0.00     0.077 C 
BRANCH   9  10
HETATM   10  C           1     -21.025  -6.676  -5.550  0.00  0.00    -0.021 A 
HETATM   11  C           1     -20.923  -5.821  -6.681  0.00  0.00     0.005 A 
HETATM   12  C           1     -22.133  -5.135  -6.789  0.00  0.00     0.132 A 
HETATM   13  C           1     -19.913  -5.564  -7.627  0.00  0.00     0.014 A 
HETATM   14  N           1     -22.935  -5.566  -5.755  0.00  0.00    -0.076 N 
HETATM   15  C           1     -22.385  -4.201  -7.799  0.00  0.00     0.037 A 
HETATM   16  C           1     -22.275  -6.499  -5.000  0.00  0.00     0.195 A 
HETATM   17  H           1     -23.913  -5.228  -5.572  0.00  0.00     0.272 HD
HETATM   18  C           1     -21.367  -3.962  -8.728  0.00  0.00     0.002 A 
HETATM   19  C           1     -20.148  -4.632  -8.645  0.00  0.00     0.001 A 
ENDBRANCH   9  10
ENDBRANCH   5   9
ENDBRANCH   4   5
BRANCH   2  20
HETATM   20  C           1     -20.920  -8.288  -0.862  0.00  0.00     0.274 C 
BRANCH  20  21
HETATM   21  N           1     -21.932  -7.411  -1.537  0.00  0.00    -0.067 N 
HETATM   22  H           1     -21.835  -6.432  -1.185  0.00  0.00     0.275 HD
HETATM   23  H           1     -21.772  -7.426  -2.570  0.00  0.00     0.275 HD
HETATM   24  H           1     -22.893  -7.763  -1.327  0.00  0.00     0.275 HD
ENDBRANCH  20  21
BRANCH  20  25
HETATM   25  C           1     -21.569  -8.995   0.320  0.00  0.00     0.044 C 
BRANCH  25  26
HETATM   26  C           1     -23.084  -8.889   0.205  0.00  0.00     0.033 C 
BRANCH  26  27
HETATM   27  C           1     -23.669 -10.263  -0.095  0.00  0.00     0.619 C 
BRANCH  27  28
HETATM   28  N           1     -22.643 -11.318   0.192  0.00  0.00    -0.077 N 
HETATM   29  H           1     -21.699 -10.875   0.265  0.00  0.00     0.274 HD
HETATM   30  H           1     -22.876 -11.794   1.092  0.00  0.00     0.274 HD
HETATM   31  H           1     -22.641 -12.020  -0.582  0.00  0.00     0.274 HD
ENDBRANCH  27  28
ENDBRANCH  26  27
ENDBRANCH  25  26
ENDBRANCH  20  25
ENDBRANCH   2  20
TORSDOF 10
ENDMDL
MODEL 9
REMARK VINA RESULT:      -6.7      4.311      7.748
REMARK  10 active torsions:
REMARK  status: ('A' for Active; 'I' for Inactive)
REMARK    1  A    between atoms: N_4  and  C_27 
REMARK    2  A    between atoms: C_5  and  C_27 
REMARK    3  A    between atoms: C_5  and  C_13 
REMARK    4  A    between atoms: N_6  and  C_22 
REMARK    5  A    between atoms: C_12  and  C_14 
REMARK    6  A    between atoms: C_12  and  C_29 
REMARK    7  A    between atoms: C_12  and  N_23 
REMARK    8  A    between atoms: C_13  and  C_22 
REMARK       I    between atoms: C_16  and  N_23 
REMARK    9  A    between atoms: C_16  and  C_27 
REMARK   10  A    between atoms: C_24  and  C_29 
ROOT
HETATM    1  H           1     -19.554  -7.332  -4.789  0.00  0.00     0.163 HD
HETATM    2  C           1     -19.935  -9.365  -4.858  0.00  0.00     0.249 C 
HETATM    3  O           1     -20.526  -9.779  -5.827  0.00  0.00    -0.271 OA
HETATM    4  N           1     -20.135  -8.080  -4.432  0.00  0.00    -0.344 N 
ENDROOT
BRANCH   4   5
HETATM    5  C           1     -21.180  -7.789  -3.468  0.00  0.00     0.190 C 
BRANCH   5   6
HETATM    6  C           1     -21.657  -6.370  -3.658  0.00  0.00     0.197 C 
HETATM    7  O           1     -22.095  -6.002  -4.769  0.00  0.00    -0.646 OA
HETATM    8  O           1     -21.616  -5.563  -2.704  0.00  0.00    -0.646 OA
ENDBRANCH   5   6
BRANCH   5   9
HETATM    9  C           1     -20.628  -7.954  -2.059  0.00  0.00     0.077 C 
BRANCH   9  10
HETATM   10  C           1     -21.704  -8.479  -1.159  0.00  0.00    -0.021 A 
HETATM   11  C           1     -22.343  -9.745  -1.265  0.00  0.00     0.005 A 
HETATM   12  C           1     -23.276  -9.822  -0.230  0.00  0.00     0.132 A 
HETATM   13  C           1     -22.217 -10.835  -2.146  0.00  0.00     0.014 A 
HETATM   14  N           1     -23.198  -8.642   0.473  0.00  0.00    -0.076 N 
HETATM   15  C           1     -24.092 -10.941  -0.032  0.00  0.00     0.037 A 
HETATM   16  C           1     -22.250  -7.822  -0.079  0.00  0.00     0.195 A 
HETATM   17  H           1     -23.781  -8.403   1.314  0.00  0.00     0.272 HD
HETATM   18  C           1     -23.949 -12.012  -0.919  0.00  0.00     0.002 A 
HETATM   19  C           1     -23.026 -11.963  -1.962  0.00  0.00     0.001 A 
ENDBRANCH   9  10
ENDBRANCH   5   9
ENDBRANCH   4   5
BRANCH   2  20
HETATM   20  C           1     -18.978 -10.265  -4.116  0.00  0.00     0.274 C 
BRANCH  20  21
HETATM   21  N           1     -18.998 -11.632  -4.733  0.00  0.00    -0.067 N 
HETATM   22  H           1     -19.917 -11.789  -5.204  0.00  0.00     0.275 HD
HETATM   23  H           1     -18.228 -11.707  -5.437  0.00  0.00     0.275 HD
HETATM   24  H           1     -18.861 -12.352  -3.988  0.00  0.00     0.275 HD
ENDBRANCH  20  21
BRANCH  20  25
HETATM   25  C           1     -17.570  -9.690  -4.201  0.00  0.00     0.044 C 
BRANCH  25  26
HETATM   26  C           1     -17.012  -9.506  -2.795  0.00  0.00     0.033 C 
BRANCH  26  27
HETATM   27  C           1     -15.764 -10.363  -2.627  0.00  0.00     0.619 C 
BRANCH  27  28
HETATM   28  N           1     -16.161 -11.750  -2.215  0.00  0.00    -0.077 N 
HETATM   29  H           1     -15.716 -11.980  -1.298  0.00  0.00     0.274 HD
HETATM   30  H           1     -17.199 -11.802  -2.122  0.00  0.00     0.274 HD
HETATM   31  H           1     -15.841 -12.432  -2.939  0.00  0.00     0.274 HD
ENDBRANCH  27  28
ENDBRANCH  26  27
ENDBRANCH  25  26
ENDBRANCH  20  25
ENDBRANCH   2  20
TORSDOF 10
ENDMDL
