MODEL 1
REMARK VINA RESULT:      -7.0      0.000      0.000
REMARK  8 active torsions:
REMARK  status: ('A' for Active; 'I' for Inactive)
REMARK       I    between atoms: C_1  and  N_4 
REMARK    1  A    between atoms: C_1  and  C_3 
REMARK    2  A    between atoms: C_3  and  C_16 
REMARK    3  A    between atoms: C_3  and  N_8 
REMARK    4  A    between atoms: N_4  and  C_12 
REMARK    5  A    between atoms: C_6  and  C_16 
REMARK    6  A    between atoms: C_10  and  O_11 
REMARK    7  A    between atoms: C_10  and  C_12 
REMARK    8  A    between atoms: C_12  and  C_13 
ROOT
HETATM    1  C           1     -35.260  -1.610 -12.698  0.00  0.00     0.249 C 
HETATM    2  N           1     -34.979  -1.147 -13.955  0.00  0.00    -0.343 N 
HETATM    3  O           1     -36.387  -1.547 -12.268  0.00  0.00    -0.271 OA
HETATM    4  H           1     -34.034  -1.198 -14.315  0.00  0.00     0.163 HD
ENDROOT
BRANCH   1   5
HETATM    5  C           1     -34.161  -2.200 -11.849  0.00  0.00     0.278 C 
BRANCH   5   6
HETATM    6  C           1     -34.144  -3.713 -12.019  0.00  0.00     0.021 C 
HETATM    7  C           1     -32.706  -4.214 -11.982  0.00  0.00     0.012 C 
BRANCH   6   8
HETATM    8  C           1     -34.936  -4.360 -10.890  0.00  0.00     0.002 C 
HETATM    9  C           1     -34.265  -5.665 -10.482  0.00  0.00     0.005 C 
ENDBRANCH   6   8
ENDBRANCH   5   6
BRANCH   5  10
HETATM   10  N           1     -34.408  -1.863 -10.408  0.00  0.00    -0.066 N 
HETATM   11  H           1     -35.221  -2.416 -10.054  0.00  0.00     0.275 HD
HETATM   12  H           1     -33.558  -2.096  -9.845  0.00  0.00     0.275 HD
HETATM   13  H           1     -34.616  -0.843 -10.320  0.00  0.00     0.275 HD
ENDBRANCH   5  10
ENDBRANCH   1   5
BRANCH   2  14
HETATM   14  C           1     -36.035  -0.580 -14.771  0.00  0.00     0.214 C 
BRANCH  14  15
HETATM   15  C           1     -35.993   0.940 -14.671  0.00  0.00     0.147 C 
HETATM   16  C           1     -34.662   1.372 -14.070  0.00  0.00     0.042 C 
BRANCH  15  17
HETATM   17  O           1     -36.131   1.496 -15.951  0.00  0.00    -0.393 OA
HETATM   18  H           1     -37.054   1.538 -16.133  0.00  0.00     0.210 HD
ENDBRANCH  15  17
ENDBRANCH  14  15
BRANCH  14  19
HETATM   19  C           1     -35.838  -0.995 -16.208  0.00  0.00     0.199 C 
HETATM   20  O           1     -34.726  -1.423 -16.588  0.00  0.00    -0.646 OA
HETATM   21  O           1     -36.786  -0.910 -17.018  0.00  0.00    -0.646 OA
ENDBRANCH  14  19
ENDBRANCH   2  14
TORSDOF 8
ENDMDL
MODEL 2
REMARK VINA RESULT:      -6.1      1.527      2.134
REMARK  8 active torsions:
REMARK  status: ('A' for Active; 'I' for Inactive)
REMARK       I    between atoms: C_1  and  N_4 
REMARK    1  A    between atoms: C_1  and  C_3 
REMARK    2  A    between atoms: C_3  and  C_16 
REMARK    3  A    between atoms: C_3  and  N_8 
REMARK    4  A    between atoms: N_4  and  C_12 
REMARK    5  A    between atoms: C_6  and  C_16 
REMARK    6  A    between atoms: C_10  and  O_11 
REMARK    7  A    between atoms: C_10  and  C_12 
REMARK    8  A    between atoms: C_12  and  C_13 
ROOT
HETATM    1  C           1     -34.676  -2.170 -12.936  0.00  0.00     0.249 C 
HETATM    2  N           1     -35.323  -0.964 -12.921  0.00  0.00    -0.343 N 
HETATM    3  O           1     -34.694  -2.853 -13.932  0.00  0.00    -0.271 OA
HETATM    4  H           1     -35.309  -0.392 -12.086  0.00  0.00     0.163 HD
ENDROOT
BRANCH   1   5
HETATM    5  C           1     -33.939  -2.646 -11.709  0.00  0.00     0.278 C 
BRANCH   5   6
HETATM    6  C           1     -33.756  -4.156 -11.780  0.00  0.00     0.021 C 
HETATM    7  C           1     -32.294  -4.479 -12.060  0.00  0.00     0.012 C 
BRANCH   6   8
HETATM    8  C           1     -34.167  -4.780 -10.452  0.00  0.00     0.002 C 
HETATM    9  C           1     -34.206  -6.296 -10.594  0.00  0.00     0.005 C 
ENDBRANCH   6   8
ENDBRANCH   5   6
BRANCH   5  10
HETATM   10  N           1     -34.732  -2.296 -10.484  0.00  0.00    -0.066 N 
HETATM   11  H           1     -35.368  -1.495 -10.697  0.00  0.00     0.275 HD
HETATM   12  H           1     -35.300  -3.122 -10.189  0.00  0.00     0.275 HD
HETATM   13  H           1     -34.080  -2.027  -9.713  0.00  0.00     0.275 HD
ENDBRANCH   5  10
ENDBRANCH   1   5
BRANCH   2  14
HETATM   14  C           1     -36.031  -0.507 -14.101  0.00  0.00     0.214 C 
BRANCH  14  15
HETATM   15  C           1     -37.509  -0.335 -13.772  0.00  0.00     0.147 C 
HETATM   16  C           1     -37.667  -0.056 -12.283  0.00  0.00     0.042 C 
BRANCH  15  17
HETATM   17  O           1     -38.028   0.741 -14.507  0.00  0.00    -0.393 OA
HETATM   18  H           1     -38.442   1.319 -13.889  0.00  0.00     0.210 HD
ENDBRANCH  15  17
ENDBRANCH  14  15
BRANCH  14  19
HETATM   19  C           1     -35.459   0.815 -14.550  0.00  0.00     0.199 C 
HETATM   20  O           1     -35.666   1.224 -15.714  0.00  0.00    -0.646 OA
HETATM   21  O           1     -34.777   1.501 -13.758  0.00  0.00    -0.646 OA
ENDBRANCH  14  19
ENDBRANCH   2  14
TORSDOF 8
ENDMDL
MODEL 3
REMARK VINA RESULT:      -6.1     12.655     14.448
REMARK  8 active torsions:
REMARK  status: ('A' for Active; 'I' for Inactive)
REMARK       I    between atoms: C_1  and  N_4 
REMARK    1  A    between atoms: C_1  and  C_3 
REMARK    2  A    between atoms: C_3  and  C_16 
REMARK    3  A    between atoms: C_3  and  N_8 
REMARK    4  A    between atoms: N_4  and  C_12 
REMARK    5  A    between atoms: C_6  and  C_16 
REMARK    6  A    between atoms: C_10  and  O_11 
REMARK    7  A    between atoms: C_10  and  C_12 
REMARK    8  A    between atoms: C_12  and  C_13 
ROOT
HETATM    1  C           1     -21.571  -4.565  -7.822  0.00  0.00     0.249 C 
HETATM    2  N           1     -22.210  -4.658  -9.029  0.00  0.00    -0.343 N 
HETATM    3  O           1     -21.555  -3.515  -7.226  0.00  0.00    -0.271 OA
HETATM    4  H           1     -22.223  -5.538  -9.529  0.00  0.00     0.163 HD
ENDROOT
BRANCH   1   5
HETATM    5  C           1     -20.886  -5.775  -7.235  0.00  0.00     0.278 C 
BRANCH   5   6
HETATM    6  C           1     -21.556  -6.150  -5.920  0.00  0.00     0.021 C 
HETATM    7  C           1     -21.510  -7.661  -5.738  0.00  0.00     0.012 C 
BRANCH   6   8
HETATM    8  C           1     -20.821  -5.477  -4.768  0.00  0.00     0.002 C 
HETATM    9  C           1     -21.282  -6.084  -3.449  0.00  0.00     0.005 C 
ENDBRANCH   6   8
ENDBRANCH   5   6
BRANCH   5  10
HETATM   10  N           1     -19.441  -5.459  -6.988  0.00  0.00    -0.066 N 
HETATM   11  H           1     -18.849  -6.261  -7.305  0.00  0.00     0.275 HD
HETATM   12  H           1     -19.175  -4.600  -7.521  0.00  0.00     0.275 HD
HETATM   13  H           1     -19.289  -5.298  -5.967  0.00  0.00     0.275 HD
ENDBRANCH   5  10
ENDBRANCH   1   5
BRANCH   2  14
HETATM   14  C           1     -22.868  -3.495  -9.592  0.00  0.00     0.214 C 
BRANCH  14  15
HETATM   15  C           1     -22.298  -3.210 -10.976  0.00  0.00     0.147 C 
HETATM   16  C           1     -21.435  -4.384 -11.420  0.00  0.00     0.042 C 
BRANCH  15  17
HETATM   17  O           1     -23.350  -3.032 -11.886  0.00  0.00    -0.393 OA
HETATM   18  H           1     -23.824  -3.846 -11.919  0.00  0.00     0.210 HD
ENDBRANCH  15  17
ENDBRANCH  14  15
BRANCH  14  19
HETATM   19  C           1     -24.349  -3.761  -9.703  0.00  0.00     0.199 C 
HETATM   20  O           1     -25.165  -2.823  -9.565  0.00  0.00    -0.646 OA
HETATM   21  O           1     -24.761  -4.919  -9.933  0.00  0.00    -0.646 OA
ENDBRANCH  14  19
ENDBRANCH   2  14
TORSDOF 8
ENDMDL
MODEL 4
REMARK VINA RESULT:      -5.8     13.222     15.638
REMARK  8 active torsions:
REMARK  status: ('A' for Active; 'I' for Inactive)
REMARK       I    between atoms: C_1  and  N_4 
REMARK    1  A    between atoms: C_1  and  C_3 
REMARK    2  A    between atoms: C_3  and  C_16 
REMARK    3  A    between atoms: C_3  and  N_8 
REMARK    4  A    between atoms: N_4  and  C_12 
REMARK    5  A    between atoms: C_6  and  C_16 
REMARK    6  A    between atoms: C_10  and  O_11 
REMARK    7  A    between atoms: C_10  and  C_12 
REMARK    8  A    between atoms: C_12  and  C_13 
ROOT
HETATM    1  C           1     -22.351  -4.114  -8.123  0.00  0.00     0.249 C 
HETATM    2  N           1     -22.168  -5.283  -7.433  0.00  0.00    -0.343 N 
HETATM    3  O           1     -21.807  -3.103  -7.751  0.00  0.00    -0.271 OA
HETATM    4  H           1     -22.625  -6.131  -7.744  0.00  0.00     0.163 HD
ENDROOT
BRANCH   1   5
HETATM    5  C           1     -23.232  -4.091  -9.348  0.00  0.00     0.278 C 
BRANCH   5   6
HETATM    6  C           1     -22.492  -3.413 -10.492  0.00  0.00     0.021 C 
HETATM    7  C           1     -21.467  -4.375 -11.078  0.00  0.00     0.012 C 
BRANCH   6   8
HETATM    8  C           1     -23.487  -3.013 -11.574  0.00  0.00     0.002 C 
HETATM    9  C           1     -22.792  -3.010 -12.929  0.00  0.00     0.005 C 
ENDBRANCH   6   8
ENDBRANCH   5   6
BRANCH   5  10
HETATM   10  N           1     -24.489  -3.330  -9.044  0.00  0.00    -0.066 N 
HETATM   11  H           1     -24.296  -2.304  -9.095  0.00  0.00     0.275 HD
HETATM   12  H           1     -25.225  -3.580  -9.743  0.00  0.00     0.275 HD
HETATM   13  H           1     -24.820  -3.575  -8.085  0.00  0.00     0.275 HD
ENDBRANCH   5  10
ENDBRANCH   1   5
BRANCH   2  14
HETATM   14  C           1     -21.322  -5.305  -6.256  0.00  0.00     0.214 C 
BRANCH  14  15
HETATM   15  C           1     -21.890  -6.289  -5.241  0.00  0.00     0.147 C 
HETATM   16  C           1     -21.248  -6.042  -3.882  0.00  0.00     0.042 C 
BRANCH  15  17
HETATM   17  O           1     -23.277  -6.109  -5.143  0.00  0.00    -0.393 OA
HETATM   18  H           1     -23.540  -5.598  -5.889  0.00  0.00     0.210 HD
ENDBRANCH  15  17
ENDBRANCH  14  15
BRANCH  14  19
HETATM   19  C           1     -19.929  -5.734  -6.647  0.00  0.00     0.199 C 
HETATM   20  O           1     -19.654  -6.949  -6.750  0.00  0.00    -0.646 OA
HETATM   21  O           1     -19.050  -4.873  -6.868  0.00  0.00    -0.646 OA
ENDBRANCH  14  19
ENDBRANCH   2  14
TORSDOF 8
ENDMDL
MODEL 5
REMARK VINA RESULT:      -5.7     12.631     14.391
REMARK  8 active torsions:
REMARK  status: ('A' for Active; 'I' for Inactive)
REMARK       I    between atoms: C_1  and  N_4 
REMARK    1  A    between atoms: C_1  and  C_3 
REMARK    2  A    between atoms: C_3  and  C_16 
REMARK    3  A    between atoms: C_3  and  N_8 
REMARK    4  A    between atoms: N_4  and  C_12 
REMARK    5  A    between atoms: C_6  and  C_16 
REMARK    6  A    between atoms: C_10  and  O_11 
REMARK    7  A    between atoms: C_10  and  C_12 
REMARK    8  A    between atoms: C_12  and  C_13 
ROOT
HETATM    1  C           1     -21.650  -4.732  -8.480  0.00  0.00     0.249 C 
HETATM    2  N           1     -22.495  -4.278  -9.457  0.00  0.00    -0.343 N 
HETATM    3  O           1     -20.664  -5.361  -8.778  0.00  0.00    -0.271 OA
HETATM    4  H           1     -23.323  -3.752  -9.207  0.00  0.00     0.163 HD
ENDROOT
BRANCH   1   5
HETATM    5  C           1     -21.953  -4.447  -7.029  0.00  0.00     0.278 C 
BRANCH   5   6
HETATM    6  C           1     -21.210  -5.444  -6.150  0.00  0.00     0.021 C 
HETATM    7  C           1     -20.172  -4.708  -5.312  0.00  0.00     0.012 C 
BRANCH   6   8
HETATM    8  C           1     -22.200  -6.145  -5.230  0.00  0.00     0.002 C 
HETATM    9  C           1     -21.766  -7.590  -5.023  0.00  0.00     0.005 C 
ENDBRANCH   6   8
ENDBRANCH   5   6
BRANCH   5  10
HETATM   10  N           1     -23.429  -4.575  -6.793  0.00  0.00    -0.066 N 
HETATM   11  H           1     -23.609  -5.362  -6.129  0.00  0.00     0.275 HD
HETATM   12  H           1     -23.795  -3.686  -6.384  0.00  0.00     0.275 HD
HETATM   13  H           1     -23.911  -4.767  -7.699  0.00  0.00     0.275 HD
ENDBRANCH   5  10
ENDBRANCH   1   5
BRANCH   2  14
HETATM   14  C           1     -22.204  -4.552 -10.851  0.00  0.00     0.214 C 
BRANCH  14  15
HETATM   15  C           1     -23.478  -4.405 -11.673  0.00  0.00     0.147 C 
HETATM   16  C           1     -24.408  -3.408 -10.994  0.00  0.00     0.042 C 
BRANCH  15  17
HETATM   17  O           1     -23.153  -3.943 -12.957  0.00  0.00    -0.393 OA
HETATM   18  H           1     -23.704  -4.409 -13.563  0.00  0.00     0.210 HD
ENDBRANCH  15  17
ENDBRANCH  14  15
BRANCH  14  19
HETATM   19  C           1     -21.168  -3.575 -11.349  0.00  0.00     0.199 C 
HETATM   20  O           1     -21.475  -2.376 -11.531  0.00  0.00    -0.646 OA
HETATM   21  O           1     -20.003  -3.964 -11.582  0.00  0.00    -0.646 OA
ENDBRANCH  14  19
ENDBRANCH   2  14
TORSDOF 8
ENDMDL
MODEL 6
REMARK VINA RESULT:      -5.5      9.868     11.692
REMARK  8 active torsions:
REMARK  status: ('A' for Active; 'I' for Inactive)
REMARK       I    between atoms: C_1  and  N_4 
REMARK    1  A    between atoms: C_1  and  C_3 
REMARK    2  A    between atoms: C_3  and  C_16 
REMARK    3  A    between atoms: C_3  and  N_8 
REMARK    4  A    between atoms: N_4  and  C_12 
REMARK    5  A    between atoms: C_6  and  C_16 
REMARK    6  A    between atoms: C_10  and  O_11 
REMARK    7  A    between atoms: C_10  and  C_12 
REMARK    8  A    between atoms: C_12  and  C_13 
ROOT
HETATM    1  C           1     -26.312  -6.285 -17.803  0.00  0.00     0.249 C 
HETATM    2  N           1     -27.475  -6.984 -17.985  0.00  0.00    -0.343 N 
HETATM    3  O           1     -26.268  -5.384 -17.001  0.00  0.00    -0.271 OA
HETATM    4  H           1     -27.512  -7.738 -18.658  0.00  0.00     0.163 HD
ENDROOT
BRANCH   1   5
HETATM    5  C           1     -25.085  -6.641 -18.606  0.00  0.00     0.278 C 
BRANCH   5   6
HETATM    6  C           1     -25.507  -7.207 -19.954  0.00  0.00     0.021 C 
HETATM    7  C           1     -25.870  -6.066 -20.895  0.00  0.00     0.012 C 
BRANCH   6   8
HETATM    8  C           1     -24.358  -8.009 -20.551  0.00  0.00     0.002 C 
HETATM    9  C           1     -24.298  -7.772 -22.054  0.00  0.00     0.005 C 
ENDBRANCH   6   8
ENDBRANCH   5   6
BRANCH   5  10
HETATM   10  N           1     -24.282  -7.667 -17.862  0.00  0.00    -0.066 N 
HETATM   11  H           1     -24.928  -8.318 -17.361  0.00  0.00     0.275 HD
HETATM   12  H           1     -23.698  -8.210 -18.538  0.00  0.00     0.275 HD
HETATM   13  H           1     -23.663  -7.190 -17.170  0.00  0.00     0.275 HD
ENDBRANCH   5  10
ENDBRANCH   1   5
BRANCH   2  14
HETATM   14  C           1     -28.654  -6.642 -17.213  0.00  0.00     0.214 C 
BRANCH  14  15
HETATM   15  C           1     -29.749  -7.667 -17.478  0.00  0.00     0.147 C 
HETATM   16  C           1     -31.090  -6.955 -17.602  0.00  0.00     0.042 C 
BRANCH  15  17
HETATM   17  O           1     -29.470  -8.350 -18.671  0.00  0.00    -0.393 OA
HETATM   18  H           1     -29.393  -7.699 -19.347  0.00  0.00     0.210 HD
ENDBRANCH  15  17
ENDBRANCH  14  15
BRANCH  14  19
HETATM   19  C           1     -28.310  -6.642 -15.744  0.00  0.00     0.199 C 
HETATM   20  O           1     -28.519  -5.621 -15.052  0.00  0.00    -0.646 OA
HETATM   21  O           1     -27.816  -7.662 -15.218  0.00  0.00    -0.646 OA
ENDBRANCH  14  19
ENDBRANCH   2  14
TORSDOF 8
ENDMDL
MODEL 7
REMARK VINA RESULT:      -5.5     14.868     16.856
REMARK  8 active torsions:
REMARK  status: ('A' for Active; 'I' for Inactive)
REMARK       I    between atoms: C_1  and  N_4 
REMARK    1  A    between atoms: C_1  and  C_3 
REMARK    2  A    between atoms: C_3  and  C_16 
REMARK    3  A    between atoms: C_3  and  N_8 
REMARK    4  A    between atoms: N_4  and  C_12 
REMARK    5  A    between atoms: C_6  and  C_16 
REMARK    6  A    between atoms: C_10  and  O_11 
REMARK    7  A    between atoms: C_10  and  C_12 
REMARK    8  A    between atoms: C_12  and  C_13 
ROOT
HETATM    1  C           1     -21.521  -7.180  -5.352  0.00  0.00     0.249 C 
HETATM    2  N           1     -21.868  -5.899  -5.689  0.00  0.00    -0.343 N 
HETATM    3  O           1     -20.866  -7.848  -6.115  0.00  0.00    -0.271 OA
HETATM    4  H           1     -22.419  -5.339  -5.050  0.00  0.00     0.163 HD
ENDROOT
BRANCH   1   5
HETATM    5  C           1     -21.957  -7.757  -4.028  0.00  0.00     0.278 C 
BRANCH   5   6
HETATM    6  C           1     -21.193  -7.075  -2.901  0.00  0.00     0.021 C 
HETATM    7  C           1     -22.144  -6.192  -2.103  0.00  0.00     0.012 C 
BRANCH   6   8
HETATM    8  C           1     -20.592  -8.132  -1.984  0.00  0.00     0.002 C 
HETATM    9  C           1     -21.227  -8.027  -0.603  0.00  0.00     0.005 C 
ENDBRANCH   6   8
ENDBRANCH   5   6
BRANCH   5  10
HETATM   10  N           1     -21.671  -9.229  -4.006  0.00  0.00    -0.066 N 
HETATM   11  H           1     -20.667  -9.386  -3.763  0.00  0.00     0.275 HD
HETATM   12  H           1     -22.278  -9.692  -3.291  0.00  0.00     0.275 HD
HETATM   13  H           1     -21.869  -9.636  -4.947  0.00  0.00     0.275 HD
ENDBRANCH   5  10
ENDBRANCH   1   5
BRANCH   2  14
HETATM   14  C           1     -21.449  -5.345  -6.961  0.00  0.00     0.214 C 
BRANCH  14  15
HETATM   15  C           1     -22.458  -4.299  -7.416  0.00  0.00     0.147 C 
HETATM   16  C           1     -22.663  -4.413  -8.921  0.00  0.00     0.042 C 
BRANCH  15  17
HETATM   17  O           1     -23.679  -4.511  -6.760  0.00  0.00    -0.393 OA
HETATM   18  H           1     -23.499  -5.066  -6.020  0.00  0.00     0.210 HD
ENDBRANCH  15  17
ENDBRANCH  14  15
BRANCH  14  19
HETATM   19  C           1     -20.093  -4.703  -6.807  0.00  0.00     0.199 C 
HETATM   20  O           1     -19.419  -4.411  -7.820  0.00  0.00    -0.646 OA
HETATM   21  O           1     -19.642  -4.462  -5.666  0.00  0.00    -0.646 OA
ENDBRANCH  14  19
ENDBRANCH   2  14
TORSDOF 8
ENDMDL
MODEL 8
REMARK VINA RESULT:      -5.3     14.891     17.211
REMARK  8 active torsions:
REMARK  status: ('A' for Active; 'I' for Inactive)
REMARK       I    between atoms: C_1  and  N_4 
REMARK    1  A    between atoms: C_1  and  C_3 
REMARK    2  A    between atoms: C_3  and  C_16 
REMARK    3  A    between atoms: C_3  and  N_8 
REMARK    4  A    between atoms: N_4  and  C_12 
REMARK    5  A    between atoms: C_6  and  C_16 
REMARK    6  A    between atoms: C_10  and  O_11 
REMARK    7  A    between atoms: C_10  and  C_12 
REMARK    8  A    between atoms: C_12  and  C_13 
ROOT
HETATM    1  C           1     -21.108  -5.111  -6.310  0.00  0.00     0.249 C 
HETATM    2  N           1     -21.614  -6.227  -5.699  0.00  0.00    -0.343 N 
HETATM    3  O           1     -19.989  -4.737  -6.052  0.00  0.00    -0.271 OA
HETATM    4  H           1     -22.553  -6.540  -5.914  0.00  0.00     0.163 HD
ENDROOT
BRANCH   1   5
HETATM    5  C           1     -21.947  -4.350  -7.307  0.00  0.00     0.278 C 
BRANCH   5   6
HETATM    6  C           1     -21.677  -4.880  -8.708  0.00  0.00     0.021 C 
HETATM    7  C           1     -22.885  -4.609  -9.596  0.00  0.00     0.012 C 
BRANCH   6   8
HETATM    8  C           1     -20.454  -4.181  -9.288  0.00  0.00     0.002 C 
HETATM    9  C           1     -20.476  -4.296 -10.807  0.00  0.00     0.005 C 
ENDBRANCH   6   8
ENDBRANCH   5   6
BRANCH   5  10
HETATM   10  N           1     -21.593  -2.893  -7.247  0.00  0.00    -0.066 N 
HETATM   11  H           1     -20.712  -2.726  -7.783  0.00  0.00     0.275 HD
HETATM   12  H           1     -22.368  -2.329  -7.665  0.00  0.00     0.275 HD
HETATM   13  H           1     -21.454  -2.609  -6.251  0.00  0.00     0.275 HD
ENDBRANCH   5  10
ENDBRANCH   1   5
BRANCH   2  14
HETATM   14  C           1     -20.808  -6.958  -4.742  0.00  0.00     0.214 C 
BRANCH  14  15
HETATM   15  C           1     -21.632  -7.237  -3.491  0.00  0.00     0.147 C 
HETATM   16  C           1     -20.717  -7.742  -2.383  0.00  0.00     0.042 C 
BRANCH  15  17
HETATM   17  O           1     -22.263  -6.055  -3.076  0.00  0.00    -0.393 OA
HETATM   18  H           1     -22.929  -6.303  -2.458  0.00  0.00     0.210 HD
ENDBRANCH  15  17
ENDBRANCH  14  15
BRANCH  14  19
HETATM   19  C           1     -20.364  -8.265  -5.353  0.00  0.00     0.199 C 
HETATM   20  O           1     -21.204  -9.159  -5.594  0.00  0.00    -0.646 OA
HETATM   21  O           1     -19.157  -8.453  -5.618  0.00  0.00    -0.646 OA
ENDBRANCH  14  19
ENDBRANCH   2  14
TORSDOF 8
ENDMDL
MODEL 9
REMARK VINA RESULT:      -5.3      1.830      2.893
REMARK  8 active torsions:
REMARK  status: ('A' for Active; 'I' for Inactive)
REMARK       I    between atoms: C_1  and  N_4 
REMARK    1  A    between atoms: C_1  and  C_3 
REMARK    2  A    between atoms: C_3  and  C_16 
REMARK    3  A    between atoms: C_3  and  N_8 
REMARK    4  A    between atoms: N_4  and  C_12 
REMARK    5  A    between atoms: C_6  and  C_16 
REMARK    6  A    between atoms: C_10  and  O_11 
REMARK    7  A    between atoms: C_10  and  C_12 
REMARK    8  A    between atoms: C_12  and  C_13 
ROOT
HETATM    1  C           1     -34.752  -2.783 -14.000  0.00  0.00     0.249 C 
HETATM    2  N           1     -35.171  -1.607 -13.437  0.00  0.00    -0.343 N 
HETATM    3  O           1     -34.694  -2.891 -15.201  0.00  0.00    -0.271 OA
HETATM    4  H           1     -35.221  -1.517 -12.430  0.00  0.00     0.163 HD
ENDROOT
BRANCH   1   5
HETATM    5  C           1     -34.362  -3.944 -13.118  0.00  0.00     0.278 C 
BRANCH   5   6
HETATM    6  C           1     -34.570  -3.565 -11.658  0.00  0.00     0.021 C 
HETATM    7  C           1     -35.135  -4.758 -10.898  0.00  0.00     0.012 C 
BRANCH   6   8
HETATM    8  C           1     -33.237  -3.158 -11.045  0.00  0.00     0.002 C 
HETATM    9  C           1     -33.397  -1.831 -10.315  0.00  0.00     0.005 C 
ENDBRANCH   6   8
ENDBRANCH   5   6
BRANCH   5  10
HETATM   10  N           1     -32.918  -4.281 -13.346  0.00  0.00    -0.066 N 
HETATM   11  H           1     -32.655  -4.040 -14.329  0.00  0.00     0.275 HD
HETATM   12  H           1     -32.324  -3.733 -12.683  0.00  0.00     0.275 HD
HETATM   13  H           1     -32.769  -5.302 -13.186  0.00  0.00     0.275 HD
ENDBRANCH   5  10
ENDBRANCH   1   5
BRANCH   2  14
HETATM   14  C           1     -35.546  -0.492 -14.285  0.00  0.00     0.214 C 
BRANCH  14  15
HETATM   15  C           1     -37.064  -0.382 -14.338  0.00  0.00     0.147 C 
HETATM   16  C           1     -37.608  -0.190 -12.928  0.00  0.00     0.042 C 
BRANCH  15  17
HETATM   17  O           1     -37.425   0.715 -15.132  0.00  0.00    -0.393 OA
HETATM   18  H           1     -37.205   0.494 -16.021  0.00  0.00     0.210 HD
ENDBRANCH  15  17
ENDBRANCH  14  15
BRANCH  14  19
HETATM   19  C           1     -34.969   0.783 -13.721  0.00  0.00     0.199 C 
HETATM   20  O           1     -34.535   0.809 -12.548  0.00  0.00    -0.646 OA
HETATM   21  O           1     -34.925   1.814 -14.426  0.00  0.00    -0.646 OA
ENDBRANCH  14  19
ENDBRANCH   2  14
TORSDOF 8
ENDMDL
