MODEL 1
REMARK VINA RESULT:      -4.9      0.000      0.000
REMARK  5 active torsions:
REMARK  status: ('A' for Active; 'I' for Inactive)
REMARK    1  A    between atoms: C_2  and  C_3 
REMARK       I    between atoms: C_3  and  N_4 
REMARK    2  A    between atoms: N_4  and  C_20 
REMARK    3  A    between atoms: C_18  and  O_19 
REMARK    4  A    between atoms: C_18  and  C_20 
REMARK    5  A    between atoms: C_20  and  C_21 
ROOT
HETATM    1  C           1     -34.959  -0.949 -13.012  0.00  0.00     0.249 C 
HETATM    2  N           1     -35.462  -1.339 -14.224  0.00  0.00    -0.343 N 
HETATM    3  H           1     -35.609  -2.322 -14.418  0.00  0.00     0.163 HD
HETATM    4  O           1     -34.784   0.223 -12.779  0.00  0.00    -0.271 OA
ENDROOT
BRANCH   1   5
HETATM    5  C           1     -34.624  -1.984 -11.966  0.00  0.00     0.274 C 
HETATM    6  C           1     -35.909  -2.615 -11.445  0.00  0.00     0.042 C 
HETATM    7  C           1     -36.791  -1.537 -10.828  0.00  0.00     0.003 C 
HETATM    8 Se           1     -35.842  -0.686  -9.354  0.00  0.00     0.000 Se
HETATM    9  C           1     -37.291   0.542  -8.916  0.00  0.00     0.000 C 
HETATM   10  H           1     -34.500  -0.590 -10.408  0.00  0.00     0.275 HD
HETATM   11  N           1     -33.894  -1.329 -10.831  0.00  0.00    -0.067 N 
HETATM   12  H           1     -33.662  -2.044 -10.106  0.00  0.00     0.275 HD
HETATM   13  H           1     -33.012  -0.896 -11.187  0.00  0.00     0.275 HD
ENDBRANCH   1   5
BRANCH   2  14
HETATM   14  C           1     -35.784  -0.345 -15.229  0.00  0.00     0.214 C 
BRANCH  14  15
HETATM   15  C           1     -35.372  -0.859 -16.601  0.00  0.00     0.147 C 
HETATM   16  C           1     -34.909  -2.305 -16.483  0.00  0.00     0.042 C 
BRANCH  15  17
HETATM   17  O           1     -36.467  -0.788 -17.474  0.00  0.00    -0.393 OA
HETATM   18  H           1     -36.985  -1.560 -17.326  0.00  0.00     0.210 HD
ENDBRANCH  15  17
ENDBRANCH  14  15
BRANCH  14  19
HETATM   19  C           1     -37.269  -0.080 -15.216  0.00  0.00     0.199 C 
HETATM   20  O           1     -37.730   0.928 -15.794  0.00  0.00    -0.646 OA
HETATM   21  O           1     -38.039  -0.868 -14.626  0.00  0.00    -0.646 OA
ENDBRANCH  14  19
ENDBRANCH   2  14
TORSDOF 5
ENDMDL
MODEL 2
REMARK VINA RESULT:      -4.8      2.505      3.717
REMARK  5 active torsions:
REMARK  status: ('A' for Active; 'I' for Inactive)
REMARK    1  A    between atoms: C_2  and  C_3 
REMARK       I    between atoms: C_3  and  N_4 
REMARK    2  A    between atoms: N_4  and  C_20 
REMARK    3  A    between atoms: C_18  and  O_19 
REMARK    4  A    between atoms: C_18  and  C_20 
REMARK    5  A    between atoms: C_20  and  C_21 
ROOT
HETATM    1  C           1     -35.259  -2.060 -12.646  0.00  0.00     0.249 C 
HETATM    2  N           1     -35.797  -0.834 -12.933  0.00  0.00    -0.343 N 
HETATM    3  H           1     -36.234  -0.289 -12.200  0.00  0.00     0.163 HD
HETATM    4  O           1     -34.739  -2.711 -13.521  0.00  0.00    -0.271 OA
ENDROOT
BRANCH   1   5
HETATM    5  C           1     -35.316  -2.598 -11.238  0.00  0.00     0.274 C 
HETATM    6  C           1     -34.005  -2.293 -10.524  0.00  0.00     0.042 C 
HETATM    7  C           1     -32.854  -2.951 -11.273  0.00  0.00     0.003 C 
HETATM    8 Se           1     -33.129  -4.880 -11.325  0.00  0.00     0.000 Se
HETATM    9  C           1     -31.497  -5.250 -12.323  0.00  0.00     0.000 C 
HETATM   10  H           1     -34.737  -4.534 -11.792  0.00  0.00     0.275 HD
HETATM   11  N           1     -35.528  -4.083 -11.279  0.00  0.00    -0.067 N 
HETATM   12  H           1     -35.567  -4.456 -10.303  0.00  0.00     0.275 HD
HETATM   13  H           1     -36.427  -4.293 -11.768  0.00  0.00     0.275 HD
ENDBRANCH   1   5
BRANCH   2  14
HETATM   14  C           1     -35.743  -0.317 -14.286  0.00  0.00     0.214 C 
BRANCH  14  15
HETATM   15  C           1     -37.159  -0.112 -14.808  0.00  0.00     0.147 C 
HETATM   16  C           1     -37.286  -0.738 -16.191  0.00  0.00     0.042 C 
BRANCH  15  17
HETATM   17  O           1     -38.071  -0.720 -13.933  0.00  0.00    -0.393 OA
HETATM   18  H           1     -38.902  -0.741 -14.377  0.00  0.00     0.210 HD
ENDBRANCH  15  17
ENDBRANCH  14  15
BRANCH  14  19
HETATM   19  C           1     -35.008   1.000 -14.292  0.00  0.00     0.199 C 
HETATM   20  O           1     -35.323   1.888 -15.113  0.00  0.00    -0.646 OA
HETATM   21  O           1     -34.084   1.203 -13.475  0.00  0.00    -0.646 OA
ENDBRANCH  14  19
ENDBRANCH   2  14
TORSDOF 5
ENDMDL
MODEL 3
REMARK VINA RESULT:      -4.7      1.479      2.304
REMARK  5 active torsions:
REMARK  status: ('A' for Active; 'I' for Inactive)
REMARK    1  A    between atoms: C_2  and  C_3 
REMARK       I    between atoms: C_3  and  N_4 
REMARK    2  A    between atoms: N_4  and  C_20 
REMARK    3  A    between atoms: C_18  and  O_19 
REMARK    4  A    between atoms: C_18  and  C_20 
REMARK    5  A    between atoms: C_20  and  C_21 
ROOT
HETATM    1  C           1     -34.677  -2.179 -13.012  0.00  0.00     0.249 C 
HETATM    2  N           1     -35.057  -0.879 -13.210  0.00  0.00    -0.343 N 
HETATM    3  H           1     -35.047  -0.225 -12.437  0.00  0.00     0.163 HD
HETATM    4  O           1     -34.688  -2.959 -13.936  0.00  0.00    -0.271 OA
ENDROOT
BRANCH   1   5
HETATM    5  C           1     -34.244  -2.638 -11.642  0.00  0.00     0.274 C 
HETATM    6  C           1     -35.392  -3.379 -10.968  0.00  0.00     0.042 C 
HETATM    7  C           1     -36.590  -2.449 -10.836  0.00  0.00     0.003 C 
HETATM    8 Se           1     -36.097  -0.900  -9.760  0.00  0.00     0.000 Se
HETATM    9  C           1     -37.851  -0.059  -9.871  0.00  0.00     0.000 C 
HETATM   10  H           1     -34.687  -0.809 -10.723  0.00  0.00     0.275 HD
HETATM   11  N           1     -33.865  -1.446 -10.813  0.00  0.00    -0.067 N 
HETATM   12  H           1     -33.565  -1.763  -9.864  0.00  0.00     0.275 HD
HETATM   13  H           1     -33.077  -0.938 -11.275  0.00  0.00     0.275 HD
ENDBRANCH   1   5
BRANCH   2  14
HETATM   14  C           1     -35.472  -0.438 -14.528  0.00  0.00     0.214 C 
BRANCH  14  15
HETATM   15  C           1     -36.963  -0.694 -14.701  0.00  0.00     0.147 C 
HETATM   16  C           1     -37.729  -0.012 -13.575  0.00  0.00     0.042 C 
BRANCH  15  17
HETATM   17  O           1     -37.386  -0.177 -15.934  0.00  0.00    -0.393 OA
HETATM   18  H           1     -38.147  -0.668 -16.190  0.00  0.00     0.210 HD
ENDBRANCH  15  17
ENDBRANCH  14  15
BRANCH  14  19
HETATM   19  C           1     -35.195   1.038 -14.674  0.00  0.00     0.199 C 
HETATM   20  O           1     -34.608   1.658 -13.761  0.00  0.00    -0.646 OA
HETATM   21  O           1     -35.553   1.641 -15.709  0.00  0.00    -0.646 OA
ENDBRANCH  14  19
ENDBRANCH   2  14
TORSDOF 5
ENDMDL
MODEL 4
REMARK VINA RESULT:      -4.7     15.863     18.073
REMARK  5 active torsions:
REMARK  status: ('A' for Active; 'I' for Inactive)
REMARK    1  A    between atoms: C_2  and  C_3 
REMARK       I    between atoms: C_3  and  N_4 
REMARK    2  A    between atoms: N_4  and  C_20 
REMARK    3  A    between atoms: C_18  and  O_19 
REMARK    4  A    between atoms: C_18  and  C_20 
REMARK    5  A    between atoms: C_20  and  C_21 
ROOT
HETATM    1  C           1     -20.785  -5.888  -6.542  0.00  0.00     0.249 C 
HETATM    2  N           1     -20.639  -6.024  -5.188  0.00  0.00    -0.343 N 
HETATM    3  H           1     -20.123  -5.330  -4.662  0.00  0.00     0.163 HD
HETATM    4  O           1     -21.401  -6.717  -7.170  0.00  0.00    -0.271 OA
ENDROOT
BRANCH   1   5
HETATM    5  C           1     -20.176  -4.703  -7.251  0.00  0.00     0.274 C 
HETATM    6  C           1     -21.134  -3.521  -7.179  0.00  0.00     0.042 C 
HETATM    7  C           1     -22.451  -3.892  -7.848  0.00  0.00     0.003 C 
HETATM    8 Se           1     -22.125  -4.349  -9.715  0.00  0.00     0.000 Se
HETATM    9  C           1     -23.994  -4.727 -10.118  0.00  0.00     0.000 C 
HETATM   10  H           1     -20.830  -5.309  -9.147  0.00  0.00     0.275 HD
HETATM   11  N           1     -19.926  -5.056  -8.688  0.00  0.00    -0.067 N 
HETATM   12  H           1     -19.505  -4.236  -9.180  0.00  0.00     0.275 HD
HETATM   13  H           1     -19.269  -5.867  -8.738  0.00  0.00     0.275 HD
ENDBRANCH   1   5
BRANCH   2  14
HETATM   14  C           1     -21.224  -7.163  -4.507  0.00  0.00     0.214 C 
BRANCH  14  15
HETATM   15  C           1     -20.247  -8.331  -4.541  0.00  0.00     0.147 C 
HETATM   16  C           1     -21.020  -9.633  -4.703  0.00  0.00     0.042 C 
BRANCH  15  17
HETATM   17  O           1     -19.368  -8.171  -5.622  0.00  0.00    -0.393 OA
HETATM   18  H           1     -18.698  -8.827  -5.529  0.00  0.00     0.210 HD
ENDBRANCH  15  17
ENDBRANCH  14  15
BRANCH  14  19
HETATM   19  C           1     -21.517  -6.794  -3.073  0.00  0.00     0.199 C 
HETATM   20  O           1     -22.441  -5.996  -2.810  0.00  0.00    -0.646 OA
HETATM   21  O           1     -20.835  -7.288  -2.149  0.00  0.00    -0.646 OA
ENDBRANCH  14  19
ENDBRANCH   2  14
TORSDOF 5
ENDMDL
MODEL 5
REMARK VINA RESULT:      -4.6      2.391      3.559
REMARK  5 active torsions:
REMARK  status: ('A' for Active; 'I' for Inactive)
REMARK    1  A    between atoms: C_2  and  C_3 
REMARK       I    between atoms: C_3  and  N_4 
REMARK    2  A    between atoms: N_4  and  C_20 
REMARK    3  A    between atoms: C_18  and  O_19 
REMARK    4  A    between atoms: C_18  and  C_20 
REMARK    5  A    between atoms: C_20  and  C_21 
ROOT
HETATM    1  C           1     -34.868  -2.049 -12.240  0.00  0.00     0.249 C 
HETATM    2  N           1     -34.767  -1.358 -13.418  0.00  0.00    -0.343 N 
HETATM    3  H           1     -33.858  -1.075 -13.762  0.00  0.00     0.163 HD
HETATM    4  O           1     -35.953  -2.387 -11.830  0.00  0.00    -0.271 OA
ENDROOT
BRANCH   1   5
HETATM    5  C           1     -33.624  -2.389 -11.456  0.00  0.00     0.274 C 
HETATM    6  C           1     -32.846  -3.477 -12.184  0.00  0.00     0.042 C 
HETATM    7  C           1     -33.716  -4.720 -12.319  0.00  0.00     0.003 C 
HETATM    8 Se           1     -34.220  -5.358 -10.548  0.00  0.00     0.000 Se
HETATM    9  C           1     -35.260  -6.867 -11.208  0.00  0.00     0.000 C 
HETATM   10  H           1     -34.609  -3.733 -10.186  0.00  0.00     0.275 HD
HETATM   11  N           1     -34.013  -2.880 -10.093  0.00  0.00    -0.067 N 
HETATM   12  H           1     -33.152  -3.115  -9.549  0.00  0.00     0.275 HD
HETATM   13  H           1     -34.546  -2.133  -9.592  0.00  0.00     0.275 HD
ENDBRANCH   1   5
BRANCH   2  14
HETATM   14  C           1     -35.962  -1.032 -14.171  0.00  0.00     0.214 C 
BRANCH  14  15
HETATM   15  C           1     -36.254   0.457 -14.040  0.00  0.00     0.147 C 
HETATM   16  C           1     -34.945   1.235 -14.077  0.00  0.00     0.042 C 
BRANCH  15  17
HETATM   17  O           1     -37.072   0.868 -15.102  0.00  0.00    -0.393 OA
HETATM   18  H           1     -37.509   0.098 -15.424  0.00  0.00     0.210 HD
ENDBRANCH  15  17
ENDBRANCH  14  15
BRANCH  14  19
HETATM   19  C           1     -35.750  -1.377 -15.624  0.00  0.00     0.199 C 
HETATM   20  O           1     -36.731  -1.500 -16.388  0.00  0.00    -0.646 OA
HETATM   21  O           1     -34.591  -1.541 -16.065  0.00  0.00    -0.646 OA
ENDBRANCH  14  19
ENDBRANCH   2  14
TORSDOF 5
ENDMDL
MODEL 6
REMARK VINA RESULT:      -4.6     18.415     20.681
REMARK  5 active torsions:
REMARK  status: ('A' for Active; 'I' for Inactive)
REMARK    1  A    between atoms: C_2  and  C_3 
REMARK       I    between atoms: C_3  and  N_4 
REMARK    2  A    between atoms: N_4  and  C_20 
REMARK    3  A    between atoms: C_18  and  O_19 
REMARK    4  A    between atoms: C_18  and  C_20 
REMARK    5  A    between atoms: C_20  and  C_21 
ROOT
HETATM    1  C           1     -20.191  -9.367  -2.589  0.00  0.00     0.249 C 
HETATM    2  N           1     -21.270  -8.819  -1.949  0.00  0.00    -0.343 N 
HETATM    3  H           1     -22.185  -8.851  -2.381  0.00  0.00     0.163 HD
HETATM    4  O           1     -19.099  -9.328  -2.073  0.00  0.00    -0.271 OA
ENDROOT
BRANCH   1   5
HETATM    5  C           1     -20.365 -10.018  -3.939  0.00  0.00     0.274 C 
HETATM    6  C           1     -19.407  -9.382  -4.938  0.00  0.00     0.042 C 
HETATM    7  C           1     -19.705  -7.893  -5.051  0.00  0.00     0.003 C 
HETATM    8 Se           1     -21.539  -7.641  -5.661  0.00  0.00     0.000 Se
HETATM    9  C           1     -21.447  -5.694  -5.650  0.00  0.00     0.000 C 
HETATM   10  H           1     -21.980  -8.801  -4.486  0.00  0.00     0.275 HD
HETATM   11  N           1     -21.777  -9.823  -4.408  0.00  0.00    -0.067 N 
HETATM   12  H           1     -21.899 -10.274  -5.343  0.00  0.00     0.275 HD
HETATM   13  H           1     -22.435 -10.260  -3.723  0.00  0.00     0.275 HD
ENDBRANCH   1   5
BRANCH   2  14
HETATM   14  C           1     -21.102  -8.194  -0.651  0.00  0.00     0.214 C 
BRANCH  14  15
HETATM   15  C           1     -22.062  -7.018  -0.528  0.00  0.00     0.147 C 
HETATM   16  C           1     -22.269  -6.387  -1.898  0.00  0.00     0.042 C 
BRANCH  15  17
HETATM   17  O           1     -23.292  -7.470  -0.030  0.00  0.00    -0.393 OA
HETATM   18  H           1     -23.258  -7.379   0.907  0.00  0.00     0.210 HD
ENDBRANCH  15  17
ENDBRANCH  14  15
BRANCH  14  19
HETATM   19  C           1     -21.397  -9.200   0.434  0.00  0.00     0.199 C 
HETATM   20  O           1     -22.093 -10.206   0.181  0.00  0.00    -0.646 OA
HETATM   21  O           1     -20.944  -9.026   1.586  0.00  0.00    -0.646 OA
ENDBRANCH  14  19
ENDBRANCH   2  14
TORSDOF 5
ENDMDL
MODEL 7
REMARK VINA RESULT:      -4.6     18.314     19.598
REMARK  5 active torsions:
REMARK  status: ('A' for Active; 'I' for Inactive)
REMARK    1  A    between atoms: C_2  and  C_3 
REMARK       I    between atoms: C_3  and  N_4 
REMARK    2  A    between atoms: N_4  and  C_20 
REMARK    3  A    between atoms: C_18  and  O_19 
REMARK    4  A    between atoms: C_18  and  C_20 
REMARK    5  A    between atoms: C_20  and  C_21 
ROOT
HETATM    1  C           1     -21.512  -9.875  -3.356  0.00  0.00     0.249 C 
HETATM    2  N           1     -21.109  -8.571  -3.462  0.00  0.00    -0.343 N 
HETATM    3  H           1     -20.421  -8.200  -2.818  0.00  0.00     0.163 HD
HETATM    4  O           1     -22.333 -10.318  -4.125  0.00  0.00    -0.271 OA
ENDROOT
BRANCH   1   5
HETATM    5  C           1     -20.932 -10.760  -2.280  0.00  0.00     0.274 C 
HETATM    6  C           1     -22.059 -11.340  -1.436  0.00  0.00     0.042 C 
HETATM    7  C           1     -22.847 -10.207  -0.792  0.00  0.00     0.003 C 
HETATM    8 Se           1     -21.662  -9.155   0.344  0.00  0.00     0.000 Se
HETATM    9  C           1     -23.047  -7.907   0.911  0.00  0.00     0.000 C 
HETATM   10  H           1     -20.562  -9.173  -0.964  0.00  0.00     0.275 HD
HETATM   11  N           1     -20.020  -9.949  -1.406  0.00  0.00    -0.067 N 
HETATM   12  H           1     -19.618 -10.561  -0.661  0.00  0.00     0.275 HD
HETATM   13  H           1     -19.246  -9.551  -1.985  0.00  0.00     0.275 HD
ENDBRANCH   1   5
BRANCH   2  14
HETATM   14  C           1     -21.667  -7.721  -4.496  0.00  0.00     0.214 C 
BRANCH  14  15
HETATM   15  C           1     -21.898  -6.325  -3.934  0.00  0.00     0.147 C 
HETATM   16  C           1     -21.924  -6.388  -2.413  0.00  0.00     0.042 C 
BRANCH  15  17
HETATM   17  O           1     -20.860  -5.478  -4.350  0.00  0.00    -0.393 OA
HETATM   18  H           1     -20.582  -5.781  -5.197  0.00  0.00     0.210 HD
ENDBRANCH  15  17
ENDBRANCH  14  15
BRANCH  14  19
HETATM   19  C           1     -20.705  -7.645  -5.656  0.00  0.00     0.199 C 
HETATM   20  O           1     -21.045  -7.071  -6.713  0.00  0.00    -0.646 OA
HETATM   21  O           1     -19.569  -8.157  -5.560  0.00  0.00    -0.646 OA
ENDBRANCH  14  19
ENDBRANCH   2  14
TORSDOF 5
ENDMDL
MODEL 8
REMARK VINA RESULT:      -4.5     18.181     19.777
REMARK  5 active torsions:
REMARK  status: ('A' for Active; 'I' for Inactive)
REMARK    1  A    between atoms: C_2  and  C_3 
REMARK       I    between atoms: C_3  and  N_4 
REMARK    2  A    between atoms: N_4  and  C_20 
REMARK    3  A    between atoms: C_18  and  O_19 
REMARK    4  A    between atoms: C_18  and  C_20 
REMARK    5  A    between atoms: C_20  and  C_21 
ROOT
HETATM    1  C           1     -20.874  -7.893  -1.239  0.00  0.00     0.249 C 
HETATM    2  N           1     -21.569  -7.668  -2.397  0.00  0.00    -0.343 N 
HETATM    3  H           1     -22.578  -7.584  -2.375  0.00  0.00     0.163 HD
HETATM    4  O           1     -19.671  -7.993  -1.267  0.00  0.00    -0.271 OA
ENDROOT
BRANCH   1   5
HETATM    5  C           1     -21.612  -8.015   0.071  0.00  0.00     0.274 C 
HETATM    6  C           1     -21.172  -9.286   0.786  0.00  0.00     0.042 C 
HETATM    7  C           1     -21.484 -10.494  -0.086  0.00  0.00     0.003 C 
HETATM    8 Se           1     -23.401 -10.574  -0.427  0.00  0.00     0.000 Se
HETATM    9  C           1     -23.307 -12.187  -1.515  0.00  0.00     0.000 C 
HETATM   10  H           1     -23.302  -8.906  -0.789  0.00  0.00     0.275 HD
HETATM   11  N           1     -23.088  -8.076  -0.191  0.00  0.00    -0.067 N 
HETATM   12  H           1     -23.601  -8.161   0.716  0.00  0.00     0.275 HD
HETATM   13  H           1     -23.391  -7.204  -0.681  0.00  0.00     0.275 HD
ENDBRANCH   1   5
BRANCH   2  14
HETATM   14  C           1     -20.860  -7.550  -3.657  0.00  0.00     0.214 C 
BRANCH  14  15
HETATM   15  C           1     -20.977  -8.858  -4.428  0.00  0.00     0.147 C 
HETATM   16  C           1     -22.118  -9.686  -3.853  0.00  0.00     0.042 C 
BRANCH  15  17
HETATM   17  O           1     -21.234  -8.581  -5.779  0.00  0.00    -0.393 OA
HETATM   18  H           1     -21.807  -9.260  -6.093  0.00  0.00     0.210 HD
ENDBRANCH  15  17
ENDBRANCH  14  15
BRANCH  14  19
HETATM   19  C           1     -21.461  -6.431  -4.469  0.00  0.00     0.199 C 
HETATM   20  O           1     -22.699  -6.263  -4.482  0.00  0.00    -0.646 OA
HETATM   21  O           1     -20.721  -5.671  -5.131  0.00  0.00    -0.646 OA
ENDBRANCH  14  19
ENDBRANCH   2  14
TORSDOF 5
ENDMDL
MODEL 9
REMARK VINA RESULT:      -4.5     19.480     20.915
REMARK  5 active torsions:
REMARK  status: ('A' for Active; 'I' for Inactive)
REMARK    1  A    between atoms: C_2  and  C_3 
REMARK       I    between atoms: C_3  and  N_4 
REMARK    2  A    between atoms: N_4  and  C_20 
REMARK    3  A    between atoms: C_18  and  O_19 
REMARK    4  A    between atoms: C_18  and  C_20 
REMARK    5  A    between atoms: C_20  and  C_21 
ROOT
HETATM    1  C           1     -20.281  -8.755  -3.436  0.00  0.00     0.249 C 
HETATM    2  N           1     -21.399  -8.486  -2.691  0.00  0.00    -0.343 N 
HETATM    3  H           1     -22.291  -8.349  -3.150  0.00  0.00     0.163 HD
HETATM    4  O           1     -19.217  -8.919  -2.889  0.00  0.00    -0.271 OA
ENDROOT
BRANCH   1   5
HETATM    5  C           1     -20.380  -8.846  -4.939  0.00  0.00     0.274 C 
HETATM    6  C           1     -21.205 -10.068  -5.320  0.00  0.00     0.042 C 
HETATM    7  C           1     -20.535 -11.323  -4.779  0.00  0.00     0.003 C 
HETATM    8 Se           1     -18.746 -11.485  -5.538  0.00  0.00     0.000 Se
HETATM    9  C           1     -18.322 -13.140  -4.602  0.00  0.00     0.000 C 
HETATM   10  H           1     -18.544  -9.832  -5.151  0.00  0.00     0.275 HD
HETATM   11  N           1     -19.003  -8.970  -5.522  0.00  0.00    -0.067 N 
HETATM   12  H           1     -19.070  -9.034  -6.563  0.00  0.00     0.275 HD
HETATM   13  H           1     -18.437  -8.132  -5.261  0.00  0.00     0.275 HD
ENDBRANCH   1   5
BRANCH   2  14
HETATM   14  C           1     -21.304  -8.399  -1.247  0.00  0.00     0.214 C 
BRANCH  14  15
HETATM   15  C           1     -21.992  -7.127  -0.770  0.00  0.00     0.147 C 
HETATM   16  C           1     -22.245  -6.211  -1.960  0.00  0.00     0.042 C 
BRANCH  15  17
HETATM   17  O           1     -23.213  -7.456  -0.164  0.00  0.00    -0.393 OA
HETATM   18  H           1     -23.711  -6.659  -0.103  0.00  0.00     0.210 HD
ENDBRANCH  15  17
ENDBRANCH  14  15
BRANCH  14  19
HETATM   19  C           1     -21.977  -9.598  -0.626  0.00  0.00     0.199 C 
HETATM   20  O           1     -21.649  -9.975   0.519  0.00  0.00    -0.646 OA
HETATM   21  O           1     -22.861 -10.215  -1.258  0.00  0.00    -0.646 OA
ENDBRANCH  14  19
ENDBRANCH   2  14
TORSDOF 5
ENDMDL
