MODEL 1
REMARK VINA RESULT:      -6.7      0.000      0.000
REMARK  8 active torsions:
REMARK  status: ('A' for Active; 'I' for Inactive)
REMARK    1  A    between atoms: N_5  and  C_11 
REMARK       I    between atoms: N_5  and  C_19 
REMARK    2  A    between atoms: C_6  and  C_11 
REMARK    3  A    between atoms: O_9  and  C_10 
REMARK    4  A    between atoms: C_10  and  C_22 
REMARK    5  A    between atoms: C_11  and  C_15 
REMARK    6  A    between atoms: C_12  and  C_15 
REMARK    7  A    between atoms: C_19  and  C_22 
REMARK    8  A    between atoms: C_22  and  N_23 
ROOT
HETATM    1  N           1     -23.139  -3.860  -7.849  0.00  0.00    -0.344 N 
HETATM    2  O           1     -21.219  -3.267  -6.875  0.00  0.00    -0.271 OA
HETATM    3  C           1     -21.868  -4.128  -7.418  0.00  0.00     0.251 C 
HETATM    4  H           1     -23.926  -4.013  -7.232  0.00  0.00     0.163 HD
ENDROOT
BRANCH   1   5
HETATM    5  C           1     -23.358  -3.355  -9.191  0.00  0.00     0.191 C 
BRANCH   5   6
HETATM    6  C           1     -24.654  -3.909  -9.731  0.00  0.00     0.197 C 
HETATM    7  O           1     -25.644  -3.158  -9.872  0.00  0.00    -0.646 OA
HETATM    8  O           1     -24.738  -5.117 -10.037  0.00  0.00    -0.646 OA
ENDBRANCH   5   6
BRANCH   5   9
HETATM    9  C           1     -22.207  -3.788 -10.090  0.00  0.00     0.094 C 
BRANCH   9  10
HETATM   10  C           1     -22.498  -3.382 -11.502  0.00  0.00     0.028 A 
HETATM   11  C           1     -21.794  -3.814 -12.600  0.00  0.00     0.114 A 
HETATM   12  N           1     -22.392  -3.203 -13.668  0.00  0.00    -0.360 N 
HETATM   13  H           1     -22.116  -3.302 -14.676  0.00  0.00     0.166 HD
HETATM   14  C           1     -23.417  -2.442 -13.183  0.00  0.00     0.180 A 
HETATM   15  N           1     -23.506  -2.530 -11.875  0.00  0.00    -0.354 N 
ATOM     16  HN          1     -24.180  -2.065 -11.267  1.00  0.00     0.166 HD
ENDBRANCH   9  10
ENDBRANCH   5   9
ENDBRANCH   1   5
BRANCH   3  17
HETATM   17  C           1     -21.277  -5.502  -7.624  0.00  0.00     0.302 C 
BRANCH  17  18
HETATM   18  C           1     -21.532  -6.354  -6.388  0.00  0.00     0.153 C 
HETATM   19  C           1     -20.211  -6.631  -5.683  0.00  0.00     0.042 C 
BRANCH  18  20
HETATM   20  O           1     -22.392  -5.670  -5.517  0.00  0.00    -0.393 OA
HETATM   21  H           1     -22.151  -5.922  -4.641  0.00  0.00     0.210 HD
ENDBRANCH  18  20
ENDBRANCH  17  18
BRANCH  17  22
HETATM   22  N           1     -19.799  -5.382  -7.852  0.00  0.00    -0.064 N 
HETATM   23  H           1     -19.302  -5.402  -6.933  0.00  0.00     0.275 HD
HETATM   24  H           1     -19.594  -4.481  -8.339  0.00  0.00     0.275 HD
HETATM   25  H           1     -19.472  -6.180  -8.442  0.00  0.00     0.275 HD
ENDBRANCH  17  22
ENDBRANCH   3  17
TORSDOF 8
ENDMDL
MODEL 2
REMARK VINA RESULT:      -6.2      2.197      6.181
REMARK  8 active torsions:
REMARK  status: ('A' for Active; 'I' for Inactive)
REMARK    1  A    between atoms: N_5  and  C_11 
REMARK       I    between atoms: N_5  and  C_19 
REMARK    2  A    between atoms: C_6  and  C_11 
REMARK    3  A    between atoms: O_9  and  C_10 
REMARK    4  A    between atoms: C_10  and  C_22 
REMARK    5  A    between atoms: C_11  and  C_15 
REMARK    6  A    between atoms: C_12  and  C_15 
REMARK    7  A    between atoms: C_19  and  C_22 
REMARK    8  A    between atoms: C_22  and  N_23 
ROOT
HETATM    1  N           1     -22.846  -3.067 -10.194  0.00  0.00    -0.344 N 
HETATM    2  O           1     -24.538  -4.474 -10.570  0.00  0.00    -0.271 OA
HETATM    3  C           1     -23.607  -3.850 -11.019  0.00  0.00     0.251 C 
HETATM    4  H           1     -23.095  -2.096 -10.046  0.00  0.00     0.163 HD
ENDROOT
BRANCH   1   5
HETATM    5  C           1     -21.684  -3.625  -9.531  0.00  0.00     0.191 C 
BRANCH   5   6
HETATM    6  C           1     -20.576  -3.819 -10.538  0.00  0.00     0.197 C 
HETATM    7  O           1     -20.232  -2.871 -11.278  0.00  0.00    -0.646 OA
HETATM    8  O           1     -20.002  -4.925 -10.632  0.00  0.00    -0.646 OA
ENDBRANCH   5   6
BRANCH   5   9
HETATM    9  C           1     -22.049  -4.969  -8.914  0.00  0.00     0.094 C 
BRANCH   9  10
HETATM   10  C           1     -21.303  -5.145  -7.627  0.00  0.00     0.028 A 
HETATM   11  C           1     -20.949  -4.121  -6.783  0.00  0.00     0.114 A 
HETATM   12  N           1     -20.293  -4.727  -5.746  0.00  0.00    -0.360 N 
HETATM   13  H           1     -19.878  -4.249  -4.908  0.00  0.00     0.166 HD
HETATM   14  C           1     -20.278  -6.069  -5.999  0.00  0.00     0.180 A 
HETATM   15  N           1     -20.882  -6.352  -7.131  0.00  0.00    -0.354 N 
ATOM     16  HN          1     -21.010  -7.273  -7.551  1.00  0.00     0.166 HD
ENDBRANCH   9  10
ENDBRANCH   5   9
ENDBRANCH   1   5
BRANCH   3  17
HETATM   17  C           1     -23.280  -3.935 -12.490  0.00  0.00     0.302 C 
BRANCH  17  18
HETATM   18  C           1     -23.500  -2.574 -13.138  0.00  0.00     0.153 C 
HETATM   19  C           1     -23.025  -2.620 -14.584  0.00  0.00     0.042 C 
BRANCH  18  20
HETATM   20  O           1     -24.865  -2.255 -13.104  0.00  0.00    -0.393 OA
HETATM   21  H           1     -25.332  -3.064 -12.978  0.00  0.00     0.210 HD
ENDBRANCH  18  20
ENDBRANCH  17  18
BRANCH  17  22
HETATM   22  N           1     -24.171  -4.949 -13.143  0.00  0.00    -0.064 N 
HETATM   23  H           1     -24.295  -5.768 -12.504  0.00  0.00     0.275 HD
HETATM   24  H           1     -23.738  -5.268 -14.039  0.00  0.00     0.275 HD
HETATM   25  H           1     -25.103  -4.518 -13.339  0.00  0.00     0.275 HD
ENDBRANCH  17  22
ENDBRANCH   3  17
TORSDOF 8
ENDMDL
MODEL 3
REMARK VINA RESULT:      -6.2      2.252      2.569
REMARK  8 active torsions:
REMARK  status: ('A' for Active; 'I' for Inactive)
REMARK    1  A    between atoms: N_5  and  C_11 
REMARK       I    between atoms: N_5  and  C_19 
REMARK    2  A    between atoms: C_6  and  C_11 
REMARK    3  A    between atoms: O_9  and  C_10 
REMARK    4  A    between atoms: C_10  and  C_22 
REMARK    5  A    between atoms: C_11  and  C_15 
REMARK    6  A    between atoms: C_12  and  C_15 
REMARK    7  A    between atoms: C_19  and  C_22 
REMARK    8  A    between atoms: C_22  and  N_23 
ROOT
HETATM    1  N           1     -21.337  -3.889  -8.374  0.00  0.00    -0.344 N 
HETATM    2  O           1     -19.226  -4.432  -7.890  0.00  0.00    -0.271 OA
HETATM    3  C           1     -20.399  -4.700  -7.794  0.00  0.00     0.251 C 
HETATM    4  H           1     -21.732  -3.117  -7.852  0.00  0.00     0.163 HD
ENDROOT
BRANCH   1   5
HETATM    5  C           1     -21.764  -4.135  -9.738  0.00  0.00     0.191 C 
BRANCH   5   6
HETATM    6  C           1     -20.639  -3.801 -10.686  0.00  0.00     0.197 C 
HETATM    7  O           1     -19.930  -4.716 -11.161  0.00  0.00    -0.646 OA
HETATM    8  O           1     -20.416  -2.612 -10.997  0.00  0.00    -0.646 OA
ENDBRANCH   5   6
BRANCH   5   9
HETATM    9  C           1     -22.972  -3.263 -10.056  0.00  0.00     0.094 C 
BRANCH   9  10
HETATM   10  C           1     -23.296  -3.373 -11.514  0.00  0.00     0.028 A 
HETATM   11  C           1     -23.723  -4.521 -12.135  0.00  0.00     0.114 A 
HETATM   12  N           1     -23.897  -4.171 -13.446  0.00  0.00    -0.360 N 
HETATM   13  H           1     -24.219  -4.802 -14.221  0.00  0.00     0.166 HD
HETATM   14  C           1     -23.575  -2.849 -13.563  0.00  0.00     0.180 A 
HETATM   15  N           1     -23.208  -2.339 -12.410  0.00  0.00    -0.354 N 
ATOM     16  HN          1     -22.919  -1.379 -12.221  1.00  0.00     0.166 HD
ENDBRANCH   9  10
ENDBRANCH   5   9
ENDBRANCH   1   5
BRANCH   3  17
HETATM   17  C           1     -20.833  -5.930  -7.034  0.00  0.00     0.302 C 
BRANCH  17  18
HETATM   18  C           1     -21.383  -5.518  -5.675  0.00  0.00     0.153 C 
HETATM   19  C           1     -21.781  -6.762  -4.892  0.00  0.00     0.042 C 
BRANCH  18  20
HETATM   20  O           1     -20.400  -4.814  -4.965  0.00  0.00    -0.393 OA
HETATM   21  H           1     -20.191  -5.330  -4.204  0.00  0.00     0.210 HD
ENDBRANCH  18  20
ENDBRANCH  17  18
BRANCH  17  22
HETATM   22  N           1     -19.657  -6.840  -6.842  0.00  0.00    -0.064 N 
HETATM   23  H           1     -19.816  -7.731  -7.363  0.00  0.00     0.275 HD
HETATM   24  H           1     -19.539  -7.047  -5.825  0.00  0.00     0.275 HD
HETATM   25  H           1     -18.794  -6.374  -7.205  0.00  0.00     0.275 HD
ENDBRANCH  17  22
ENDBRANCH   3  17
TORSDOF 8
ENDMDL
MODEL 4
REMARK VINA RESULT:      -6.1      2.600      3.653
REMARK  8 active torsions:
REMARK  status: ('A' for Active; 'I' for Inactive)
REMARK    1  A    between atoms: N_5  and  C_11 
REMARK       I    between atoms: N_5  and  C_19 
REMARK    2  A    between atoms: C_6  and  C_11 
REMARK    3  A    between atoms: O_9  and  C_10 
REMARK    4  A    between atoms: C_10  and  C_22 
REMARK    5  A    between atoms: C_11  and  C_15 
REMARK    6  A    between atoms: C_12  and  C_15 
REMARK    7  A    between atoms: C_19  and  C_22 
REMARK    8  A    between atoms: C_22  and  N_23 
ROOT
HETATM    1  N           1     -20.838  -5.242  -6.591  0.00  0.00    -0.344 N 
HETATM    2  O           1     -19.413  -6.945  -6.356  0.00  0.00    -0.271 OA
HETATM    3  C           1     -20.535  -6.522  -6.211  0.00  0.00     0.251 C 
HETATM    4  H           1     -20.739  -4.481  -5.930  0.00  0.00     0.163 HD
ENDROOT
BRANCH   1   5
HETATM    5  C           1     -21.301  -4.975  -7.938  0.00  0.00     0.191 C 
BRANCH   5   6
HETATM    6  C           1     -20.161  -4.431  -8.764  0.00  0.00     0.197 C 
HETATM    7  O           1     -19.994  -4.828  -9.938  0.00  0.00    -0.646 OA
HETATM    8  O           1     -19.384  -3.583  -8.274  0.00  0.00    -0.646 OA
ENDBRANCH   5   6
BRANCH   5   9
HETATM    9  C           1     -22.429  -3.953  -7.894  0.00  0.00     0.094 C 
BRANCH   9  10
HETATM   10  C           1     -23.233  -4.041  -9.154  0.00  0.00     0.028 A 
HETATM   11  C           1     -24.349  -3.287  -9.424  0.00  0.00     0.114 A 
HETATM   12  N           1     -24.757  -3.690 -10.666  0.00  0.00    -0.360 N 
HETATM   13  H           1     -25.586  -3.325 -11.197  0.00  0.00     0.166 HD
HETATM   14  C           1     -23.887  -4.652 -11.091  0.00  0.00     0.180 A 
HETATM   15  N           1     -22.954  -4.886 -10.197  0.00  0.00    -0.354 N 
ATOM     16  HN          1     -22.185  -5.554 -10.264  1.00  0.00     0.166 HD
ENDBRANCH   9  10
ENDBRANCH   5   9
ENDBRANCH   1   5
BRANCH   3  17
HETATM   17  C           1     -21.604  -7.404  -5.613  0.00  0.00     0.302 C 
BRANCH  17  18
HETATM   18  C           1     -21.810  -7.029  -4.151  0.00  0.00     0.153 C 
HETATM   19  C           1     -21.289  -8.151  -3.263  0.00  0.00     0.042 C 
BRANCH  18  20
HETATM   20  O           1     -21.112  -5.847  -3.867  0.00  0.00    -0.393 OA
HETATM   21  H           1     -21.573  -5.146  -4.297  0.00  0.00     0.210 HD
ENDBRANCH  18  20
ENDBRANCH  17  18
BRANCH  17  22
HETATM   22  N           1     -21.178  -8.839  -5.706  0.00  0.00    -0.064 N 
HETATM   23  H           1     -20.602  -8.977  -6.567  0.00  0.00     0.275 HD
HETATM   24  H           1     -22.023  -9.451  -5.750  0.00  0.00     0.275 HD
HETATM   25  H           1     -20.610  -9.088  -4.864  0.00  0.00     0.275 HD
ENDBRANCH  17  22
ENDBRANCH   3  17
TORSDOF 8
ENDMDL
MODEL 5
REMARK VINA RESULT:      -6.0      2.025      6.145
REMARK  8 active torsions:
REMARK  status: ('A' for Active; 'I' for Inactive)
REMARK    1  A    between atoms: N_5  and  C_11 
REMARK       I    between atoms: N_5  and  C_19 
REMARK    2  A    between atoms: C_6  and  C_11 
REMARK    3  A    between atoms: O_9  and  C_10 
REMARK    4  A    between atoms: C_10  and  C_22 
REMARK    5  A    between atoms: C_11  and  C_15 
REMARK    6  A    between atoms: C_12  and  C_15 
REMARK    7  A    between atoms: C_19  and  C_22 
REMARK    8  A    between atoms: C_22  and  N_23 
ROOT
HETATM    1  N           1     -23.107  -2.812 -10.807  0.00  0.00    -0.344 N 
HETATM    2  O           1     -25.094  -2.790 -11.826  0.00  0.00    -0.271 OA
HETATM    3  C           1     -23.894  -2.880 -11.925  0.00  0.00     0.251 C 
HETATM    4  H           1     -22.758  -1.917 -10.488  0.00  0.00     0.163 HD
ENDROOT
BRANCH   1   5
HETATM    5  C           1     -22.773  -4.021 -10.080  0.00  0.00     0.191 C 
BRANCH   5   6
HETATM    6  C           1     -23.871  -5.040 -10.267  0.00  0.00     0.197 C 
HETATM    7  O           1     -24.876  -5.018  -9.523  0.00  0.00    -0.646 OA
HETATM    8  O           1     -23.777  -5.903 -11.165  0.00  0.00    -0.646 OA
ENDBRANCH   5   6
BRANCH   5   9
HETATM    9  C           1     -22.628  -3.698  -8.599  0.00  0.00     0.094 C 
BRANCH   9  10
HETATM   10  C           1     -21.729  -4.708  -7.954  0.00  0.00     0.028 A 
HETATM   11  C           1     -20.511  -5.101  -8.453  0.00  0.00     0.114 A 
HETATM   12  N           1     -20.043  -6.025  -7.559  0.00  0.00    -0.360 N 
HETATM   13  H           1     -19.132  -6.542  -7.618  0.00  0.00     0.166 HD
HETATM   14  C           1     -20.979  -6.149  -6.571  0.00  0.00     0.180 A 
HETATM   15  N           1     -22.011  -5.365  -6.784  0.00  0.00    -0.354 N 
ATOM     16  HN          1     -22.844  -5.265  -6.203  1.00  0.00     0.166 HD
ENDBRANCH   9  10
ENDBRANCH   5   9
ENDBRANCH   1   5
BRANCH   3  17
HETATM   17  C           1     -23.261  -3.070 -13.282  0.00  0.00     0.302 C 
BRANCH  17  18
HETATM   18  C           1     -23.383  -1.780 -14.083  0.00  0.00     0.153 C 
HETATM   19  C           1     -22.775  -1.983 -15.465  0.00  0.00     0.042 C 
BRANCH  18  20
HETATM   20  O           1     -24.736  -1.435 -14.214  0.00  0.00    -0.393 OA
HETATM   21  H           1     -25.134  -2.093 -14.759  0.00  0.00     0.210 HD
ENDBRANCH  18  20
ENDBRANCH  17  18
BRANCH  17  22
HETATM   22  N           1     -23.962  -4.178 -14.011  0.00  0.00    -0.064 N 
HETATM   23  H           1     -23.412  -5.061 -13.914  0.00  0.00     0.275 HD
HETATM   24  H           1     -24.048  -3.930 -15.022  0.00  0.00     0.275 HD
HETATM   25  H           1     -24.914  -4.315 -13.603  0.00  0.00     0.275 HD
ENDBRANCH  17  22
ENDBRANCH   3  17
TORSDOF 8
ENDMDL
MODEL 6
REMARK VINA RESULT:      -5.8      3.647      5.464
REMARK  8 active torsions:
REMARK  status: ('A' for Active; 'I' for Inactive)
REMARK    1  A    between atoms: N_5  and  C_11 
REMARK       I    between atoms: N_5  and  C_19 
REMARK    2  A    between atoms: C_6  and  C_11 
REMARK    3  A    between atoms: O_9  and  C_10 
REMARK    4  A    between atoms: C_10  and  C_22 
REMARK    5  A    between atoms: C_11  and  C_15 
REMARK    6  A    between atoms: C_12  and  C_15 
REMARK    7  A    between atoms: C_19  and  C_22 
REMARK    8  A    between atoms: C_22  and  N_23 
ROOT
HETATM    1  N           1     -22.393  -6.353  -4.226  0.00  0.00    -0.344 N 
HETATM    2  O           1     -20.990  -5.619  -2.652  0.00  0.00    -0.271 OA
HETATM    3  C           1     -21.585  -6.550  -3.138  0.00  0.00     0.251 C 
HETATM    4  H           1     -23.371  -6.125  -4.096  0.00  0.00     0.163 HD
ENDROOT
BRANCH   1   5
HETATM    5  C           1     -21.848  -6.471  -5.565  0.00  0.00     0.191 C 
BRANCH   5   6
HETATM    6  C           1     -20.975  -7.700  -5.646  0.00  0.00     0.197 C 
HETATM    7  O           1     -19.731  -7.588  -5.577  0.00  0.00    -0.646 OA
HETATM    8  O           1     -21.495  -8.828  -5.780  0.00  0.00    -0.646 OA
ENDBRANCH   5   6
BRANCH   5   9
HETATM    9  C           1     -21.016  -5.236  -5.884  0.00  0.00     0.094 C 
BRANCH   9  10
HETATM   10  C           1     -21.412  -4.703  -7.227  0.00  0.00     0.028 A 
HETATM   11  C           1     -20.661  -4.829  -8.370  0.00  0.00     0.114 A 
HETATM   12  N           1     -21.391  -4.205  -9.345  0.00  0.00    -0.360 N 
HETATM   13  H           1     -21.123  -4.106 -10.355  0.00  0.00     0.166 HD
HETATM   14  C           1     -22.534  -3.737  -8.763  0.00  0.00     0.180 A 
HETATM   15  N           1     -22.575  -4.022  -7.482  0.00  0.00    -0.354 N 
ATOM     16  HN          1     -23.314  -3.788  -6.818  1.00  0.00     0.166 HD
ENDBRANCH   9  10
ENDBRANCH   5   9
ENDBRANCH   1   5
BRANCH   3  17
HETATM   17  C           1     -21.439  -7.932  -2.549  0.00  0.00     0.302 C 
BRANCH  17  18
HETATM   18  C           1     -22.151  -7.986  -1.203  0.00  0.00     0.153 C 
HETATM   19  C           1     -21.141  -8.309  -0.109  0.00  0.00     0.042 C 
BRANCH  18  20
HETATM   20  O           1     -22.746  -6.745  -0.937  0.00  0.00    -0.393 OA
HETATM   21  H           1     -23.611  -6.921  -0.606  0.00  0.00     0.210 HD
ENDBRANCH  18  20
ENDBRANCH  17  18
BRANCH  17  22
HETATM   22  N           1     -19.984  -8.242  -2.357  0.00  0.00    -0.064 N 
HETATM   23  H           1     -19.873  -9.252  -2.111  0.00  0.00     0.275 HD
HETATM   24  H           1     -19.600  -7.650  -1.586  0.00  0.00     0.275 HD
HETATM   25  H           1     -19.466  -8.041  -3.243  0.00  0.00     0.275 HD
ENDBRANCH  17  22
ENDBRANCH   3  17
TORSDOF 8
ENDMDL
MODEL 7
REMARK VINA RESULT:      -5.7      3.357      7.527
REMARK  8 active torsions:
REMARK  status: ('A' for Active; 'I' for Inactive)
REMARK    1  A    between atoms: N_5  and  C_11 
REMARK       I    between atoms: N_5  and  C_19 
REMARK    2  A    between atoms: C_6  and  C_11 
REMARK    3  A    between atoms: O_9  and  C_10 
REMARK    4  A    between atoms: C_10  and  C_22 
REMARK    5  A    between atoms: C_11  and  C_15 
REMARK    6  A    between atoms: C_12  and  C_15 
REMARK    7  A    between atoms: C_19  and  C_22 
REMARK    8  A    between atoms: C_22  and  N_23 
ROOT
HETATM    1  N           1     -20.261  -6.797  -6.775  0.00  0.00    -0.344 N 
HETATM    2  O           1     -19.248  -4.839  -7.130  0.00  0.00    -0.271 OA
HETATM    3  C           1     -20.282  -5.459  -7.065  0.00  0.00     0.251 C 
HETATM    4  H           1     -20.197  -7.476  -7.523  0.00  0.00     0.163 HD
ENDROOT
BRANCH   1   5
HETATM    5  C           1     -20.331  -7.242  -5.397  0.00  0.00     0.191 C 
BRANCH   5   6
HETATM    6  C           1     -19.756  -8.633  -5.287  0.00  0.00     0.197 C 
HETATM    7  O           1     -20.350  -9.598  -5.816  0.00  0.00    -0.646 OA
HETATM    8  O           1     -18.686  -8.820  -4.669  0.00  0.00    -0.646 OA
ENDBRANCH   5   6
BRANCH   5   9
HETATM    9  C           1     -21.785  -7.257  -4.942  0.00  0.00     0.094 C 
BRANCH   9  10
HETATM   10  C           1     -21.843  -7.114  -3.452  0.00  0.00     0.028 A 
HETATM   11  C           1     -21.436  -8.075  -2.559  0.00  0.00     0.114 A 
HETATM   12  N           1     -21.664  -7.531  -1.325  0.00  0.00    -0.360 N 
HETATM   13  H           1     -21.470  -7.987  -0.399  0.00  0.00     0.166 HD
HETATM   14  C           1     -22.189  -6.285  -1.517  0.00  0.00     0.180 A 
HETATM   15  N           1     -22.309  -6.005  -2.794  0.00  0.00    -0.354 N 
ATOM     16  HN          1     -22.672  -5.146  -3.209  1.00  0.00     0.166 HD
ENDBRANCH   9  10
ENDBRANCH   5   9
ENDBRANCH   1   5
BRANCH   3  17
HETATM   17  C           1     -21.599  -4.760  -7.303  0.00  0.00     0.302 C 
BRANCH  17  18
HETATM   18  C           1     -21.966  -4.860  -8.778  0.00  0.00     0.153 C 
HETATM   19  C           1     -23.181  -3.985  -9.056  0.00  0.00     0.042 C 
BRANCH  18  20
HETATM   20  O           1     -20.887  -4.423  -9.560  0.00  0.00    -0.393 OA
HETATM   21  H           1     -21.198  -4.366 -10.448  0.00  0.00     0.210 HD
ENDBRANCH  18  20
ENDBRANCH  17  18
BRANCH  17  22
HETATM   22  N           1     -21.475  -3.317  -6.915  0.00  0.00    -0.064 N 
HETATM   23  H           1     -20.478  -3.016  -7.003  0.00  0.00     0.275 HD
HETATM   24  H           1     -21.790  -3.194  -5.926  0.00  0.00     0.275 HD
HETATM   25  H           1     -22.072  -2.735  -7.546  0.00  0.00     0.275 HD
ENDBRANCH  17  22
ENDBRANCH   3  17
TORSDOF 8
ENDMDL
MODEL 8
REMARK VINA RESULT:      -5.7      2.657      6.621
REMARK  8 active torsions:
REMARK  status: ('A' for Active; 'I' for Inactive)
REMARK    1  A    between atoms: N_5  and  C_11 
REMARK       I    between atoms: N_5  and  C_19 
REMARK    2  A    between atoms: C_6  and  C_11 
REMARK    3  A    between atoms: O_9  and  C_10 
REMARK    4  A    between atoms: C_10  and  C_22 
REMARK    5  A    between atoms: C_11  and  C_15 
REMARK    6  A    between atoms: C_12  and  C_15 
REMARK    7  A    between atoms: C_19  and  C_22 
REMARK    8  A    between atoms: C_22  and  N_23 
ROOT
HETATM    1  N           1     -23.876  -2.667 -11.729  0.00  0.00    -0.344 N 
HETATM    2  O           1     -24.309  -4.019 -13.452  0.00  0.00    -0.271 OA
HETATM    3  C           1     -23.750  -3.031 -13.042  0.00  0.00     0.251 C 
HETATM    4  H           1     -24.627  -2.050 -11.444  0.00  0.00     0.163 HD
ENDROOT
BRANCH   1   5
HETATM    5  C           1     -22.934  -3.164 -10.745  0.00  0.00     0.191 C 
BRANCH   5   6
HETATM    6  C           1     -21.604  -3.425 -11.409  0.00  0.00     0.197 C 
HETATM    7  O           1     -21.372  -4.541 -11.925  0.00  0.00    -0.646 OA
HETATM    8  O           1     -20.736  -2.527 -11.444  0.00  0.00    -0.646 OA
ENDBRANCH   5   6
BRANCH   5   9
HETATM    9  C           1     -23.465  -4.460 -10.145  0.00  0.00     0.094 C 
BRANCH   9  10
HETATM   10  C           1     -22.911  -4.634  -8.765  0.00  0.00     0.028 A 
HETATM   11  C           1     -21.664  -5.137  -8.481  0.00  0.00     0.114 A 
HETATM   12  N           1     -21.577  -5.119  -7.116  0.00  0.00    -0.360 N 
HETATM   13  H           1     -20.757  -5.434  -6.541  0.00  0.00     0.166 HD
HETATM   14  C           1     -22.752  -4.613  -6.637  0.00  0.00     0.180 A 
HETATM   15  N           1     -23.579  -4.311  -7.612  0.00  0.00    -0.354 N 
ATOM     16  HN          1     -24.517  -3.920  -7.529  1.00  0.00     0.166 HD
ENDBRANCH   9  10
ENDBRANCH   5   9
ENDBRANCH   1   5
BRANCH   3  17
HETATM   17  C           1     -22.911  -2.195 -13.979  0.00  0.00     0.302 C 
BRANCH  17  18
HETATM   18  C           1     -23.693  -0.955 -14.390  0.00  0.00     0.153 C 
HETATM   19  C           1     -23.420  -0.647 -15.856  0.00  0.00     0.042 C 
BRANCH  18  20
HETATM   20  O           1     -25.064  -1.184 -14.209  0.00  0.00    -0.393 OA
HETATM   21  H           1     -25.150  -1.761 -13.468  0.00  0.00     0.210 HD
ENDBRANCH  18  20
ENDBRANCH  17  18
BRANCH  17  22
HETATM   22  N           1     -22.572  -3.000 -15.199  0.00  0.00    -0.064 N 
HETATM   23  H           1     -22.400  -3.993 -14.925  0.00  0.00     0.275 HD
HETATM   24  H           1     -21.714  -2.607 -15.647  0.00  0.00     0.275 HD
HETATM   25  H           1     -23.369  -2.958 -15.874  0.00  0.00     0.275 HD
ENDBRANCH  17  22
ENDBRANCH   3  17
TORSDOF 8
ENDMDL
MODEL 9
REMARK VINA RESULT:      -5.6      2.280      6.279
REMARK  8 active torsions:
REMARK  status: ('A' for Active; 'I' for Inactive)
REMARK    1  A    between atoms: N_5  and  C_11 
REMARK       I    between atoms: N_5  and  C_19 
REMARK    2  A    between atoms: C_6  and  C_11 
REMARK    3  A    between atoms: O_9  and  C_10 
REMARK    4  A    between atoms: C_10  and  C_22 
REMARK    5  A    between atoms: C_11  and  C_15 
REMARK    6  A    between atoms: C_12  and  C_15 
REMARK    7  A    between atoms: C_19  and  C_22 
REMARK    8  A    between atoms: C_22  and  N_23 
ROOT
HETATM    1  N           1     -24.639  -3.161 -12.123  0.00  0.00    -0.344 N 
HETATM    2  O           1     -24.580  -4.299 -14.043  0.00  0.00    -0.271 OA
HETATM    3  C           1     -24.143  -3.390 -13.378  0.00  0.00     0.251 C 
HETATM    4  H           1     -25.427  -2.538 -11.996  0.00  0.00     0.163 HD
ENDROOT
BRANCH   1   5
HETATM    5  C           1     -24.035  -3.810 -10.975  0.00  0.00     0.191 C 
BRANCH   5   6
HETATM    6  C           1     -25.016  -3.818  -9.828  0.00  0.00     0.197 C 
HETATM    7  O           1     -25.415  -2.737  -9.340  0.00  0.00    -0.646 OA
HETATM    8  O           1     -25.431  -4.903  -9.367  0.00  0.00    -0.646 OA
ENDBRANCH   5   6
BRANCH   5   9
HETATM    9  C           1     -22.781  -3.050 -10.565  0.00  0.00     0.094 C 
BRANCH   9  10
HETATM   10  C           1     -22.176  -3.700  -9.359  0.00  0.00     0.028 A 
HETATM   11  C           1     -21.372  -4.814  -9.393  0.00  0.00     0.114 A 
HETATM   12  N           1     -21.050  -5.058  -8.086  0.00  0.00    -0.360 N 
HETATM   13  H           1     -20.444  -5.838  -7.730  0.00  0.00     0.166 HD
HETATM   14  C           1     -21.659  -4.099  -7.328  0.00  0.00     0.180 A 
HETATM   15  N           1     -22.348  -3.264  -8.071  0.00  0.00    -0.354 N 
ATOM     16  HN          1     -22.894  -2.461  -7.757  1.00  0.00     0.166 HD
ENDBRANCH   9  10
ENDBRANCH   5   9
ENDBRANCH   1   5
BRANCH   3  17
HETATM   17  C           1     -23.051  -2.507 -13.930  0.00  0.00     0.302 C 
BRANCH  17  18
HETATM   18  C           1     -23.543  -1.825 -15.200  0.00  0.00     0.153 C 
HETATM   19  C           1     -24.357  -0.592 -14.829  0.00  0.00     0.042 C 
BRANCH  18  20
HETATM   20  O           1     -22.444  -1.442 -15.982  0.00  0.00    -0.393 OA
HETATM   21  H           1     -22.515  -0.512 -16.116  0.00  0.00     0.210 HD
ENDBRANCH  18  20
ENDBRANCH  17  18
BRANCH  17  22
HETATM   22  N           1     -21.845  -3.342 -14.246  0.00  0.00    -0.064 N 
HETATM   23  H           1     -21.081  -3.122 -13.568  0.00  0.00     0.275 HD
HETATM   24  H           1     -21.521  -3.132 -15.217  0.00  0.00     0.275 HD
HETATM   25  H           1     -22.094  -4.354 -14.173  0.00  0.00     0.275 HD
ENDBRANCH  17  22
ENDBRANCH   3  17
TORSDOF 8
ENDMDL
