MODEL 1
REMARK VINA RESULT:      -6.1      0.000      0.000
REMARK  9 active torsions:
REMARK  status: ('A' for Active; 'I' for Inactive)
REMARK    1  A    between atoms: N_1  and  C_21 
REMARK       I    between atoms: N_1  and  C_10 
REMARK    2  A    between atoms: N_4  and  C_9 
REMARK    3  A    between atoms: Se_6  and  C_7 
REMARK    4  A    between atoms: C_7  and  C_8 
REMARK    5  A    between atoms: C_8  and  C_9 
REMARK    6  A    between atoms: C_9  and  C_10 
REMARK    7  A    between atoms: C_11  and  C_21 
REMARK    8  A    between atoms: C_21  and  C_22 
REMARK    9  A    between atoms: C_22  and  C_23 
ROOT
HETATM    1  N           1     -20.908  -7.707  -5.932  0.00  0.00    -0.344 N 
HETATM    2  O           1     -19.528  -6.518  -7.224  0.00  0.00    -0.271 OA
HETATM    3  C           1     -20.438  -6.522  -6.431  0.00  0.00     0.249 C 
HETATM    4  H           1     -21.658  -8.193  -6.408  0.00  0.00     0.163 HD
ENDROOT
BRANCH   1   5
HETATM    5  C           1     -20.333  -8.266  -4.724  0.00  0.00     0.189 C 
BRANCH   5   6
HETATM    6  C           1     -19.171  -9.155  -5.087  0.00  0.00     0.197 C 
HETATM    7  O           1     -19.221  -9.862  -6.117  0.00  0.00    -0.646 OA
HETATM    8  O           1     -18.156  -9.186  -4.357  0.00  0.00    -0.646 OA
ENDBRANCH   5   6
BRANCH   5   9
HETATM    9  C           1     -21.390  -9.083  -3.991  0.00  0.00     0.074 C 
BRANCH   9  10
HETATM   10  C           1     -21.731  -8.411  -2.698  0.00  0.00    -0.056 A 
HETATM   11  C           1     -21.832  -7.021  -2.640  0.00  0.00     0.007 A 
HETATM   12  C           1     -22.151  -6.394  -1.435  0.00  0.00     0.001 A 
HETATM   13  C           1     -22.367  -7.158  -0.288  0.00  0.00     0.000 A 
HETATM   14  C           1     -22.265  -8.548  -0.346  0.00  0.00     0.001 A 
HETATM   15  C           1     -21.947  -9.174  -1.551  0.00  0.00     0.007 A 
ENDBRANCH   9  10
ENDBRANCH   5   9
ENDBRANCH   1   5
BRANCH   3  16
HETATM   16  C           1     -21.056  -5.219  -5.986  0.00  0.00     0.274 C 
BRANCH  16  17
HETATM   17  N           1     -20.188  -4.584  -4.941  0.00  0.00    -0.067 N 
HETATM   18  H           1     -19.183  -4.733  -5.184  0.00  0.00     0.275 HD
HETATM   19  H           1     -20.388  -3.559  -4.898  0.00  0.00     0.275 HD
HETATM   20  H           1     -20.389  -5.017  -4.011  0.00  0.00     0.275 HD
ENDBRANCH  16  17
BRANCH  16  21
HETATM   21  C           1     -21.179  -4.280  -7.180  0.00  0.00     0.042 C 
BRANCH  21  22
HETATM   22  C           1     -22.590  -4.363  -7.748  0.00  0.00     0.003 C 
BRANCH  22  23
HETATM   23 Se           1     -22.522  -4.161  -9.686  0.00  0.00     0.000 Se
HETATM   24  C           1     -20.582  -4.323  -9.799  0.00  0.00     0.000 C 
ENDBRANCH  22  23
ENDBRANCH  21  22
ENDBRANCH  16  21
ENDBRANCH   3  16
TORSDOF 9
ENDMDL
MODEL 2
REMARK VINA RESULT:      -6.1      2.882      7.148
REMARK  9 active torsions:
REMARK  status: ('A' for Active; 'I' for Inactive)
REMARK    1  A    between atoms: N_1  and  C_21 
REMARK       I    between atoms: N_1  and  C_10 
REMARK    2  A    between atoms: N_4  and  C_9 
REMARK    3  A    between atoms: Se_6  and  C_7 
REMARK    4  A    between atoms: C_7  and  C_8 
REMARK    5  A    between atoms: C_8  and  C_9 
REMARK    6  A    between atoms: C_9  and  C_10 
REMARK    7  A    between atoms: C_11  and  C_21 
REMARK    8  A    between atoms: C_21  and  C_22 
REMARK    9  A    between atoms: C_22  and  C_23 
ROOT
HETATM    1  N           1     -22.217  -5.597  -5.659  0.00  0.00    -0.344 N 
HETATM    2  O           1     -20.846  -5.682  -3.899  0.00  0.00    -0.271 OA
HETATM    3  C           1     -21.565  -6.276  -4.665  0.00  0.00     0.249 C 
HETATM    4  H           1     -23.139  -5.214  -5.490  0.00  0.00     0.163 HD
ENDROOT
BRANCH   1   5
HETATM    5  C           1     -21.588  -5.424  -6.954  0.00  0.00     0.189 C 
BRANCH   5   6
HETATM    6  C           1     -20.090  -5.504  -6.799  0.00  0.00     0.197 C 
HETATM    7  O           1     -19.446  -4.499  -6.430  0.00  0.00    -0.646 OA
HETATM    8  O           1     -19.494  -6.576  -7.039  0.00  0.00    -0.646 OA
ENDBRANCH   5   6
BRANCH   5   9
HETATM    9  C           1     -21.969  -4.065  -7.526  0.00  0.00     0.074 C 
BRANCH   9  10
HETATM   10  C           1     -22.144  -4.178  -9.009  0.00  0.00    -0.056 A 
HETATM   11  C           1     -21.045  -4.024  -9.853  0.00  0.00     0.007 A 
HETATM   12  C           1     -21.206  -4.130 -11.235  0.00  0.00     0.001 A 
HETATM   13  C           1     -22.468  -4.389 -11.771  0.00  0.00     0.000 A 
HETATM   14  C           1     -23.567  -4.543 -10.926  0.00  0.00     0.001 A 
HETATM   15  C           1     -23.405  -4.436  -9.545  0.00  0.00     0.007 A 
ENDBRANCH   9  10
ENDBRANCH   5   9
ENDBRANCH   1   5
BRANCH   3  16
HETATM   16  C           1     -21.745  -7.768  -4.528  0.00  0.00     0.274 C 
BRANCH  16  17
HETATM   17  N           1     -21.181  -8.453  -5.738  0.00  0.00    -0.067 N 
HETATM   18  H           1     -20.401  -7.880  -6.132  0.00  0.00     0.275 HD
HETATM   19  H           1     -20.819  -9.395  -5.467  0.00  0.00     0.275 HD
HETATM   20  H           1     -21.931  -8.562  -6.458  0.00  0.00     0.275 HD
ENDBRANCH  16  17
BRANCH  16  21
HETATM   21  C           1     -21.015  -8.256  -3.284  0.00  0.00     0.042 C 
BRANCH  21  22
HETATM   22  C           1     -21.834  -9.350  -2.611  0.00  0.00     0.003 C 
BRANCH  22  23
HETATM   23 Se           1     -21.902  -9.022  -0.691  0.00  0.00     0.000 Se
HETATM   24  C           1     -22.301  -7.121  -0.865  0.00  0.00     0.000 C 
ENDBRANCH  22  23
ENDBRANCH  21  22
ENDBRANCH  16  21
ENDBRANCH   3  16
TORSDOF 9
ENDMDL
MODEL 3
REMARK VINA RESULT:      -5.9      3.230      6.766
REMARK  9 active torsions:
REMARK  status: ('A' for Active; 'I' for Inactive)
REMARK    1  A    between atoms: N_1  and  C_21 
REMARK       I    between atoms: N_1  and  C_10 
REMARK    2  A    between atoms: N_4  and  C_9 
REMARK    3  A    between atoms: Se_6  and  C_7 
REMARK    4  A    between atoms: C_7  and  C_8 
REMARK    5  A    between atoms: C_8  and  C_9 
REMARK    6  A    between atoms: C_9  and  C_10 
REMARK    7  A    between atoms: C_11  and  C_21 
REMARK    8  A    between atoms: C_21  and  C_22 
REMARK    9  A    between atoms: C_22  and  C_23 
ROOT
HETATM    1  N           1     -22.391  -6.338  -4.174  0.00  0.00    -0.344 N 
HETATM    2  O           1     -21.238  -5.264  -2.591  0.00  0.00    -0.271 OA
HETATM    3  C           1     -21.739  -6.294  -2.970  0.00  0.00     0.249 C 
HETATM    4  H           1     -23.382  -6.136  -4.219  0.00  0.00     0.163 HD
ENDROOT
BRANCH   1   5
HETATM    5  C           1     -21.663  -6.672  -5.382  0.00  0.00     0.189 C 
BRANCH   5   6
HETATM    6  C           1     -20.908  -7.961  -5.174  0.00  0.00     0.197 C 
HETATM    7  O           1     -21.521  -9.050  -5.167  0.00  0.00    -0.646 OA
HETATM    8  O           1     -19.669  -7.939  -5.009  0.00  0.00    -0.646 OA
ENDBRANCH   5   6
BRANCH   5   9
HETATM    9  C           1     -20.681  -5.553  -5.708  0.00  0.00     0.074 C 
BRANCH   9  10
HETATM   10  C           1     -20.980  -5.007  -7.069  0.00  0.00    -0.056 A 
HETATM   11  C           1     -19.999  -5.033  -8.061  0.00  0.00     0.007 A 
HETATM   12  C           1     -20.277  -4.525  -9.330  0.00  0.00     0.001 A 
HETATM   13  C           1     -21.535  -3.989  -9.607  0.00  0.00     0.000 A 
HETATM   14  C           1     -22.515  -3.964  -8.615  0.00  0.00     0.001 A 
HETATM   15  C           1     -22.237  -4.472  -7.346  0.00  0.00     0.007 A 
ENDBRANCH   9  10
ENDBRANCH   5   9
ENDBRANCH   1   5
BRANCH   3  16
HETATM   16  C           1     -21.646  -7.537  -2.119  0.00  0.00     0.274 C 
BRANCH  16  17
HETATM   17  N           1     -20.204  -7.848  -1.845  0.00  0.00    -0.067 N 
HETATM   18  H           1     -19.873  -7.283  -1.031  0.00  0.00     0.275 HD
HETATM   19  H           1     -20.103  -8.865  -1.626  0.00  0.00     0.275 HD
HETATM   20  H           1     -19.631  -7.615  -2.687  0.00  0.00     0.275 HD
ENDBRANCH  16  17
BRANCH  16  21
HETATM   21  C           1     -22.373  -7.306  -0.800  0.00  0.00     0.042 C 
BRANCH  21  22
HETATM   22  C           1     -21.822  -8.254   0.256  0.00  0.00     0.003 C 
BRANCH  22  23
HETATM   23 Se           1     -22.476 -10.058  -0.087  0.00  0.00     0.000 Se
HETATM   24  C           1     -20.913 -10.945   0.671  0.00  0.00     0.000 C 
ENDBRANCH  22  23
ENDBRANCH  21  22
ENDBRANCH  16  21
ENDBRANCH   3  16
TORSDOF 9
ENDMDL
MODEL 4
REMARK VINA RESULT:      -5.9      3.682      5.551
REMARK  9 active torsions:
REMARK  status: ('A' for Active; 'I' for Inactive)
REMARK    1  A    between atoms: N_1  and  C_21 
REMARK       I    between atoms: N_1  and  C_10 
REMARK    2  A    between atoms: N_4  and  C_9 
REMARK    3  A    between atoms: Se_6  and  C_7 
REMARK    4  A    between atoms: C_7  and  C_8 
REMARK    5  A    between atoms: C_8  and  C_9 
REMARK    6  A    between atoms: C_9  and  C_10 
REMARK    7  A    between atoms: C_11  and  C_21 
REMARK    8  A    between atoms: C_21  and  C_22 
REMARK    9  A    between atoms: C_22  and  C_23 
ROOT
HETATM    1  N           1     -19.576  -8.314  -4.398  0.00  0.00    -0.344 N 
HETATM    2  O           1     -19.072 -10.469  -4.697  0.00  0.00    -0.271 OA
HETATM    3  C           1     -18.974  -9.481  -4.010  0.00  0.00     0.249 C 
HETATM    4  H           1     -19.071  -7.653  -4.975  0.00  0.00     0.163 HD
ENDROOT
BRANCH   1   5
HETATM    5  C           1     -20.935  -8.024  -3.984  0.00  0.00     0.189 C 
BRANCH   5   6
HETATM    6  C           1     -21.621  -7.208  -5.050  0.00  0.00     0.197 C 
HETATM    7  O           1     -21.288  -7.337  -6.247  0.00  0.00    -0.646 OA
HETATM    8  O           1     -22.524  -6.403  -4.735  0.00  0.00    -0.646 OA
ENDBRANCH   5   6
BRANCH   5   9
HETATM    9  C           1     -20.910  -7.239  -2.678  0.00  0.00     0.074 C 
BRANCH   9  10
HETATM   10  C           1     -21.732  -7.954  -1.651  0.00  0.00    -0.056 A 
HETATM   11  C           1     -22.327  -7.237  -0.613  0.00  0.00     0.007 A 
HETATM   12  C           1     -23.093  -7.901   0.345  0.00  0.00     0.001 A 
HETATM   13  C           1     -23.262  -9.284   0.265  0.00  0.00     0.000 A 
HETATM   14  C           1     -22.667 -10.000  -0.773  0.00  0.00     0.001 A 
HETATM   15  C           1     -21.901  -9.336  -1.730  0.00  0.00     0.007 A 
ENDBRANCH   9  10
ENDBRANCH   5   9
ENDBRANCH   1   5
BRANCH   3  16
HETATM   16  C           1     -18.190  -9.533  -2.722  0.00  0.00     0.274 C 
BRANCH  16  17
HETATM   17  N           1     -18.497 -10.812  -2.000  0.00  0.00    -0.067 N 
HETATM   18  H           1     -17.611 -11.230  -1.637  0.00  0.00     0.275 HD
HETATM   19  H           1     -19.142 -10.615  -1.202  0.00  0.00     0.275 HD
HETATM   20  H           1     -18.954 -11.483  -2.659  0.00  0.00     0.275 HD
ENDBRANCH  16  17
BRANCH  16  21
HETATM   21  C           1     -16.700  -9.472  -3.031  0.00  0.00     0.042 C 
BRANCH  21  22
HETATM   22  C           1     -15.988 -10.623  -2.332  0.00  0.00     0.003 C 
BRANCH  22  23
HETATM   23 Se           1     -15.218 -11.816  -3.666  0.00  0.00     0.000 Se
HETATM   24  C           1     -15.499 -10.593  -5.159  0.00  0.00     0.000 C 
ENDBRANCH  22  23
ENDBRANCH  21  22
ENDBRANCH  16  21
ENDBRANCH   3  16
TORSDOF 9
ENDMDL
MODEL 5
REMARK VINA RESULT:      -5.8      3.611      5.528
REMARK  9 active torsions:
REMARK  status: ('A' for Active; 'I' for Inactive)
REMARK    1  A    between atoms: N_1  and  C_21 
REMARK       I    between atoms: N_1  and  C_10 
REMARK    2  A    between atoms: N_4  and  C_9 
REMARK    3  A    between atoms: Se_6  and  C_7 
REMARK    4  A    between atoms: C_7  and  C_8 
REMARK    5  A    between atoms: C_8  and  C_9 
REMARK    6  A    between atoms: C_9  and  C_10 
REMARK    7  A    between atoms: C_11  and  C_21 
REMARK    8  A    between atoms: C_21  and  C_22 
REMARK    9  A    between atoms: C_22  and  C_23 
ROOT
HETATM    1  N           1     -20.003  -7.833  -3.743  0.00  0.00    -0.344 N 
HETATM    2  O           1     -19.935  -7.802  -5.975  0.00  0.00    -0.271 OA
HETATM    3  C           1     -19.768  -8.426  -4.956  0.00  0.00     0.249 C 
HETATM    4  H           1     -19.257  -7.343  -3.267  0.00  0.00     0.163 HD
ENDROOT
BRANCH   1   5
HETATM    5  C           1     -21.321  -7.907  -3.143  0.00  0.00     0.189 C 
BRANCH   5   6
HETATM    6  C           1     -21.977  -6.550  -3.205  0.00  0.00     0.197 C 
HETATM    7  O           1     -22.313  -5.969  -2.151  0.00  0.00    -0.646 OA
HETATM    8  O           1     -22.185  -6.007  -4.312  0.00  0.00    -0.646 OA
ENDBRANCH   5   6
BRANCH   5   9
HETATM    9  C           1     -21.192  -8.344  -1.690  0.00  0.00     0.074 C 
BRANCH   9  10
HETATM   10  C           1     -22.171  -9.441  -1.410  0.00  0.00    -0.056 A 
HETATM   11  C           1     -22.928  -9.417  -0.238  0.00  0.00     0.007 A 
HETATM   12  C           1     -23.841 -10.438   0.024  0.00  0.00     0.001 A 
HETATM   13  C           1     -23.997 -11.484  -0.886  0.00  0.00     0.000 A 
HETATM   14  C           1     -23.240 -11.508  -2.058  0.00  0.00     0.001 A 
HETATM   15  C           1     -22.327 -10.487  -2.319  0.00  0.00     0.007 A 
ENDBRANCH   9  10
ENDBRANCH   5   9
ENDBRANCH   1   5
BRANCH   3  16
HETATM   16  C           1     -19.300  -9.859  -5.015  0.00  0.00     0.274 C 
BRANCH  16  17
HETATM   17  N           1     -20.202 -10.642  -5.923  0.00  0.00    -0.067 N 
HETATM   18  H           1     -20.599 -10.008  -6.653  0.00  0.00     0.275 HD
HETATM   19  H           1     -19.655 -11.404  -6.384  0.00  0.00     0.275 HD
HETATM   20  H           1     -20.980 -11.061  -5.365  0.00  0.00     0.275 HD
ENDBRANCH  16  17
BRANCH  16  21
HETATM   21  C           1     -17.875  -9.908  -5.553  0.00  0.00     0.042 C 
BRANCH  21  22
HETATM   22  C           1     -16.994 -10.687  -4.585  0.00  0.00     0.003 C 
BRANCH  22  23
HETATM   23 Se           1     -16.702  -9.628  -2.976  0.00  0.00     0.000 Se
HETATM   24  C           1     -15.985 -11.112  -1.932  0.00  0.00     0.000 C 
ENDBRANCH  22  23
ENDBRANCH  21  22
ENDBRANCH  16  21
ENDBRANCH   3  16
TORSDOF 9
ENDMDL
MODEL 6
REMARK VINA RESULT:      -5.8      3.536      6.173
REMARK  9 active torsions:
REMARK  status: ('A' for Active; 'I' for Inactive)
REMARK    1  A    between atoms: N_1  and  C_21 
REMARK       I    between atoms: N_1  and  C_10 
REMARK    2  A    between atoms: N_4  and  C_9 
REMARK    3  A    between atoms: Se_6  and  C_7 
REMARK    4  A    between atoms: C_7  and  C_8 
REMARK    5  A    between atoms: C_8  and  C_9 
REMARK    6  A    between atoms: C_9  and  C_10 
REMARK    7  A    between atoms: C_11  and  C_21 
REMARK    8  A    between atoms: C_21  and  C_22 
REMARK    9  A    between atoms: C_22  and  C_23 
ROOT
HETATM    1  N           1     -21.679  -7.678  -3.688  0.00  0.00    -0.344 N 
HETATM    2  O           1     -22.184  -5.908  -2.424  0.00  0.00    -0.271 OA
HETATM    3  C           1     -21.798  -7.050  -2.477  0.00  0.00     0.249 C 
HETATM    4  H           1     -22.462  -8.192  -4.071  0.00  0.00     0.163 HD
ENDROOT
BRANCH   1   5
HETATM    5  C           1     -20.431  -7.605  -4.424  0.00  0.00     0.189 C 
BRANCH   5   6
HETATM    6  C           1     -20.571  -6.613  -5.551  0.00  0.00     0.197 C 
HETATM    7  O           1     -20.461  -5.389  -5.324  0.00  0.00    -0.646 OA
HETATM    8  O           1     -20.795  -7.016  -6.713  0.00  0.00    -0.646 OA
ENDBRANCH   5   6
BRANCH   5   9
HETATM    9  C           1     -20.097  -8.978  -4.992  0.00  0.00     0.074 C 
BRANCH   9  10
HETATM   10  C           1     -18.674  -9.317  -4.675  0.00  0.00    -0.056 A 
HETATM   11  C           1     -18.231  -9.298  -3.352  0.00  0.00     0.007 A 
HETATM   12  C           1     -16.905  -9.614  -3.055  0.00  0.00     0.001 A 
HETATM   13  C           1     -16.022  -9.947  -4.083  0.00  0.00     0.000 A 
HETATM   14  C           1     -16.465  -9.966  -5.405  0.00  0.00     0.001 A 
HETATM   15  C           1     -17.790  -9.649  -5.701  0.00  0.00     0.007 A 
ENDBRANCH   9  10
ENDBRANCH   5   9
ENDBRANCH   1   5
BRANCH   3  16
HETATM   16  C           1     -21.445  -7.788  -1.208  0.00  0.00     0.274 C 
BRANCH  16  17
HETATM   17  N           1     -22.355  -7.343  -0.101  0.00  0.00    -0.067 N 
HETATM   18  H           1     -23.024  -6.628  -0.466  0.00  0.00     0.275 HD
HETATM   19  H           1     -22.887  -8.165   0.264  0.00  0.00     0.275 HD
HETATM   20  H           1     -21.786  -6.925   0.670  0.00  0.00     0.275 HD
ENDBRANCH  16  17
BRANCH  16  21
HETATM   21  C           1     -21.612  -9.286  -1.428  0.00  0.00     0.042 C 
BRANCH  21  22
HETATM   22  C           1     -22.650  -9.830  -0.454  0.00  0.00     0.003 C 
BRANCH  22  23
HETATM   23 Se           1     -23.652 -11.266  -1.309  0.00  0.00     0.000 Se
HETATM   24  C           1     -22.725 -11.117  -3.018  0.00  0.00     0.000 C 
ENDBRANCH  22  23
ENDBRANCH  21  22
ENDBRANCH  16  21
ENDBRANCH   3  16
TORSDOF 9
ENDMDL
MODEL 7
REMARK VINA RESULT:      -5.8      4.028      5.945
REMARK  9 active torsions:
REMARK  status: ('A' for Active; 'I' for Inactive)
REMARK    1  A    between atoms: N_1  and  C_21 
REMARK       I    between atoms: N_1  and  C_10 
REMARK    2  A    between atoms: N_4  and  C_9 
REMARK    3  A    between atoms: Se_6  and  C_7 
REMARK    4  A    between atoms: C_7  and  C_8 
REMARK    5  A    between atoms: C_8  and  C_9 
REMARK    6  A    between atoms: C_9  and  C_10 
REMARK    7  A    between atoms: C_11  and  C_21 
REMARK    8  A    between atoms: C_21  and  C_22 
REMARK    9  A    between atoms: C_22  and  C_23 
ROOT
HETATM    1  N           1     -20.572  -8.032  -2.789  0.00  0.00    -0.344 N 
HETATM    2  O           1     -21.179  -8.042  -4.938  0.00  0.00    -0.271 OA
HETATM    3  C           1     -20.668  -8.631  -4.016  0.00  0.00     0.249 C 
HETATM    4  H           1     -19.755  -7.481  -2.558  0.00  0.00     0.163 HD
ENDROOT
BRANCH   1   5
HETATM    5  C           1     -21.640  -8.186  -1.820  0.00  0.00     0.189 C 
BRANCH   5   6
HETATM    6  C           1     -22.236  -6.835  -1.511  0.00  0.00     0.197 C 
HETATM    7  O           1     -22.673  -6.593  -0.365  0.00  0.00    -0.646 OA
HETATM    8  O           1     -22.292  -5.959  -2.401  0.00  0.00    -0.646 OA
ENDBRANCH   5   6
BRANCH   5   9
HETATM    9  C           1     -21.081  -8.800  -0.543  0.00  0.00     0.074 C 
BRANCH   9  10
HETATM   10  C           1     -21.861 -10.030  -0.198  0.00  0.00    -0.056 A 
HETATM   11  C           1     -21.218 -11.121   0.389  0.00  0.00     0.007 A 
HETATM   12  C           1     -21.944 -12.267   0.712  0.00  0.00     0.001 A 
HETATM   13  C           1     -23.313 -12.324   0.446  0.00  0.00     0.000 A 
HETATM   14  C           1     -23.955 -11.233  -0.141  0.00  0.00     0.001 A 
HETATM   15  C           1     -23.228 -10.087  -0.463  0.00  0.00     0.007 A 
ENDBRANCH   9  10
ENDBRANCH   5   9
ENDBRANCH   1   5
BRANCH   3  16
HETATM   16  C           1     -20.136 -10.029  -4.217  0.00  0.00     0.274 C 
BRANCH  16  17
HETATM   17  N           1     -19.788 -10.230  -5.662  0.00  0.00    -0.067 N 
HETATM   18  H           1     -18.932  -9.679  -5.895  0.00  0.00     0.275 HD
HETATM   19  H           1     -19.609 -11.244  -5.839  0.00  0.00     0.275 HD
HETATM   20  H           1     -20.583  -9.907  -6.260  0.00  0.00     0.275 HD
ENDBRANCH  16  17
BRANCH  16  21
HETATM   21  C           1     -18.889 -10.225  -3.364  0.00  0.00     0.042 C 
BRANCH  21  22
HETATM   22  C           1     -17.667  -9.742  -4.134  0.00  0.00     0.003 C 
BRANCH  22  23
HETATM   23 Se           1     -16.129  -9.677  -2.938  0.00  0.00     0.000 Se
HETATM   24  C           1     -16.731 -11.157  -1.819  0.00  0.00     0.000 C 
ENDBRANCH  22  23
ENDBRANCH  21  22
ENDBRANCH  16  21
ENDBRANCH   3  16
TORSDOF 9
ENDMDL
MODEL 8
REMARK VINA RESULT:      -5.7      3.646      4.913
REMARK  9 active torsions:
REMARK  status: ('A' for Active; 'I' for Inactive)
REMARK    1  A    between atoms: N_1  and  C_21 
REMARK       I    between atoms: N_1  and  C_10 
REMARK    2  A    between atoms: N_4  and  C_9 
REMARK    3  A    between atoms: Se_6  and  C_7 
REMARK    4  A    between atoms: C_7  and  C_8 
REMARK    5  A    between atoms: C_8  and  C_9 
REMARK    6  A    between atoms: C_9  and  C_10 
REMARK    7  A    between atoms: C_11  and  C_21 
REMARK    8  A    between atoms: C_21  and  C_22 
REMARK    9  A    between atoms: C_22  and  C_23 
ROOT
HETATM    1  N           1     -21.026  -7.612  -1.636  0.00  0.00    -0.344 N 
HETATM    2  O           1     -22.135  -5.941  -2.620  0.00  0.00    -0.271 OA
HETATM    3  C           1     -21.520  -6.973  -2.742  0.00  0.00     0.249 C 
HETATM    4  H           1     -20.097  -7.394  -1.299  0.00  0.00     0.163 HD
ENDROOT
BRANCH   1   5
HETATM    5  C           1     -21.834  -8.599  -0.947  0.00  0.00     0.189 C 
BRANCH   5   6
HETATM    6  C           1     -22.367  -8.006   0.333  0.00  0.00     0.197 C 
HETATM    7  O           1     -21.656  -7.995   1.361  0.00  0.00    -0.646 OA
HETATM    8  O           1     -23.521  -7.525   0.365  0.00  0.00    -0.646 OA
ENDBRANCH   5   6
BRANCH   5   9
HETATM    9  C           1     -20.979  -9.818  -0.626  0.00  0.00     0.074 C 
BRANCH   9  10
HETATM   10  C           1     -21.866 -10.972  -0.277  0.00  0.00    -0.056 A 
HETATM   11  C           1     -21.490 -11.861   0.730  0.00  0.00     0.007 A 
HETATM   12  C           1     -22.317 -12.936   1.056  0.00  0.00     0.001 A 
HETATM   13  C           1     -23.519 -13.124   0.373  0.00  0.00     0.000 A 
HETATM   14  C           1     -23.893 -12.235  -0.635  0.00  0.00     0.001 A 
HETATM   15  C           1     -23.067 -11.161  -0.960  0.00  0.00     0.007 A 
ENDBRANCH   9  10
ENDBRANCH   5   9
ENDBRANCH   1   5
BRANCH   3  16
HETATM   16  C           1     -21.295  -7.560  -4.114  0.00  0.00     0.274 C 
BRANCH  16  17
HETATM   17  N           1     -21.770  -8.983  -4.133  0.00  0.00    -0.067 N 
HETATM   18  H           1     -22.405  -9.129  -4.949  0.00  0.00     0.275 HD
HETATM   19  H           1     -20.947  -9.623  -4.213  0.00  0.00     0.275 HD
HETATM   20  H           1     -22.286  -9.190  -3.248  0.00  0.00     0.275 HD
ENDBRANCH  16  17
BRANCH  16  21
HETATM   21  C           1     -22.074  -6.754  -5.146  0.00  0.00     0.042 C 
BRANCH  21  22
HETATM   22  C           1     -21.160  -6.406  -6.314  0.00  0.00     0.003 C 
BRANCH  22  23
HETATM   23 Se           1     -20.126  -4.813  -5.877  0.00  0.00     0.000 Se
HETATM   24  C           1     -19.665  -4.405  -7.728  0.00  0.00     0.000 C 
ENDBRANCH  22  23
ENDBRANCH  21  22
ENDBRANCH  16  21
ENDBRANCH   3  16
TORSDOF 9
ENDMDL
MODEL 9
REMARK VINA RESULT:      -5.6     14.502     16.527
REMARK  9 active torsions:
REMARK  status: ('A' for Active; 'I' for Inactive)
REMARK    1  A    between atoms: N_1  and  C_21 
REMARK       I    between atoms: N_1  and  C_10 
REMARK    2  A    between atoms: N_4  and  C_9 
REMARK    3  A    between atoms: Se_6  and  C_7 
REMARK    4  A    between atoms: C_7  and  C_8 
REMARK    5  A    between atoms: C_8  and  C_9 
REMARK    6  A    between atoms: C_9  and  C_10 
REMARK    7  A    between atoms: C_11  and  C_21 
REMARK    8  A    between atoms: C_21  and  C_22 
REMARK    9  A    between atoms: C_22  and  C_23 
ROOT
HETATM    1  N           1     -33.829  -4.627 -15.693  0.00  0.00    -0.344 N 
HETATM    2  O           1     -34.539  -2.890 -14.482  0.00  0.00    -0.271 OA
HETATM    3  C           1     -34.118  -4.021 -14.499  0.00  0.00     0.249 C 
HETATM    4  H           1     -34.543  -5.155 -16.178  0.00  0.00     0.163 HD
ENDROOT
BRANCH   1   5
HETATM    5  C           1     -32.501  -4.512 -16.262  0.00  0.00     0.189 C 
BRANCH   5   6
HETATM    6  C           1     -32.465  -3.346 -17.219  0.00  0.00     0.197 C 
HETATM    7  O           1     -33.530  -2.808 -17.589  0.00  0.00    -0.646 OA
HETATM    8  O           1     -31.368  -2.919 -17.641  0.00  0.00    -0.646 OA
ENDBRANCH   5   6
BRANCH   5   9
HETATM    9  C           1     -32.156  -5.794 -17.009  0.00  0.00     0.074 C 
BRANCH   9  10
HETATM   10  C           1     -30.683  -6.045 -16.917  0.00  0.00    -0.056 A 
HETATM   11  C           1     -29.966  -6.409 -18.057  0.00  0.00     0.007 A 
HETATM   12  C           1     -28.594  -6.642 -17.972  0.00  0.00     0.001 A 
HETATM   13  C           1     -27.939  -6.513 -16.747  0.00  0.00     0.000 A 
HETATM   14  C           1     -28.657  -6.150 -15.608  0.00  0.00     0.001 A 
HETATM   15  C           1     -30.029  -5.917 -15.693  0.00  0.00     0.007 A 
ENDBRANCH   9  10
ENDBRANCH   5   9
ENDBRANCH   1   5
BRANCH   3  16
HETATM   16  C           1     -33.910  -4.769 -13.205  0.00  0.00     0.274 C 
BRANCH  16  17
HETATM   17  N           1     -32.494  -4.585 -12.743  0.00  0.00    -0.067 N 
HETATM   18  H           1     -31.864  -4.505 -13.573  0.00  0.00     0.275 HD
HETATM   19  H           1     -32.426  -3.715 -12.168  0.00  0.00     0.275 HD
HETATM   20  H           1     -32.207  -5.407 -12.165  0.00  0.00     0.275 HD
ENDBRANCH  16  17
BRANCH  16  21
HETATM   21  C           1     -34.862  -4.228 -12.146  0.00  0.00     0.042 C 
BRANCH  21  22
HETATM   22  C           1     -34.102  -4.013 -10.843  0.00  0.00     0.003 C 
BRANCH  22  23
HETATM   23 Se           1     -33.843  -2.104 -10.549  0.00  0.00     0.000 Se
HETATM   24  C           1     -35.545  -1.584 -11.348  0.00  0.00     0.000 C 
ENDBRANCH  22  23
ENDBRANCH  21  22
ENDBRANCH  16  21
ENDBRANCH   3  16
TORSDOF 9
ENDMDL
