MODEL 1
REMARK VINA RESULT:      -7.4      0.000      0.000
REMARK  10 active torsions:
REMARK  status: ('A' for Active; 'I' for Inactive)
REMARK    1  A    between atoms: C_3  and  C_29 
REMARK    2  A    between atoms: C_3  and  C_5 
REMARK    3  A    between atoms: C_5  and  C_6 
REMARK    4  A    between atoms: C_5  and  N_15 
REMARK    5  A    between atoms: C_11  and  C_12 
REMARK    6  A    between atoms: C_11  and  O_23 
REMARK    7  A    between atoms: C_12  and  C_14 
REMARK    8  A    between atoms: C_12  and  N_20 
REMARK       I    between atoms: C_14  and  N_15 
REMARK       I    between atoms: N_21  and  C_26 
REMARK    9  A    between atoms: N_21  and  C_22 
REMARK   10  A    between atoms: C_22  and  C_29 
REMARK       I    between atoms: N_25  and  C_26 
ROOT
HETATM    1  C           1     -34.924  -2.443 -12.128  0.00  0.00     0.185 C 
ENDROOT
BRANCH   1   2
HETATM    2  C           1     -34.001  -3.617 -12.432  0.00  0.00     0.038 C 
BRANCH   2   3
HETATM    3  C           1     -34.759  -4.924 -12.233  0.00  0.00     0.023 C 
BRANCH   3   4
HETATM    4  C           1     -34.494  -5.456 -10.831  0.00  0.00     0.138 C 
BRANCH   4   5
HETATM    5  N           1     -33.796  -6.747 -10.921  0.00  0.00    -0.227 N 
HETATM    6  H           1     -32.971  -6.854 -11.561  0.00  0.00     0.177 HD
HETATM    7  C           1     -34.191  -7.729 -10.226  0.00  0.00     0.665 C 
HETATM    8  N           1     -35.186  -7.600  -9.455  0.00  0.00    -0.235 N 
HETATM    9  N           1     -33.574  -8.871 -10.305  0.00  0.00    -0.235 N 
HETATM   10  H           1     -35.684  -6.678  -9.391  0.00  0.00     0.174 HD
HETATM   11  H           1     -35.513  -8.414  -8.879  0.00  0.00     0.174 HD
HETATM   12  H           1     -33.900  -9.681  -9.732  0.00  0.00     0.174 HD
HETATM   13  H           1     -32.753  -8.977 -10.942  0.00  0.00     0.174 HD
ENDBRANCH   4   5
ENDBRANCH   3   4
ENDBRANCH   2   3
ENDBRANCH   1   2
BRANCH   1  14
HETATM   14  C           1     -34.508  -1.802 -10.827  0.00  0.00     0.196 C 
HETATM   15  O           1     -33.306  -1.807 -10.486  0.00  0.00    -0.646 OA
HETATM   16  O           1     -35.364  -1.265 -10.093  0.00  0.00    -0.646 OA
ENDBRANCH   1  14
BRANCH   1  17
HETATM   17  N           1     -34.835  -1.469 -13.198  0.00  0.00    -0.345 N 
HETATM   18  C           1     -35.947  -0.769 -13.580  0.00  0.00     0.251 C 
HETATM   19  O           1     -37.002  -0.962 -13.026  0.00  0.00    -0.271 OA
HETATM   20  H           1     -33.950  -1.307 -13.662  0.00  0.00     0.163 HD
BRANCH  18  21
HETATM   21  C           1     -35.853   0.246 -14.694  0.00  0.00     0.302 C 
BRANCH  21  22
HETATM   22  C           1     -36.466  -0.335 -15.961  0.00  0.00     0.153 C 
HETATM   23  C           1     -35.487  -1.313 -16.595  0.00  0.00     0.042 C 
BRANCH  22  24
HETATM   24  O           1     -37.655  -1.005 -15.643  0.00  0.00    -0.393 OA
HETATM   25  H           1     -38.217  -0.379 -15.218  0.00  0.00     0.210 HD
ENDBRANCH  22  24
ENDBRANCH  21  22
BRANCH  21  26
HETATM   26  N           1     -34.414   0.581 -14.944  0.00  0.00    -0.064 N 
HETATM   27  H           1     -34.225   1.560 -14.632  0.00  0.00     0.275 HD
HETATM   28  H           1     -33.804  -0.079 -14.409  0.00  0.00     0.275 HD
HETATM   29  H           1     -34.208   0.495 -15.965  0.00  0.00     0.275 HD
ENDBRANCH  21  26
ENDBRANCH  18  21
ENDBRANCH   1  17
TORSDOF 10
ENDMDL
MODEL 2
REMARK VINA RESULT:      -7.3     11.879     14.564
REMARK  10 active torsions:
REMARK  status: ('A' for Active; 'I' for Inactive)
REMARK    1  A    between atoms: C_3  and  C_29 
REMARK    2  A    between atoms: C_3  and  C_5 
REMARK    3  A    between atoms: C_5  and  C_6 
REMARK    4  A    between atoms: C_5  and  N_15 
REMARK    5  A    between atoms: C_11  and  C_12 
REMARK    6  A    between atoms: C_11  and  O_23 
REMARK    7  A    between atoms: C_12  and  C_14 
REMARK    8  A    between atoms: C_12  and  N_20 
REMARK       I    between atoms: C_14  and  N_15 
REMARK       I    between atoms: N_21  and  C_26 
REMARK    9  A    between atoms: N_21  and  C_22 
REMARK   10  A    between atoms: C_22  and  C_29 
REMARK       I    between atoms: N_25  and  C_26 
ROOT
HETATM    1  C           1     -22.568  -3.753  -9.788  0.00  0.00     0.185 C 
ENDROOT
BRANCH   1   2
HETATM    2  C           1     -22.024  -3.918 -11.202  0.00  0.00     0.038 C 
BRANCH   2   3
HETATM    3  C           1     -22.335  -2.667 -12.015  0.00  0.00     0.023 C 
BRANCH   3   4
HETATM    4  C           1     -23.232  -3.035 -13.189  0.00  0.00     0.138 C 
BRANCH   4   5
HETATM    5  N           1     -24.008  -1.856 -13.601  0.00  0.00    -0.227 N 
HETATM    6  H           1     -24.751  -1.470 -12.968  0.00  0.00     0.177 HD
HETATM    7  C           1     -23.780  -1.307 -14.719  0.00  0.00     0.665 C 
HETATM    8  N           1     -22.884  -1.773 -15.482  0.00  0.00    -0.235 N 
HETATM    9  N           1     -24.467  -0.265 -15.083  0.00  0.00    -0.235 N 
HETATM   10  H           1     -22.330  -2.615 -15.188  0.00  0.00     0.174 HD
HETATM   11  H           1     -22.695  -1.318 -16.409  0.00  0.00     0.174 HD
HETATM   12  H           1     -24.278   0.188 -16.006  0.00  0.00     0.174 HD
HETATM   13  H           1     -25.206   0.119 -14.453  0.00  0.00     0.174 HD
ENDBRANCH   4   5
ENDBRANCH   3   4
ENDBRANCH   2   3
ENDBRANCH   1   2
BRANCH   1  14
HETATM   14  C           1     -24.072  -3.880  -9.811  0.00  0.00     0.196 C 
HETATM   15  O           1     -24.601  -4.973 -10.104  0.00  0.00    -0.646 OA
HETATM   16  O           1     -24.787  -2.893  -9.535  0.00  0.00    -0.646 OA
ENDBRANCH   1  14
BRANCH   1  17
HETATM   17  N           1     -22.009  -4.782  -8.934  0.00  0.00    -0.345 N 
HETATM   18  C           1     -21.420  -4.439  -7.747  0.00  0.00     0.251 C 
HETATM   19  O           1     -21.365  -3.281  -7.412  0.00  0.00    -0.271 OA
HETATM   20  H           1     -22.055  -5.753  -9.214  0.00  0.00     0.163 HD
BRANCH  18  21
HETATM   21  C           1     -20.838  -5.511  -6.857  0.00  0.00     0.302 C 
BRANCH  21  22
HETATM   22  C           1     -21.920  -6.038  -5.924  0.00  0.00     0.153 C 
HETATM   23  C           1     -21.411  -6.011  -4.490  0.00  0.00     0.042 C 
BRANCH  22  24
HETATM   24  O           1     -23.063  -5.234  -6.030  0.00  0.00    -0.393 OA
HETATM   25  H           1     -22.776  -4.339  -5.959  0.00  0.00     0.210 HD
ENDBRANCH  22  24
ENDBRANCH  21  22
BRANCH  21  26
HETATM   26  N           1     -19.719  -4.932  -6.045  0.00  0.00    -0.064 N 
HETATM   27  H           1     -19.771  -3.889  -6.073  0.00  0.00     0.275 HD
HETATM   28  H           1     -19.801  -5.258  -5.055  0.00  0.00     0.275 HD
HETATM   29  H           1     -18.803  -5.245  -6.439  0.00  0.00     0.275 HD
ENDBRANCH  21  26
ENDBRANCH  18  21
ENDBRANCH   1  17
TORSDOF 10
ENDMDL
MODEL 3
REMARK VINA RESULT:      -7.1      2.339      6.086
REMARK  10 active torsions:
REMARK  status: ('A' for Active; 'I' for Inactive)
REMARK    1  A    between atoms: C_3  and  C_29 
REMARK    2  A    between atoms: C_3  and  C_5 
REMARK    3  A    between atoms: C_5  and  C_6 
REMARK    4  A    between atoms: C_5  and  N_15 
REMARK    5  A    between atoms: C_11  and  C_12 
REMARK    6  A    between atoms: C_11  and  O_23 
REMARK    7  A    between atoms: C_12  and  C_14 
REMARK    8  A    between atoms: C_12  and  N_20 
REMARK       I    between atoms: C_14  and  N_15 
REMARK       I    between atoms: N_21  and  C_26 
REMARK    9  A    between atoms: N_21  and  C_22 
REMARK   10  A    between atoms: C_22  and  C_29 
REMARK       I    between atoms: N_25  and  C_26 
ROOT
HETATM    1  C           1     -35.030  -0.625 -11.642  0.00  0.00     0.185 C 
ENDROOT
BRANCH   1   2
HETATM    2  C           1     -35.083   0.427 -12.743  0.00  0.00     0.038 C 
BRANCH   2   3
HETATM    3  C           1     -36.279   0.155 -13.648  0.00  0.00     0.023 C 
BRANCH   3   4
HETATM    4  C           1     -35.862   0.320 -15.103  0.00  0.00     0.138 C 
BRANCH   4   5
HETATM    5  N           1     -35.054  -0.836 -15.516  0.00  0.00    -0.227 N 
HETATM    6  H           1     -34.269  -1.173 -14.906  0.00  0.00     0.177 HD
HETATM    7  C           1     -35.305  -1.426 -16.608  0.00  0.00     0.665 C 
HETATM    8  N           1     -36.251  -1.020 -17.344  0.00  0.00    -0.235 N 
HETATM    9  N           1     -34.590  -2.448 -16.974  0.00  0.00    -0.235 N 
HETATM   10  H           1     -36.828  -0.194 -17.049  0.00  0.00     0.174 HD
HETATM   11  H           1     -36.458  -1.509 -18.250  0.00  0.00     0.174 HD
HETATM   12  H           1     -34.797  -2.935 -17.875  0.00  0.00     0.174 HD
HETATM   13  H           1     -33.809  -2.783 -16.366  0.00  0.00     0.174 HD
ENDBRANCH   4   5
ENDBRANCH   3   4
ENDBRANCH   2   3
ENDBRANCH   1   2
BRANCH   1  14
HETATM   14  C           1     -36.305  -0.573 -10.836  0.00  0.00     0.196 C 
HETATM   15  O           1     -36.602   0.466 -10.207  0.00  0.00    -0.646 OA
HETATM   16  O           1     -37.062  -1.566 -10.797  0.00  0.00    -0.646 OA
ENDBRANCH   1  14
BRANCH   1  17
HETATM   17  N           1     -34.889  -1.940 -12.237  0.00  0.00    -0.345 N 
HETATM   18  C           1     -33.912  -2.790 -11.792  0.00  0.00     0.251 C 
HETATM   19  O           1     -33.169  -2.445 -10.905  0.00  0.00    -0.271 OA
HETATM   20  H           1     -35.511  -2.228 -12.980  0.00  0.00     0.163 HD
BRANCH  18  21
HETATM   21  C           1     -33.765  -4.159 -12.411  0.00  0.00     0.302 C 
BRANCH  21  22
HETATM   22  C           1     -34.724  -5.128 -11.733  0.00  0.00     0.153 C 
HETATM   23  C           1     -33.934  -6.102 -10.870  0.00  0.00     0.042 C 
BRANCH  22  24
HETATM   24  O           1     -35.622  -4.413 -10.928  0.00  0.00    -0.393 OA
HETATM   25  H           1     -35.164  -3.650 -10.617  0.00  0.00     0.210 HD
ENDBRANCH  22  24
ENDBRANCH  21  22
BRANCH  21  26
HETATM   26  N           1     -32.357  -4.641 -12.229  0.00  0.00    -0.064 N 
HETATM   27  H           1     -31.993  -5.005 -13.138  0.00  0.00     0.275 HD
HETATM   28  H           1     -31.757  -3.849 -11.905  0.00  0.00     0.275 HD
HETATM   29  H           1     -32.340  -5.405 -11.516  0.00  0.00     0.275 HD
ENDBRANCH  21  26
ENDBRANCH  18  21
ENDBRANCH   1  17
TORSDOF 10
ENDMDL
MODEL 4
REMARK VINA RESULT:      -6.5     12.182     14.689
REMARK  10 active torsions:
REMARK  status: ('A' for Active; 'I' for Inactive)
REMARK    1  A    between atoms: C_3  and  C_29 
REMARK    2  A    between atoms: C_3  and  C_5 
REMARK    3  A    between atoms: C_5  and  C_6 
REMARK    4  A    between atoms: C_5  and  N_15 
REMARK    5  A    between atoms: C_11  and  C_12 
REMARK    6  A    between atoms: C_11  and  O_23 
REMARK    7  A    between atoms: C_12  and  C_14 
REMARK    8  A    between atoms: C_12  and  N_20 
REMARK       I    between atoms: C_14  and  N_15 
REMARK       I    between atoms: N_21  and  C_26 
REMARK    9  A    between atoms: N_21  and  C_22 
REMARK   10  A    between atoms: C_22  and  C_29 
REMARK       I    between atoms: N_25  and  C_26 
ROOT
HETATM    1  C           1     -22.781  -3.839  -9.112  0.00  0.00     0.185 C 
ENDROOT
BRANCH   1   2
HETATM    2  C           1     -21.985  -4.454 -10.256  0.00  0.00     0.038 C 
BRANCH   2   3
HETATM    3  C           1     -21.154  -3.374 -10.936  0.00  0.00     0.023 C 
BRANCH   3   4
HETATM    4  C           1     -22.029  -2.597 -11.910  0.00  0.00     0.138 C 
BRANCH   4   5
HETATM    5  N           1     -23.093  -3.474 -12.420  0.00  0.00    -0.227 N 
HETATM    6  H           1     -23.700  -4.007 -11.750  0.00  0.00     0.177 HD
HETATM    7  C           1     -23.275  -3.588 -13.668  0.00  0.00     0.665 C 
HETATM    8  N           1     -22.542  -2.945 -14.476  0.00  0.00    -0.235 N 
HETATM    9  N           1     -24.216  -4.363 -14.119  0.00  0.00    -0.235 N 
HETATM   10  H           1     -21.783  -2.319 -14.112  0.00  0.00     0.174 HD
HETATM   11  H           1     -22.694  -3.040 -15.510  0.00  0.00     0.174 HD
HETATM   12  H           1     -24.366  -4.457 -15.149  0.00  0.00     0.174 HD
HETATM   13  H           1     -24.820  -4.893 -13.452  0.00  0.00     0.174 HD
ENDBRANCH   4   5
ENDBRANCH   3   4
ENDBRANCH   2   3
ENDBRANCH   1   2
BRANCH   1  14
HETATM   14  C           1     -24.245  -3.815  -9.475  0.00  0.00     0.196 C 
HETATM   15  O           1     -24.914  -2.773  -9.302  0.00  0.00    -0.646 OA
HETATM   16  O           1     -24.789  -4.835  -9.949  0.00  0.00    -0.646 OA
ENDBRANCH   1  14
BRANCH   1  17
HETATM   17  N           1     -22.593  -4.631  -7.913  0.00  0.00    -0.345 N 
HETATM   18  C           1     -21.549  -4.359  -7.070  0.00  0.00     0.251 C 
HETATM   19  O           1     -20.784  -3.461  -7.326  0.00  0.00    -0.271 OA
HETATM   20  H           1     -23.234  -5.384  -7.698  0.00  0.00     0.163 HD
BRANCH  18  21
HETATM   21  C           1     -21.354  -5.184  -5.821  0.00  0.00     0.302 C 
BRANCH  21  22
HETATM   22  C           1     -20.259  -6.216  -6.060  0.00  0.00     0.153 C 
HETATM   23  C           1     -20.686  -7.554  -5.472  0.00  0.00     0.042 C 
BRANCH  22  24
HETATM   24  O           1     -20.043  -6.359  -7.437  0.00  0.00    -0.393 OA
HETATM   25  H           1     -19.131  -6.569  -7.552  0.00  0.00     0.210 HD
ENDBRANCH  22  24
ENDBRANCH  21  22
BRANCH  21  26
HETATM   26  N           1     -22.634  -5.886  -5.481  0.00  0.00    -0.064 N 
HETATM   27  H           1     -22.548  -6.332  -4.540  0.00  0.00     0.275 HD
HETATM   28  H           1     -23.418  -5.194  -5.469  0.00  0.00     0.275 HD
HETATM   29  H           1     -22.830  -6.621  -6.198  0.00  0.00     0.275 HD
ENDBRANCH  21  26
ENDBRANCH  18  21
ENDBRANCH   1  17
TORSDOF 10
ENDMDL
MODEL 5
REMARK VINA RESULT:      -6.4      2.627      7.091
REMARK  10 active torsions:
REMARK  status: ('A' for Active; 'I' for Inactive)
REMARK    1  A    between atoms: C_3  and  C_29 
REMARK    2  A    between atoms: C_3  and  C_5 
REMARK    3  A    between atoms: C_5  and  C_6 
REMARK    4  A    between atoms: C_5  and  N_15 
REMARK    5  A    between atoms: C_11  and  C_12 
REMARK    6  A    between atoms: C_11  and  O_23 
REMARK    7  A    between atoms: C_12  and  C_14 
REMARK    8  A    between atoms: C_12  and  N_20 
REMARK       I    between atoms: C_14  and  N_15 
REMARK       I    between atoms: N_21  and  C_26 
REMARK    9  A    between atoms: N_21  and  C_22 
REMARK   10  A    between atoms: C_22  and  C_29 
REMARK       I    between atoms: N_25  and  C_26 
ROOT
HETATM    1  C           1     -35.653  -0.735 -11.489  0.00  0.00     0.185 C 
ENDROOT
BRANCH   1   2
HETATM    2  C           1     -36.099   0.200 -12.606  0.00  0.00     0.038 C 
BRANCH   2   3
HETATM    3  C           1     -34.877   0.706 -13.363  0.00  0.00     0.023 C 
BRANCH   3   4
HETATM    4  C           1     -35.092   0.518 -14.858  0.00  0.00     0.138 C 
BRANCH   4   5
HETATM    5  N           1     -35.392   1.817 -15.478  0.00  0.00    -0.227 N 
HETATM    6  H           1     -34.672   2.581 -15.470  0.00  0.00     0.177 HD
HETATM    7  C           1     -36.519   2.014 -16.020  0.00  0.00     0.665 C 
HETATM    8  N           1     -37.387   1.093 -16.030  0.00  0.00    -0.235 N 
HETATM    9  N           1     -36.784   3.163 -16.568  0.00  0.00    -0.235 N 
HETATM   10  H           1     -37.173   0.165 -15.587  0.00  0.00     0.174 HD
HETATM   11  H           1     -38.321   1.257 -16.480  0.00  0.00     0.174 HD
HETATM   12  H           1     -37.714   3.326 -17.016  0.00  0.00     0.174 HD
HETATM   13  H           1     -36.068   3.923 -16.560  0.00  0.00     0.174 HD
ENDBRANCH   4   5
ENDBRANCH   3   4
ENDBRANCH   2   3
ENDBRANCH   1   2
BRANCH   1  14
HETATM   14  C           1     -36.682  -0.724 -10.385  0.00  0.00     0.196 C 
HETATM   15  O           1     -37.863  -1.052 -10.630  0.00  0.00    -0.646 OA
HETATM   16  O           1     -36.354  -0.389  -9.227  0.00  0.00    -0.646 OA
ENDBRANCH   1  14
BRANCH   1  17
HETATM   17  N           1     -35.517  -2.080 -12.010  0.00  0.00    -0.345 N 
HETATM   18  C           1     -34.587  -2.930 -11.476  0.00  0.00     0.251 C 
HETATM   19  O           1     -33.879  -2.560 -10.571  0.00  0.00    -0.271 OA
HETATM   20  H           1     -36.110  -2.391 -12.769  0.00  0.00     0.163 HD
BRANCH  18  21
HETATM   21  C           1     -34.446  -4.332 -12.019  0.00  0.00     0.302 C 
BRANCH  21  22
HETATM   22  C           1     -33.533  -5.140 -11.107  0.00  0.00     0.153 C 
HETATM   23  C           1     -34.258  -6.398 -10.649  0.00  0.00     0.042 C 
BRANCH  22  24
HETATM   24  O           1     -32.371  -5.499 -11.805  0.00  0.00    -0.393 OA
HETATM   25  H           1     -31.666  -4.989 -11.444  0.00  0.00     0.210 HD
ENDBRANCH  22  24
ENDBRANCH  21  22
BRANCH  21  26
HETATM   26  N           1     -33.854  -4.276 -13.396  0.00  0.00    -0.064 N 
HETATM   27  H           1     -34.571  -4.575 -14.095  0.00  0.00     0.275 HD
HETATM   28  H           1     -33.549  -3.299 -13.605  0.00  0.00     0.275 HD
HETATM   29  H           1     -33.030  -4.917 -13.447  0.00  0.00     0.275 HD
ENDBRANCH  21  26
ENDBRANCH  18  21
ENDBRANCH   1  17
TORSDOF 10
ENDMDL
MODEL 6
REMARK VINA RESULT:      -6.3     12.835     14.455
REMARK  10 active torsions:
REMARK  status: ('A' for Active; 'I' for Inactive)
REMARK    1  A    between atoms: C_3  and  C_29 
REMARK    2  A    between atoms: C_3  and  C_5 
REMARK    3  A    between atoms: C_5  and  C_6 
REMARK    4  A    between atoms: C_5  and  N_15 
REMARK    5  A    between atoms: C_11  and  C_12 
REMARK    6  A    between atoms: C_11  and  O_23 
REMARK    7  A    between atoms: C_12  and  C_14 
REMARK    8  A    between atoms: C_12  and  N_20 
REMARK       I    between atoms: C_14  and  N_15 
REMARK       I    between atoms: N_21  and  C_26 
REMARK    9  A    between atoms: N_21  and  C_22 
REMARK   10  A    between atoms: C_22  and  C_29 
REMARK       I    between atoms: N_25  and  C_26 
ROOT
HETATM    1  C           1     -21.138  -4.338  -7.496  0.00  0.00     0.185 C 
ENDROOT
BRANCH   1   2
HETATM    2  C           1     -21.104  -5.067  -6.159  0.00  0.00     0.038 C 
BRANCH   2   3
HETATM    3  C           1     -21.271  -6.563  -6.391  0.00  0.00     0.023 C 
BRANCH   3   4
HETATM    4  C           1     -21.385  -7.276  -5.051  0.00  0.00     0.138 C 
BRANCH   4   5
HETATM    5  N           1     -21.992  -6.371  -4.064  0.00  0.00    -0.227 N 
HETATM    6  H           1     -22.615  -5.589  -4.383  0.00  0.00     0.177 HD
HETATM    7  C           1     -21.764  -6.536  -2.830  0.00  0.00     0.665 C 
HETATM    8  N           1     -21.013  -7.479  -2.445  0.00  0.00    -0.235 N 
HETATM    9  N           1     -22.301  -5.735  -1.957  0.00  0.00    -0.235 N 
HETATM   10  H           1     -20.579  -8.126  -3.150  0.00  0.00     0.174 HD
HETATM   11  H           1     -20.823  -7.615  -1.422  0.00  0.00     0.174 HD
HETATM   12  H           1     -22.112  -5.871  -0.939  0.00  0.00     0.174 HD
HETATM   13  H           1     -22.920  -4.957  -2.275  0.00  0.00     0.174 HD
ENDBRANCH   4   5
ENDBRANCH   3   4
ENDBRANCH   2   3
ENDBRANCH   1   2
BRANCH   1  14
HETATM   14  C           1     -19.807  -4.496  -8.188  0.00  0.00     0.196 C 
HETATM   15  O           1     -18.747  -4.362  -7.539  0.00  0.00    -0.646 OA
HETATM   16  O           1     -19.763  -4.762  -9.408  0.00  0.00    -0.646 OA
ENDBRANCH   1  14
BRANCH   1  17
HETATM   17  N           1     -22.184  -4.901  -8.326  0.00  0.00    -0.345 N 
HETATM   18  C           1     -23.013  -4.075  -9.037  0.00  0.00     0.251 C 
HETATM   19  O           1     -22.872  -2.878  -8.973  0.00  0.00    -0.271 OA
HETATM   20  H           1     -22.302  -5.905  -8.380  0.00  0.00     0.163 HD
BRANCH  18  21
HETATM   21  C           1     -24.102  -4.662  -9.902  0.00  0.00     0.302 C 
BRANCH  21  22
HETATM   22  C           1     -23.646  -4.672 -11.355  0.00  0.00     0.153 C 
HETATM   23  C           1     -24.225  -3.463 -12.077  0.00  0.00     0.042 C 
BRANCH  22  24
HETATM   24  O           1     -22.246  -4.621 -11.407  0.00  0.00    -0.393 OA
HETATM   25  H           1     -21.961  -5.384 -11.881  0.00  0.00     0.210 HD
ENDBRANCH  22  24
ENDBRANCH  21  22
BRANCH  21  26
HETATM   26  N           1     -25.343  -3.831  -9.775  0.00  0.00    -0.064 N 
HETATM   27  H           1     -25.819  -3.770 -10.703  0.00  0.00     0.275 HD
HETATM   28  H           1     -25.988  -4.271  -9.081  0.00  0.00     0.275 HD
HETATM   29  H           1     -25.087  -2.870  -9.452  0.00  0.00     0.275 HD
ENDBRANCH  21  26
ENDBRANCH  18  21
ENDBRANCH   1  17
TORSDOF 10
ENDMDL
MODEL 7
REMARK VINA RESULT:      -6.1     14.249     17.318
REMARK  10 active torsions:
REMARK  status: ('A' for Active; 'I' for Inactive)
REMARK    1  A    between atoms: C_3  and  C_29 
REMARK    2  A    between atoms: C_3  and  C_5 
REMARK    3  A    between atoms: C_5  and  C_6 
REMARK    4  A    between atoms: C_5  and  N_15 
REMARK    5  A    between atoms: C_11  and  C_12 
REMARK    6  A    between atoms: C_11  and  O_23 
REMARK    7  A    between atoms: C_12  and  C_14 
REMARK    8  A    between atoms: C_12  and  N_20 
REMARK       I    between atoms: C_14  and  N_15 
REMARK       I    between atoms: N_21  and  C_26 
REMARK    9  A    between atoms: N_21  and  C_22 
REMARK   10  A    between atoms: C_22  and  C_29 
REMARK       I    between atoms: N_25  and  C_26 
ROOT
HETATM    1  C           1     -20.645  -6.790  -5.371  0.00  0.00     0.185 C 
ENDROOT
BRANCH   1   2
HETATM    2  C           1     -20.458  -6.008  -6.665  0.00  0.00     0.038 C 
BRANCH   2   3
HETATM    3  C           1     -20.202  -4.542  -6.340  0.00  0.00     0.023 C 
BRANCH   3   4
HETATM    4  C           1     -20.795  -3.668  -7.437  0.00  0.00     0.138 C 
BRANCH   4   5
HETATM    5  N           1     -22.260  -3.779  -7.414  0.00  0.00    -0.227 N 
HETATM    6  H           1     -22.771  -3.797  -6.497  0.00  0.00     0.177 HD
HETATM    7  C           1     -22.906  -3.854  -8.501  0.00  0.00     0.665 C 
HETATM    8  N           1     -22.290  -3.833  -9.606  0.00  0.00    -0.235 N 
HETATM    9  N           1     -24.203  -3.953  -8.480  0.00  0.00    -0.235 N 
HETATM   10  H           1     -21.243  -3.754  -9.622  0.00  0.00     0.174 HD
HETATM   11  H           1     -22.826  -3.895 -10.506  0.00  0.00     0.174 HD
HETATM   12  H           1     -24.735  -4.015  -9.377  0.00  0.00     0.174 HD
HETATM   13  H           1     -24.711  -3.970  -7.568  0.00  0.00     0.174 HD
ENDBRANCH   4   5
ENDBRANCH   3   4
ENDBRANCH   2   3
ENDBRANCH   1   2
BRANCH   1  14
HETATM   14  C           1     -21.917  -6.345  -4.694  0.00  0.00     0.196 C 
HETATM   15  O           1     -22.944  -6.129  -5.374  0.00  0.00    -0.646 OA
HETATM   16  O           1     -21.946  -6.192  -3.454  0.00  0.00    -0.646 OA
ENDBRANCH   1  14
BRANCH   1  17
HETATM   17  N           1     -20.727  -8.206  -5.671  0.00  0.00    -0.345 N 
HETATM   18  C           1     -19.982  -9.102  -4.952  0.00  0.00     0.251 C 
HETATM   19  O           1     -19.256  -8.713  -4.070  0.00  0.00    -0.271 OA
HETATM   20  H           1     -21.336  -8.532  -6.410  0.00  0.00     0.163 HD
BRANCH  18  21
HETATM   21  C           1     -20.068 -10.577  -5.264  0.00  0.00     0.302 C 
BRANCH  21  22
HETATM   22  C           1     -18.761 -11.039  -5.893  0.00  0.00     0.153 C 
HETATM   23  C           1     -19.056 -12.062  -6.981  0.00  0.00     0.042 C 
BRANCH  22  24
HETATM   24  O           1     -18.095  -9.941  -6.452  0.00  0.00    -0.393 OA
HETATM   25  H           1     -17.363  -9.748  -5.890  0.00  0.00     0.210 HD
ENDBRANCH  22  24
ENDBRANCH  21  22
BRANCH  21  26
HETATM   26  N           1     -21.196 -10.819  -6.223  0.00  0.00    -0.064 N 
HETATM   27  H           1     -21.042 -11.725  -6.720  0.00  0.00     0.275 HD
HETATM   28  H           1     -22.098 -10.858  -5.697  0.00  0.00     0.275 HD
HETATM   29  H           1     -21.233 -10.041  -6.920  0.00  0.00     0.275 HD
ENDBRANCH  21  26
ENDBRANCH  18  21
ENDBRANCH   1  17
TORSDOF 10
ENDMDL
MODEL 8
REMARK VINA RESULT:      -6.0      3.350      4.826
REMARK  10 active torsions:
REMARK  status: ('A' for Active; 'I' for Inactive)
REMARK    1  A    between atoms: C_3  and  C_29 
REMARK    2  A    between atoms: C_3  and  C_5 
REMARK    3  A    between atoms: C_5  and  C_6 
REMARK    4  A    between atoms: C_5  and  N_15 
REMARK    5  A    between atoms: C_11  and  C_12 
REMARK    6  A    between atoms: C_11  and  O_23 
REMARK    7  A    between atoms: C_12  and  C_14 
REMARK    8  A    between atoms: C_12  and  N_20 
REMARK       I    between atoms: C_14  and  N_15 
REMARK       I    between atoms: N_21  and  C_26 
REMARK    9  A    between atoms: N_21  and  C_22 
REMARK   10  A    between atoms: C_22  and  C_29 
REMARK       I    between atoms: N_25  and  C_26 
ROOT
HETATM    1  C           1     -34.399  -1.842 -11.856  0.00  0.00     0.185 C 
ENDROOT
BRANCH   1   2
HETATM    2  C           1     -35.056  -1.751 -10.484  0.00  0.00     0.038 C 
BRANCH   2   3
HETATM    3  C           1     -36.567  -1.655 -10.650  0.00  0.00     0.023 C 
BRANCH   3   4
HETATM    4  C           1     -37.052  -0.315 -10.114  0.00  0.00     0.138 C 
BRANCH   4   5
HETATM    5  N           1     -37.268  -0.416  -8.663  0.00  0.00    -0.227 N 
HETATM    6  H           1     -37.762  -1.251  -8.263  0.00  0.00     0.177 HD
HETATM    7  C           1     -36.858   0.505  -7.896  0.00  0.00     0.665 C 
HETATM    8  N           1     -36.262   1.512  -8.379  0.00  0.00    -0.235 N 
HETATM    9  N           1     -37.049   0.415  -6.613  0.00  0.00    -0.235 N 
HETATM   10  H           1     -36.108   1.584  -9.415  0.00  0.00     0.174 HD
HETATM   11  H           1     -35.922   2.275  -7.743  0.00  0.00     0.174 HD
HETATM   12  H           1     -36.710   1.175  -5.981  0.00  0.00     0.174 HD
HETATM   13  H           1     -37.541  -0.416  -6.216  0.00  0.00     0.174 HD
ENDBRANCH   4   5
ENDBRANCH   3   4
ENDBRANCH   2   3
ENDBRANCH   1   2
BRANCH   1  14
HETATM   14  C           1     -33.670  -3.158 -11.978  0.00  0.00     0.196 C 
HETATM   15  O           1     -33.598  -3.730 -13.087  0.00  0.00    -0.646 OA
HETATM   16  O           1     -33.139  -3.673 -10.972  0.00  0.00    -0.646 OA
ENDBRANCH   1  14
BRANCH   1  17
HETATM   17  N           1     -35.417  -1.757 -12.885  0.00  0.00    -0.345 N 
HETATM   18  C           1     -35.372  -0.749 -13.810  0.00  0.00     0.251 C 
HETATM   19  O           1     -34.485   0.069 -13.769  0.00  0.00    -0.271 OA
HETATM   20  H           1     -36.161  -2.442 -12.919  0.00  0.00     0.163 HD
BRANCH  18  21
HETATM   21  C           1     -36.432  -0.660 -14.881  0.00  0.00     0.302 C 
BRANCH  21  22
HETATM   22  C           1     -35.776  -0.748 -16.253  0.00  0.00     0.153 C 
HETATM   23  C           1     -35.015  -2.062 -16.367  0.00  0.00     0.042 C 
BRANCH  22  24
HETATM   24  O           1     -36.760  -0.689 -17.248  0.00  0.00    -0.393 OA
HETATM   25  H           1     -37.097   0.191 -17.251  0.00  0.00     0.210 HD
ENDBRANCH  22  24
ENDBRANCH  21  22
BRANCH  21  26
HETATM   26  N           1     -37.159   0.645 -14.758  0.00  0.00    -0.064 N 
HETATM   27  H           1     -37.124   0.971 -13.766  0.00  0.00     0.275 HD
HETATM   28  H           1     -36.705   1.356 -15.375  0.00  0.00     0.275 HD
HETATM   29  H           1     -38.155   0.519 -15.048  0.00  0.00     0.275 HD
ENDBRANCH  21  26
ENDBRANCH  18  21
ENDBRANCH   1  17
TORSDOF 10
ENDMDL
MODEL 9
REMARK VINA RESULT:      -5.9     12.654     14.326
REMARK  10 active torsions:
REMARK  status: ('A' for Active; 'I' for Inactive)
REMARK    1  A    between atoms: C_3  and  C_29 
REMARK    2  A    between atoms: C_3  and  C_5 
REMARK    3  A    between atoms: C_5  and  C_6 
REMARK    4  A    between atoms: C_5  and  N_15 
REMARK    5  A    between atoms: C_11  and  C_12 
REMARK    6  A    between atoms: C_11  and  O_23 
REMARK    7  A    between atoms: C_12  and  C_14 
REMARK    8  A    between atoms: C_12  and  N_20 
REMARK       I    between atoms: C_14  and  N_15 
REMARK       I    between atoms: N_21  and  C_26 
REMARK    9  A    between atoms: N_21  and  C_22 
REMARK   10  A    between atoms: C_22  and  C_29 
REMARK       I    between atoms: N_25  and  C_26 
ROOT
HETATM    1  C           1     -21.212  -4.963  -7.764  0.00  0.00     0.185 C 
ENDROOT
BRANCH   1   2
HETATM    2  C           1     -20.954  -6.194  -6.903  0.00  0.00     0.038 C 
BRANCH   2   3
HETATM    3  C           1     -21.130  -5.833  -5.434  0.00  0.00     0.023 C 
BRANCH   3   4
HETATM    4  C           1     -21.061  -7.097  -4.588  0.00  0.00     0.138 C 
BRANCH   4   5
HETATM    5  N           1     -20.713  -8.241  -5.443  0.00  0.00    -0.227 N 
HETATM    6  H           1     -20.155  -8.090  -6.320  0.00  0.00     0.177 HD
HETATM    7  C           1     -21.086  -9.408  -5.123  0.00  0.00     0.665 C 
HETATM    8  N           1     -21.758  -9.589  -4.066  0.00  0.00    -0.235 N 
HETATM    9  N           1     -20.778 -10.419  -5.879  0.00  0.00    -0.235 N 
HETATM   10  H           1     -22.007  -8.772  -3.455  0.00  0.00     0.174 HD
HETATM   11  H           1     -22.067 -10.557  -3.800  0.00  0.00     0.174 HD
HETATM   12  H           1     -21.086 -11.382  -5.614  0.00  0.00     0.174 HD
HETATM   13  H           1     -20.223 -10.269  -6.751  0.00  0.00     0.174 HD
ENDBRANCH   4   5
ENDBRANCH   3   4
ENDBRANCH   2   3
ENDBRANCH   1   2
BRANCH   1  14
HETATM   14  C           1     -19.949  -4.594  -8.503  0.00  0.00     0.196 C 
HETATM   15  O           1     -19.899  -4.709  -9.747  0.00  0.00    -0.646 OA
HETATM   16  O           1     -18.956  -4.172  -7.873  0.00  0.00    -0.646 OA
ENDBRANCH   1  14
BRANCH   1  17
HETATM   17  N           1     -22.264  -5.253  -8.718  0.00  0.00    -0.345 N 
HETATM   18  C           1     -23.128  -4.264  -9.105  0.00  0.00     0.251 C 
HETATM   19  O           1     -23.014  -3.152  -8.651  0.00  0.00    -0.271 OA
HETATM   20  H           1     -22.358  -6.186  -9.098  0.00  0.00     0.163 HD
BRANCH  18  21
HETATM   21  C           1     -24.223  -4.567 -10.099  0.00  0.00     0.302 C 
BRANCH  21  22
HETATM   22  C           1     -23.694  -4.364 -11.513  0.00  0.00     0.153 C 
HETATM   23  C           1     -24.314  -3.108 -12.110  0.00  0.00     0.042 C 
BRANCH  22  24
HETATM   24  O           1     -22.300  -4.226 -11.477  0.00  0.00    -0.393 OA
HETATM   25  H           1     -21.936  -5.092 -11.546  0.00  0.00     0.210 HD
ENDBRANCH  22  24
ENDBRANCH  21  22
BRANCH  21  26
HETATM   26  N           1     -25.381  -3.645  -9.862  0.00  0.00    -0.064 N 
HETATM   27  H           1     -25.131  -2.682 -10.184  0.00  0.00     0.275 HD
HETATM   28  H           1     -26.213  -3.985 -10.395  0.00  0.00     0.275 HD
HETATM   29  H           1     -25.606  -3.623  -8.842  0.00  0.00     0.275 HD
ENDBRANCH  21  26
ENDBRANCH  18  21
ENDBRANCH   1  17
TORSDOF 10
ENDMDL
