MODEL 1
REMARK VINA RESULT:      -6.1      0.000      0.000
REMARK  9 active torsions:
REMARK  status: ('A' for Active; 'I' for Inactive)
REMARK    1  A    between atoms: C_2  and  C_15 
REMARK    2  A    between atoms: C_2  and  C_3 
REMARK    3  A    between atoms: C_3  and  C_10 
REMARK    4  A    between atoms: C_3  and  N_4 
REMARK       I    between atoms: N_4  and  C_5 
REMARK    5  A    between atoms: C_5  and  C_6 
REMARK    6  A    between atoms: C_6  and  C_17 
REMARK    7  A    between atoms: C_6  and  N_18 
REMARK    8  A    between atoms: S_12  and  C_16 
REMARK    9  A    between atoms: C_16  and  C_17 
ROOT
HETATM    1  N           1     -35.025  -1.811 -12.785  0.00  0.00    -0.344 N 
HETATM    2  C           1     -34.211  -2.634 -12.055  0.00  0.00     0.249 C 
HETATM    3  H           1     -35.546  -2.181 -13.570  0.00  0.00     0.163 HD
HETATM    4  O           1     -33.592  -2.192 -11.117  0.00  0.00    -0.271 OA
ENDROOT
BRANCH   2   5
HETATM    5  C           1     -34.089  -4.092 -12.419  0.00  0.00     0.275 C 
BRANCH   5   6
HETATM    6  C           1     -34.866  -4.935 -11.416  0.00  0.00     0.053 C 
BRANCH   6   7
HETATM    7  C           1     -33.986  -6.072 -10.918  0.00  0.00     0.076 C 
BRANCH   7   8
HETATM    8  S           1     -34.967  -7.183  -9.869  0.00  0.00    -0.173 SA
HETATM    9  C           1     -33.854  -8.612  -9.998  0.00  0.00     0.089 C 
ENDBRANCH   7   8
ENDBRANCH   6   7
ENDBRANCH   5   6
BRANCH   5  10
HETATM   10  N           1     -32.644  -4.493 -12.394  0.00  0.00    -0.066 N 
HETATM   11  H           1     -32.382  -4.793 -11.428  0.00  0.00     0.275 HD
HETATM   12  H           1     -32.492  -5.287 -13.057  0.00  0.00     0.275 HD
HETATM   13  H           1     -32.052  -3.681 -12.679  0.00  0.00     0.275 HD
ENDBRANCH   5  10
ENDBRANCH   2   5
BRANCH   1  14
HETATM   14  C           1     -35.143  -0.409 -12.434  0.00  0.00     0.195 C 
BRANCH  14  15
HETATM   15  C           1     -35.336   0.416 -13.700  0.00  0.00     0.149 C 
BRANCH  15  16
HETATM   16  C           1     -35.703  -0.496 -14.845  0.00  0.00     0.175 C 
HETATM   17  O           1     -36.887  -0.871 -14.991  0.00  0.00    -0.648 OA
HETATM   18  O           1     -34.823  -0.878 -15.647  0.00  0.00    -0.648 OA
ENDBRANCH  15  16
ENDBRANCH  14  15
BRANCH  14  19
HETATM   19  C           1     -36.330  -0.217 -11.522  0.00  0.00     0.197 C 
HETATM   20  O           1     -36.231   0.510 -10.511  0.00  0.00    -0.646 OA
HETATM   21  O           1     -37.413  -0.785 -11.778  0.00  0.00    -0.646 OA
ENDBRANCH  14  19
ENDBRANCH   1  14
TORSDOF 9
ENDMDL
MODEL 2
REMARK VINA RESULT:      -5.5     12.709     14.263
REMARK  9 active torsions:
REMARK  status: ('A' for Active; 'I' for Inactive)
REMARK    1  A    between atoms: C_2  and  C_15 
REMARK    2  A    between atoms: C_2  and  C_3 
REMARK    3  A    between atoms: C_3  and  C_10 
REMARK    4  A    between atoms: C_3  and  N_4 
REMARK       I    between atoms: N_4  and  C_5 
REMARK    5  A    between atoms: C_5  and  C_6 
REMARK    6  A    between atoms: C_6  and  C_17 
REMARK    7  A    between atoms: C_6  and  N_18 
REMARK    8  A    between atoms: S_12  and  C_16 
REMARK    9  A    between atoms: C_16  and  C_17 
ROOT
HETATM    1  N           1     -22.301  -4.930  -8.854  0.00  0.00    -0.344 N 
HETATM    2  C           1     -21.682  -4.710  -7.654  0.00  0.00     0.249 C 
HETATM    3  H           1     -22.420  -5.875  -9.196  0.00  0.00     0.163 HD
HETATM    4  O           1     -21.541  -3.582  -7.245  0.00  0.00    -0.271 OA
ENDROOT
BRANCH   2   5
HETATM    5  C           1     -21.178  -5.875  -6.839  0.00  0.00     0.275 C 
BRANCH   5   6
HETATM    6  C           1     -21.182  -5.503  -5.362  0.00  0.00     0.053 C 
BRANCH   6   7
HETATM    7  C           1     -21.375  -6.758  -4.522  0.00  0.00     0.076 C 
BRANCH   7   8
HETATM    8  S           1     -21.578  -6.296  -2.779  0.00  0.00    -0.173 SA
HETATM    9  C           1     -21.002  -7.872  -2.086  0.00  0.00     0.089 C 
ENDBRANCH   7   8
ENDBRANCH   6   7
ENDBRANCH   5   6
BRANCH   5  10
HETATM   10  N           1     -19.780  -6.214  -7.265  0.00  0.00    -0.066 N 
HETATM   11  H           1     -19.783  -6.508  -8.267  0.00  0.00     0.275 HD
HETATM   12  H           1     -19.169  -5.374  -7.150  0.00  0.00     0.275 HD
HETATM   13  H           1     -19.416  -6.995  -6.674  0.00  0.00     0.275 HD
ENDBRANCH   5  10
ENDBRANCH   2   5
BRANCH   1  14
HETATM   14  C           1     -22.785  -3.810  -9.637  0.00  0.00     0.195 C 
BRANCH  14  15
HETATM   15  C           1     -22.239  -3.908 -11.055  0.00  0.00     0.149 C 
BRANCH  15  16
HETATM   16  C           1     -20.737  -3.759 -11.028  0.00  0.00     0.175 C 
HETATM   17  O           1     -20.214  -2.654 -11.290  0.00  0.00    -0.648 OA
HETATM   18  O           1     -20.017  -4.741 -10.745  0.00  0.00    -0.648 OA
ENDBRANCH  15  16
ENDBRANCH  14  15
BRANCH  14  19
HETATM   19  C           1     -24.293  -3.839  -9.675  0.00  0.00     0.197 C 
HETATM   20  O           1     -24.943  -2.783  -9.519  0.00  0.00    -0.646 OA
HETATM   21  O           1     -24.894  -4.918  -9.863  0.00  0.00    -0.646 OA
ENDBRANCH  14  19
ENDBRANCH   1  14
TORSDOF 9
ENDMDL
MODEL 3
REMARK VINA RESULT:      -5.5     12.459     14.028
REMARK  9 active torsions:
REMARK  status: ('A' for Active; 'I' for Inactive)
REMARK    1  A    between atoms: C_2  and  C_15 
REMARK    2  A    between atoms: C_2  and  C_3 
REMARK    3  A    between atoms: C_3  and  C_10 
REMARK    4  A    between atoms: C_3  and  N_4 
REMARK       I    between atoms: N_4  and  C_5 
REMARK    5  A    between atoms: C_5  and  C_6 
REMARK    6  A    between atoms: C_6  and  C_17 
REMARK    7  A    between atoms: C_6  and  N_18 
REMARK    8  A    between atoms: S_12  and  C_16 
REMARK    9  A    between atoms: C_16  and  C_17 
ROOT
HETATM    1  N           1     -21.829  -3.879  -9.705  0.00  0.00    -0.344 N 
HETATM    2  C           1     -20.668  -4.320  -9.130  0.00  0.00     0.249 C 
HETATM    3  H           1     -22.414  -3.212  -9.218  0.00  0.00     0.163 HD
HETATM    4  O           1     -19.971  -5.116  -9.712  0.00  0.00    -0.271 OA
ENDROOT
BRANCH   2   5
HETATM    5  C           1     -20.259  -3.811  -7.770  0.00  0.00     0.275 C 
BRANCH   5   6
HETATM    6  C           1     -19.641  -4.948  -6.967  0.00  0.00     0.053 C 
BRANCH   6   7
HETATM    7  C           1     -20.269  -4.990  -5.581  0.00  0.00     0.076 C 
BRANCH   7   8
HETATM    8  S           1     -21.126  -6.574  -5.352  0.00  0.00    -0.173 SA
HETATM    9  C           1     -21.506  -6.342  -3.592  0.00  0.00     0.089 C 
ENDBRANCH   7   8
ENDBRANCH   6   7
ENDBRANCH   5   6
BRANCH   5  10
HETATM   10  N           1     -21.466  -3.289  -7.049  0.00  0.00    -0.066 N 
HETATM   11  H           1     -21.485  -2.246  -7.111  0.00  0.00     0.275 HD
HETATM   12  H           1     -22.330  -3.679  -7.490  0.00  0.00     0.275 HD
HETATM   13  H           1     -21.424  -3.577  -6.046  0.00  0.00     0.275 HD
ENDBRANCH   5  10
ENDBRANCH   2   5
BRANCH   1  14
HETATM   14  C           1     -22.223  -4.368 -11.013  0.00  0.00     0.195 C 
BRANCH  14  15
HETATM   15  C           1     -23.654  -4.885 -10.951  0.00  0.00     0.149 C 
BRANCH  15  16
HETATM   16  C           1     -24.463  -4.018 -10.017  0.00  0.00     0.175 C 
HETATM   17  O           1     -25.317  -3.230 -10.478  0.00  0.00    -0.648 OA
HETATM   18  O           1     -24.279  -4.088  -8.783  0.00  0.00    -0.648 OA
ENDBRANCH  15  16
ENDBRANCH  14  15
BRANCH  14  19
HETATM   19  C           1     -22.135  -3.244 -12.016  0.00  0.00     0.197 C 
HETATM   20  O           1     -22.738  -3.332 -13.108  0.00  0.00    -0.646 OA
HETATM   21  O           1     -21.461  -2.225 -11.756  0.00  0.00    -0.646 OA
ENDBRANCH  14  19
ENDBRANCH   1  14
TORSDOF 9
ENDMDL
MODEL 4
REMARK VINA RESULT:      -5.5     12.873     15.157
REMARK  9 active torsions:
REMARK  status: ('A' for Active; 'I' for Inactive)
REMARK    1  A    between atoms: C_2  and  C_15 
REMARK    2  A    between atoms: C_2  and  C_3 
REMARK    3  A    between atoms: C_3  and  C_10 
REMARK    4  A    between atoms: C_3  and  N_4 
REMARK       I    between atoms: N_4  and  C_5 
REMARK    5  A    between atoms: C_5  and  C_6 
REMARK    6  A    between atoms: C_6  and  C_17 
REMARK    7  A    between atoms: C_6  and  N_18 
REMARK    8  A    between atoms: S_12  and  C_16 
REMARK    9  A    between atoms: C_16  and  C_17 
ROOT
HETATM    1  N           1     -22.014  -5.074  -7.130  0.00  0.00    -0.344 N 
HETATM    2  C           1     -22.453  -4.155  -8.043  0.00  0.00     0.249 C 
HETATM    3  H           1     -22.514  -5.946  -7.010  0.00  0.00     0.163 HD
HETATM    4  O           1     -21.856  -3.114  -8.187  0.00  0.00    -0.271 OA
ENDROOT
BRANCH   2   5
HETATM    5  C           1     -23.681  -4.440  -8.872  0.00  0.00     0.275 C 
BRANCH   5   6
HETATM    6  C           1     -23.263  -4.825 -10.285  0.00  0.00     0.053 C 
BRANCH   6   7
HETATM    7  C           1     -23.853  -3.833 -11.278  0.00  0.00     0.076 C 
BRANCH   7   8
HETATM    8  S           1     -22.513  -2.910 -12.082  0.00  0.00    -0.173 SA
HETATM    9  C           1     -21.170  -4.014 -11.562  0.00  0.00     0.089 C 
ENDBRANCH   7   8
ENDBRANCH   6   7
ENDBRANCH   5   6
BRANCH   5  10
HETATM   10  N           1     -24.544  -3.214  -8.923  0.00  0.00    -0.066 N 
HETATM   11  H           1     -24.390  -2.717  -9.829  0.00  0.00     0.275 HD
HETATM   12  H           1     -25.549  -3.494  -8.848  0.00  0.00     0.275 HD
HETATM   13  H           1     -24.296  -2.580  -8.131  0.00  0.00     0.275 HD
ENDBRANCH   5  10
ENDBRANCH   2   5
BRANCH   1  14
HETATM   14  C           1     -20.834  -4.800  -6.333  0.00  0.00     0.195 C 
BRANCH  14  15
HETATM   15  C           1     -20.951  -5.511  -4.992  0.00  0.00     0.149 C 
BRANCH  15  16
HETATM   16  C           1     -22.079  -6.512  -5.049  0.00  0.00     0.175 C 
HETATM   17  O           1     -23.256  -6.140  -4.851  0.00  0.00    -0.648 OA
HETATM   18  O           1     -21.837  -7.714  -5.296  0.00  0.00    -0.648 OA
ENDBRANCH  15  16
ENDBRANCH  14  15
BRANCH  14  19
HETATM   19  C           1     -19.610  -5.297  -7.062  0.00  0.00     0.197 C 
HETATM   20  O           1     -19.476  -6.516  -7.301  0.00  0.00    -0.646 OA
HETATM   21  O           1     -18.729  -4.489  -7.428  0.00  0.00    -0.646 OA
ENDBRANCH  14  19
ENDBRANCH   1  14
TORSDOF 9
ENDMDL
MODEL 5
REMARK VINA RESULT:      -5.1     14.129     16.719
REMARK  9 active torsions:
REMARK  status: ('A' for Active; 'I' for Inactive)
REMARK    1  A    between atoms: C_2  and  C_15 
REMARK    2  A    between atoms: C_2  and  C_3 
REMARK    3  A    between atoms: C_3  and  C_10 
REMARK    4  A    between atoms: C_3  and  N_4 
REMARK       I    between atoms: N_4  and  C_5 
REMARK    5  A    between atoms: C_5  and  C_6 
REMARK    6  A    between atoms: C_6  and  C_17 
REMARK    7  A    between atoms: C_6  and  N_18 
REMARK    8  A    between atoms: S_12  and  C_16 
REMARK    9  A    between atoms: C_16  and  C_17 
ROOT
HETATM    1  N           1     -20.906  -6.740  -4.753  0.00  0.00    -0.344 N 
HETATM    2  C           1     -21.475  -5.839  -5.611  0.00  0.00     0.249 C 
HETATM    3  H           1     -19.903  -6.878  -4.756  0.00  0.00     0.163 HD
HETATM    4  O           1     -22.672  -5.674  -5.606  0.00  0.00    -0.271 OA
ENDROOT
BRANCH   2   5
HETATM    5  C           1     -20.610  -5.051  -6.562  0.00  0.00     0.275 C 
BRANCH   5   6
HETATM    6  C           1     -21.445  -3.968  -7.233  0.00  0.00     0.053 C 
BRANCH   6   7
HETATM    7  C           1     -21.797  -4.402  -8.649  0.00  0.00     0.076 C 
BRANCH   7   8
HETATM    8  S           1     -23.536  -4.009  -8.989  0.00  0.00    -0.173 SA
HETATM    9  C           1     -23.635  -4.896 -10.570  0.00  0.00     0.089 C 
ENDBRANCH   7   8
ENDBRANCH   6   7
ENDBRANCH   5   6
BRANCH   5  10
HETATM   10  N           1     -20.052  -5.970  -7.608  0.00  0.00    -0.066 N 
HETATM   11  H           1     -19.095  -6.280  -7.325  0.00  0.00     0.275 HD
HETATM   12  H           1     -20.673  -6.806  -7.703  0.00  0.00     0.275 HD
HETATM   13  H           1     -19.999  -5.467  -8.522  0.00  0.00     0.275 HD
ENDBRANCH   5  10
ENDBRANCH   2   5
BRANCH   1  14
HETATM   14  C           1     -21.738  -7.498  -3.839  0.00  0.00     0.195 C 
BRANCH  14  15
HETATM   15  C           1     -21.274  -8.948  -3.813  0.00  0.00     0.149 C 
BRANCH  15  16
HETATM   16  C           1     -20.014  -9.088  -4.633  0.00  0.00     0.175 C 
HETATM   17  O           1     -18.900  -8.872  -4.108  0.00  0.00    -0.648 OA
HETATM   18  O           1     -20.085  -9.419  -5.836  0.00  0.00    -0.648 OA
ENDBRANCH  15  16
ENDBRANCH  14  15
BRANCH  14  19
HETATM   19  C           1     -21.627  -6.909  -2.453  0.00  0.00     0.197 C 
HETATM   20  O           1     -20.872  -7.436  -1.608  0.00  0.00    -0.646 OA
HETATM   21  O           1     -22.290  -5.894  -2.150  0.00  0.00    -0.646 OA
ENDBRANCH  14  19
ENDBRANCH   1  14
TORSDOF 9
ENDMDL
MODEL 6
REMARK VINA RESULT:      -4.9      3.011      5.775
REMARK  9 active torsions:
REMARK  status: ('A' for Active; 'I' for Inactive)
REMARK    1  A    between atoms: C_2  and  C_15 
REMARK    2  A    between atoms: C_2  and  C_3 
REMARK    3  A    between atoms: C_3  and  C_10 
REMARK    4  A    between atoms: C_3  and  N_4 
REMARK       I    between atoms: N_4  and  C_5 
REMARK    5  A    between atoms: C_5  and  C_6 
REMARK    6  A    between atoms: C_6  and  C_17 
REMARK    7  A    between atoms: C_6  and  N_18 
REMARK    8  A    between atoms: S_12  and  C_16 
REMARK    9  A    between atoms: C_16  and  C_17 
ROOT
HETATM    1  N           1     -35.027  -2.194 -12.463  0.00  0.00    -0.344 N 
HETATM    2  C           1     -35.338  -0.970 -12.989  0.00  0.00     0.249 C 
HETATM    3  H           1     -35.566  -2.564 -11.690  0.00  0.00     0.163 HD
HETATM    4  O           1     -34.695  -0.529 -13.912  0.00  0.00    -0.271 OA
ENDROOT
BRANCH   2   5
HETATM    5  C           1     -36.484  -0.172 -12.419  0.00  0.00     0.275 C 
BRANCH   5   6
HETATM    6  C           1     -36.832  -0.700 -11.033  0.00  0.00     0.053 C 
BRANCH   6   7
HETATM    7  C           1     -36.962   0.466 -10.063  0.00  0.00     0.076 C 
BRANCH   7   8
HETATM    8  S           1     -37.330  -0.166  -8.401  0.00  0.00    -0.173 SA
HETATM    9  C           1     -37.258   1.439  -7.557  0.00  0.00     0.089 C 
ENDBRANCH   7   8
ENDBRANCH   6   7
ENDBRANCH   5   6
BRANCH   5  10
HETATM   10  N           1     -37.678  -0.302 -13.317  0.00  0.00    -0.066 N 
HETATM   11  H           1     -37.366  -0.579 -14.274  0.00  0.00     0.275 HD
HETATM   12  H           1     -38.321  -1.033 -12.936  0.00  0.00     0.275 HD
HETATM   13  H           1     -38.179   0.614 -13.365  0.00  0.00     0.275 HD
ENDBRANCH   5  10
ENDBRANCH   2   5
BRANCH   1  14
HETATM   14  C           1     -33.925  -2.961 -13.011  0.00  0.00     0.195 C 
BRANCH  14  15
HETATM   15  C           1     -33.086  -3.528 -11.874  0.00  0.00     0.149 C 
BRANCH  15  16
HETATM   16  C           1     -33.850  -3.410 -10.577  0.00  0.00     0.175 C 
HETATM   17  O           1     -34.504  -4.384 -10.146  0.00  0.00    -0.648 OA
HETATM   18  O           1     -33.828  -2.338  -9.934  0.00  0.00    -0.648 OA
ENDBRANCH  15  16
ENDBRANCH  14  15
BRANCH  14  19
HETATM   19  C           1     -34.469  -4.092 -13.849  0.00  0.00     0.197 C 
HETATM   20  O           1     -34.346  -4.066 -15.092  0.00  0.00    -0.646 OA
HETATM   21  O           1     -35.042  -5.058 -13.299  0.00  0.00    -0.646 OA
ENDBRANCH  14  19
ENDBRANCH   1  14
TORSDOF 9
ENDMDL
MODEL 7
REMARK VINA RESULT:      -4.9     15.469     17.865
REMARK  9 active torsions:
REMARK  status: ('A' for Active; 'I' for Inactive)
REMARK    1  A    between atoms: C_2  and  C_15 
REMARK    2  A    between atoms: C_2  and  C_3 
REMARK    3  A    between atoms: C_3  and  C_10 
REMARK    4  A    between atoms: C_3  and  N_4 
REMARK       I    between atoms: N_4  and  C_5 
REMARK    5  A    between atoms: C_5  and  C_6 
REMARK    6  A    between atoms: C_6  and  C_17 
REMARK    7  A    between atoms: C_6  and  N_18 
REMARK    8  A    between atoms: S_12  and  C_16 
REMARK    9  A    between atoms: C_16  and  C_17 
ROOT
HETATM    1  N           1     -21.737  -8.340  -2.917  0.00  0.00    -0.344 N 
HETATM    2  C           1     -20.988  -8.000  -4.011  0.00  0.00     0.249 C 
HETATM    3  H           1     -22.727  -8.133  -2.897  0.00  0.00     0.163 HD
HETATM    4  O           1     -19.806  -8.247  -4.035  0.00  0.00    -0.271 OA
ENDROOT
BRANCH   2   5
HETATM    5  C           1     -21.639  -7.317  -5.188  0.00  0.00     0.275 C 
BRANCH   5   6
HETATM    6  C           1     -20.577  -6.606  -6.016  0.00  0.00     0.053 C 
BRANCH   6   7
HETATM    7  C           1     -20.620  -5.113  -5.723  0.00  0.00     0.076 C 
BRANCH   7   8
HETATM    8  S           1     -20.561  -4.187  -7.283  0.00  0.00    -0.173 SA
HETATM    9  C           1     -22.345  -4.240  -7.614  0.00  0.00     0.089 C 
ENDBRANCH   7   8
ENDBRANCH   6   7
ENDBRANCH   5   6
BRANCH   5  10
HETATM   10  N           1     -22.640  -6.315  -4.694  0.00  0.00    -0.066 N 
HETATM   11  H           1     -23.249  -6.010  -5.486  0.00  0.00     0.275 HD
HETATM   12  H           1     -23.231  -6.752  -3.950  0.00  0.00     0.275 HD
HETATM   13  H           1     -22.139  -5.487  -4.301  0.00  0.00     0.275 HD
ENDBRANCH   5  10
ENDBRANCH   2   5
BRANCH   1  14
HETATM   14  C           1     -21.110  -8.995  -1.785  0.00  0.00     0.195 C 
BRANCH  14  15
HETATM   15  C           1     -21.133  -8.063  -0.582  0.00  0.00     0.149 C 
BRANCH  15  16
HETATM   16  C           1     -22.367  -7.194  -0.641  0.00  0.00     0.175 C 
HETATM   17  O           1     -22.357  -6.139  -1.311  0.00  0.00    -0.648 OA
HETATM   18  O           1     -23.399  -7.531  -0.021  0.00  0.00    -0.648 OA
ENDBRANCH  15  16
ENDBRANCH  14  15
BRANCH  14  19
HETATM   19  C           1     -21.866 -10.260  -1.457  0.00  0.00     0.197 C 
HETATM   20  O           1     -21.844 -10.717  -0.294  0.00  0.00    -0.646 OA
HETATM   21  O           1     -22.514 -10.850  -2.347  0.00  0.00    -0.646 OA
ENDBRANCH  14  19
ENDBRANCH   1  14
TORSDOF 9
ENDMDL
MODEL 8
REMARK VINA RESULT:      -4.8     13.974     16.451
REMARK  9 active torsions:
REMARK  status: ('A' for Active; 'I' for Inactive)
REMARK    1  A    between atoms: C_2  and  C_15 
REMARK    2  A    between atoms: C_2  and  C_3 
REMARK    3  A    between atoms: C_3  and  C_10 
REMARK    4  A    between atoms: C_3  and  N_4 
REMARK       I    between atoms: N_4  and  C_5 
REMARK    5  A    between atoms: C_5  and  C_6 
REMARK    6  A    between atoms: C_6  and  C_17 
REMARK    7  A    between atoms: C_6  and  N_18 
REMARK    8  A    between atoms: S_12  and  C_16 
REMARK    9  A    between atoms: C_16  and  C_17 
ROOT
HETATM    1  N           1     -21.236  -6.075  -5.994  0.00  0.00    -0.344 N 
HETATM    2  C           1     -20.672  -4.846  -6.205  0.00  0.00     0.249 C 
HETATM    3  H           1     -21.916  -6.439  -6.649  0.00  0.00     0.163 HD
HETATM    4  O           1     -19.859  -4.412  -5.424  0.00  0.00    -0.271 OA
ENDROOT
BRANCH   2   5
HETATM    5  C           1     -21.066  -4.032  -7.412  0.00  0.00     0.275 C 
BRANCH   5   6
HETATM    6  C           1     -22.531  -4.285  -7.741  0.00  0.00     0.053 C 
BRANCH   6   7
HETATM    7  C           1     -22.727  -4.251  -9.250  0.00  0.00     0.076 C 
BRANCH   7   8
HETATM    8  S           1     -24.358  -3.551  -9.634  0.00  0.00    -0.173 SA
HETATM    9  C           1     -24.025  -3.223 -11.388  0.00  0.00     0.089 C 
ENDBRANCH   7   8
ENDBRANCH   6   7
ENDBRANCH   5   6
BRANCH   5  10
HETATM   10  N           1     -20.216  -4.432  -8.582  0.00  0.00    -0.066 N 
HETATM   11  H           1     -19.240  -4.086  -8.438  0.00  0.00     0.275 HD
HETATM   12  H           1     -20.207  -5.474  -8.665  0.00  0.00     0.275 HD
HETATM   13  H           1     -20.608  -4.014  -9.456  0.00  0.00     0.275 HD
ENDBRANCH   5  10
ENDBRANCH   2   5
BRANCH   1  14
HETATM   14  C           1     -20.857  -6.857  -4.833  0.00  0.00     0.195 C 
BRANCH  14  15
HETATM   15  C           1     -22.066  -7.031  -3.923  0.00  0.00     0.149 C 
BRANCH  15  16
HETATM   16  C           1     -21.679  -6.697  -2.503  0.00  0.00     0.175 C 
HETATM   17  O           1     -22.220  -5.733  -1.919  0.00  0.00    -0.648 OA
HETATM   18  O           1     -20.819  -7.384  -1.911  0.00  0.00    -0.648 OA
ENDBRANCH  15  16
ENDBRANCH  14  15
BRANCH  14  19
HETATM   19  C           1     -20.363  -8.211  -5.279  0.00  0.00     0.197 C 
HETATM   20  O           1     -19.223  -8.601  -4.948  0.00  0.00    -0.646 OA
HETATM   21  O           1     -21.094  -8.944  -5.979  0.00  0.00    -0.646 OA
ENDBRANCH  14  19
ENDBRANCH   1  14
TORSDOF 9
ENDMDL
MODEL 9
REMARK VINA RESULT:      -4.7     16.219     18.329
REMARK  9 active torsions:
REMARK  status: ('A' for Active; 'I' for Inactive)
REMARK    1  A    between atoms: C_2  and  C_15 
REMARK    2  A    between atoms: C_2  and  C_3 
REMARK    3  A    between atoms: C_3  and  C_10 
REMARK    4  A    between atoms: C_3  and  N_4 
REMARK       I    between atoms: N_4  and  C_5 
REMARK    5  A    between atoms: C_5  and  C_6 
REMARK    6  A    between atoms: C_6  and  C_17 
REMARK    7  A    between atoms: C_6  and  N_18 
REMARK    8  A    between atoms: S_12  and  C_16 
REMARK    9  A    between atoms: C_16  and  C_17 
ROOT
HETATM    1  N           1     -21.322  -8.662  -2.416  0.00  0.00    -0.344 N 
HETATM    2  C           1     -20.291  -8.476  -3.297  0.00  0.00     0.249 C 
HETATM    3  H           1     -22.243  -8.305  -2.634  0.00  0.00     0.163 HD
HETATM    4  O           1     -19.191  -8.903  -3.038  0.00  0.00    -0.271 OA
ENDROOT
BRANCH   2   5
HETATM    5  C           1     -20.528  -7.740  -4.593  0.00  0.00     0.275 C 
BRANCH   5   6
HETATM    6  C           1     -21.524  -6.612  -4.362  0.00  0.00     0.053 C 
BRANCH   6   7
HETATM    7  C           1     -21.760  -5.867  -5.668  0.00  0.00     0.076 C 
BRANCH   7   8
HETATM    8  S           1     -20.356  -4.765  -6.000  0.00  0.00    -0.173 SA
HETATM    9  C           1     -21.208  -3.716  -7.212  0.00  0.00     0.089 C 
ENDBRANCH   7   8
ENDBRANCH   6   7
ENDBRANCH   5   6
BRANCH   5  10
HETATM   10  N           1     -21.078  -8.691  -5.613  0.00  0.00    -0.066 N 
HETATM   11  H           1     -20.654  -8.486  -6.546  0.00  0.00     0.275 HD
HETATM   12  H           1     -20.848  -9.672  -5.335  0.00  0.00     0.275 HD
HETATM   13  H           1     -22.115  -8.578  -5.671  0.00  0.00     0.275 HD
ENDBRANCH   5  10
ENDBRANCH   2   5
BRANCH   1  14
HETATM   14  C           1     -21.094  -9.370  -1.172  0.00  0.00     0.195 C 
BRANCH  14  15
HETATM   15  C           1     -21.222  -8.399  -0.006  0.00  0.00     0.149 C 
BRANCH  15  16
HETATM   16  C           1     -22.541  -7.672  -0.098  0.00  0.00     0.175 C 
HETATM   17  O           1     -23.492  -8.006   0.641  0.00  0.00    -0.648 OA
HETATM   18  O           1     -22.683  -6.735  -0.914  0.00  0.00    -0.648 OA
ENDBRANCH  15  16
ENDBRANCH  14  15
BRANCH  14  19
HETATM   19  C           1     -22.116 -10.470  -1.025  0.00  0.00     0.197 C 
HETATM   20  O           1     -22.936 -10.688  -1.942  0.00  0.00    -0.646 OA
HETATM   21  O           1     -22.142 -11.165   0.014  0.00  0.00    -0.646 OA
ENDBRANCH  14  19
ENDBRANCH   1  14
TORSDOF 9
ENDMDL
