MODEL 1
REMARK VINA RESULT:      -7.0      0.000      0.000
REMARK  11 active torsions:
REMARK  status: ('A' for Active; 'I' for Inactive)
REMARK    1  A    between atoms: C_2  and  C_3 
REMARK    2  A    between atoms: C_2  and  O_15 
REMARK    3  A    between atoms: C_3  and  C_10 
REMARK    4  A    between atoms: C_3  and  N_19 
REMARK    5  A    between atoms: O_7  and  P_14 
REMARK    6  A    between atoms: P_14  and  O_15 
REMARK    7  A    between atoms: N_16  and  C_21 
REMARK       I    between atoms: N_19  and  C_20 
REMARK    8  A    between atoms: C_20  and  C_21 
REMARK    9  A    between atoms: C_21  and  C_22 
REMARK   10  A    between atoms: C_22  and  C_23 
REMARK   11  A    between atoms: C_23  and  C_24 
ROOT
HETATM    1  O           1     -21.741  -3.530  -7.416  0.00  0.00    -0.271 OA
HETATM    2  H           1     -22.271  -5.772  -9.546  0.00  0.00     0.163 HD
HETATM    3  N           1     -22.271  -4.843  -9.143  0.00  0.00    -0.343 N 
HETATM    4  C           1     -21.742  -4.638  -7.897  0.00  0.00     0.249 C 
ENDROOT
BRANCH   3   5
HETATM    5  C           1     -22.832  -3.731  -9.884  0.00  0.00     0.210 C 
BRANCH   5   6
HETATM    6  C           1     -22.416  -3.836 -11.347  0.00  0.00     0.217 C 
BRANCH   6   7
HETATM    7  O           1     -22.787  -2.665 -12.024  0.00  0.00    -0.287 OA
BRANCH   7   8
HETATM    8  P           1     -23.462  -2.872 -13.477  0.00  0.00     0.406 P 
HETATM    9  O           1     -24.358  -4.049 -13.442  0.00  0.00    -0.624 OA
HETATM   10  O           1     -24.243  -1.667 -13.835  0.00  0.00    -0.624 OA
BRANCH   8  11
HETATM   11  O           1     -22.304  -3.108 -14.578  0.00  0.00    -0.300 OA
HETATM   12  H           1     -21.514  -2.790 -14.173  0.00  0.00     0.223 HD
ENDBRANCH   8  11
ENDBRANCH   7   8
ENDBRANCH   6   7
ENDBRANCH   5   6
BRANCH   5  13
HETATM   13  C           1     -24.337  -3.769  -9.785  0.00  0.00     0.198 C 
HETATM   14  O           1     -24.974  -2.723  -9.538  0.00  0.00    -0.646 OA
HETATM   15  O           1     -24.947  -4.848  -9.952  0.00  0.00    -0.646 OA
ENDBRANCH   5  13
ENDBRANCH   3   5
BRANCH   4  16
HETATM   16  C           1     -21.158  -5.796  -7.125  0.00  0.00     0.275 C 
BRANCH  16  17
HETATM   17  N           1     -19.740  -6.022  -7.559  0.00  0.00    -0.066 N 
HETATM   18  H           1     -19.112  -5.993  -6.724  0.00  0.00     0.275 HD
HETATM   19  H           1     -19.459  -5.275  -8.233  0.00  0.00     0.275 HD
HETATM   20  H           1     -19.662  -6.956  -8.022  0.00  0.00     0.275 HD
ENDBRANCH  16  17
BRANCH  16  21
HETATM   21  C           1     -21.188  -5.480  -5.636  0.00  0.00     0.053 C 
BRANCH  21  22
HETATM   22  C           1     -22.207  -6.378  -4.946  0.00  0.00     0.115 C 
BRANCH  22  23
HETATM   23  C           1     -21.817  -6.566  -3.501  0.00  0.00     0.172 C 
HETATM   24  O           1     -22.412  -5.928  -2.604  0.00  0.00    -0.648 OA
HETATM   25  O           1     -20.898  -7.358  -3.199  0.00  0.00    -0.648 OA
ENDBRANCH  22  23
ENDBRANCH  21  22
ENDBRANCH  16  21
ENDBRANCH   4  16
TORSDOF 11
ENDMDL
MODEL 2
REMARK VINA RESULT:      -6.2      9.728     12.789
REMARK  11 active torsions:
REMARK  status: ('A' for Active; 'I' for Inactive)
REMARK    1  A    between atoms: C_2  and  C_3 
REMARK    2  A    between atoms: C_2  and  O_15 
REMARK    3  A    between atoms: C_3  and  C_10 
REMARK    4  A    between atoms: C_3  and  N_19 
REMARK    5  A    between atoms: O_7  and  P_14 
REMARK    6  A    between atoms: P_14  and  O_15 
REMARK    7  A    between atoms: N_16  and  C_21 
REMARK       I    between atoms: N_19  and  C_20 
REMARK    8  A    between atoms: C_20  and  C_21 
REMARK    9  A    between atoms: C_21  and  C_22 
REMARK   10  A    between atoms: C_22  and  C_23 
REMARK   11  A    between atoms: C_23  and  C_24 
ROOT
HETATM    1  O           1     -24.175  -6.305 -19.117  0.00  0.00    -0.271 OA
HETATM    2  H           1     -26.921  -7.813 -18.973  0.00  0.00     0.163 HD
HETATM    3  N           1     -26.192  -7.166 -18.700  0.00  0.00    -0.343 N 
HETATM    4  C           1     -25.045  -7.076 -19.442  0.00  0.00     0.249 C 
ENDROOT
BRANCH   3   5
HETATM    5  C           1     -26.361  -6.337 -17.523  0.00  0.00     0.210 C 
BRANCH   5   6
HETATM    6  C           1     -27.825  -5.931 -17.395  0.00  0.00     0.217 C 
BRANCH   6   7
HETATM    7  O           1     -28.565  -6.522 -18.428  0.00  0.00    -0.287 OA
BRANCH   7   8
HETATM    8  P           1     -29.741  -7.530 -17.968  0.00  0.00     0.406 P 
HETATM    9  O           1     -30.906  -6.747 -17.497  0.00  0.00    -0.624 OA
HETATM   10  O           1     -30.145  -8.375 -19.114  0.00  0.00    -0.624 OA
BRANCH   8  11
HETATM   11  O           1     -29.204  -8.471 -16.771  0.00  0.00    -0.300 OA
HETATM   12  H           1     -28.266  -8.472 -16.863  0.00  0.00     0.223 HD
ENDBRANCH   8  11
ENDBRANCH   7   8
ENDBRANCH   6   7
ENDBRANCH   5   6
BRANCH   5  13
HETATM   13  C           1     -25.946  -7.113 -16.298  0.00  0.00     0.198 C 
HETATM   14  O           1     -24.758  -7.479 -16.162  0.00  0.00    -0.646 OA
HETATM   15  O           1     -26.790  -7.390 -15.418  0.00  0.00    -0.646 OA
ENDBRANCH   5  13
ENDBRANCH   3   5
BRANCH   4  16
HETATM   16  C           1     -24.869  -7.939 -20.667  0.00  0.00     0.275 C 
BRANCH  16  17
HETATM   17  N           1     -26.215  -8.358 -21.181  0.00  0.00    -0.066 N 
HETATM   18  H           1     -26.574  -7.634 -21.843  0.00  0.00     0.275 HD
HETATM   19  H           1     -26.877  -8.459 -20.379  0.00  0.00     0.275 HD
HETATM   20  H           1     -26.128  -9.273 -21.679  0.00  0.00     0.275 HD
ENDBRANCH  16  17
BRANCH  16  21
HETATM   21  C           1     -24.137  -7.150 -21.744  0.00  0.00     0.053 C 
BRANCH  21  22
HETATM   22  C           1     -23.549  -8.111 -22.768  0.00  0.00     0.115 C 
BRANCH  22  23
HETATM   23  C           1     -22.312  -8.760 -22.197  0.00  0.00     0.172 C 
HETATM   24  O           1     -21.848  -8.368 -21.103  0.00  0.00    -0.648 OA
HETATM   25  O           1     -21.751  -9.690 -22.816  0.00  0.00    -0.648 OA
ENDBRANCH  22  23
ENDBRANCH  21  22
ENDBRANCH  16  21
ENDBRANCH   4  16
TORSDOF 11
ENDMDL
MODEL 3
REMARK VINA RESULT:      -6.0      2.537      4.375
REMARK  11 active torsions:
REMARK  status: ('A' for Active; 'I' for Inactive)
REMARK    1  A    between atoms: C_2  and  C_3 
REMARK    2  A    between atoms: C_2  and  O_15 
REMARK    3  A    between atoms: C_3  and  C_10 
REMARK    4  A    between atoms: C_3  and  N_19 
REMARK    5  A    between atoms: O_7  and  P_14 
REMARK    6  A    between atoms: P_14  and  O_15 
REMARK    7  A    between atoms: N_16  and  C_21 
REMARK       I    between atoms: N_19  and  C_20 
REMARK    8  A    between atoms: C_20  and  C_21 
REMARK    9  A    between atoms: C_21  and  C_22 
REMARK   10  A    between atoms: C_22  and  C_23 
REMARK   11  A    between atoms: C_23  and  C_24 
ROOT
HETATM    1  O           1     -20.630  -7.833  -5.993  0.00  0.00    -0.271 OA
HETATM    2  H           1     -22.181  -5.214  -5.234  0.00  0.00     0.163 HD
HETATM    3  N           1     -21.611  -5.838  -5.792  0.00  0.00    -0.343 N 
HETATM    4  C           1     -21.310  -7.090  -5.327  0.00  0.00     0.249 C 
ENDROOT
BRANCH   3   5
HETATM    5  C           1     -21.111  -5.404  -7.082  0.00  0.00     0.210 C 
BRANCH   5   6
HETATM    6  C           1     -22.109  -4.440  -7.714  0.00  0.00     0.217 C 
BRANCH   6   7
HETATM    7  O           1     -22.106  -4.610  -9.105  0.00  0.00    -0.287 OA
BRANCH   7   8
HETATM    8  P           1     -23.444  -4.139  -9.878  0.00  0.00     0.406 P 
HETATM    9  O           1     -23.096  -3.114 -10.887  0.00  0.00    -0.624 OA
HETATM   10  O           1     -24.062  -5.304 -10.551  0.00  0.00    -0.624 OA
BRANCH   8  11
HETATM   11  O           1     -24.488  -3.519  -8.814  0.00  0.00    -0.300 OA
HETATM   12  H           1     -24.145  -2.667  -8.604  0.00  0.00     0.223 HD
ENDBRANCH   8  11
ENDBRANCH   7   8
ENDBRANCH   6   7
ENDBRANCH   5   6
BRANCH   5  13
HETATM   13  C           1     -19.786  -4.707  -6.899  0.00  0.00     0.198 C 
HETATM   14  O           1     -19.353  -4.478  -5.748  0.00  0.00    -0.646 OA
HETATM   15  O           1     -19.120  -4.358  -7.898  0.00  0.00    -0.646 OA
ENDBRANCH   5  13
ENDBRANCH   3   5
BRANCH   4  16
HETATM   16  C           1     -21.831  -7.542  -3.985  0.00  0.00     0.275 C 
BRANCH  16  17
HETATM   17  N           1     -21.485  -8.986  -3.774  0.00  0.00    -0.066 N 
HETATM   18  H           1     -20.543  -9.181  -4.184  0.00  0.00     0.275 HD
HETATM   19  H           1     -22.200  -9.587  -4.242  0.00  0.00     0.275 HD
HETATM   20  H           1     -21.470  -9.195  -2.750  0.00  0.00     0.275 HD
ENDBRANCH  16  17
BRANCH  16  21
HETATM   21  C           1     -21.195  -6.702  -2.885  0.00  0.00     0.053 C 
BRANCH  21  22
HETATM   22  C           1     -22.258  -6.303  -1.870  0.00  0.00     0.115 C 
BRANCH  22  23
HETATM   23  C           1     -22.271  -7.299  -0.737  0.00  0.00     0.172 C 
HETATM   24  O           1     -21.310  -8.086  -0.585  0.00  0.00    -0.648 OA
HETATM   25  O           1     -23.241  -7.337   0.051  0.00  0.00    -0.648 OA
ENDBRANCH  22  23
ENDBRANCH  21  22
ENDBRANCH  16  21
ENDBRANCH   4  16
TORSDOF 11
ENDMDL
MODEL 4
REMARK VINA RESULT:      -5.9      2.496      3.896
REMARK  11 active torsions:
REMARK  status: ('A' for Active; 'I' for Inactive)
REMARK    1  A    between atoms: C_2  and  C_3 
REMARK    2  A    between atoms: C_2  and  O_15 
REMARK    3  A    between atoms: C_3  and  C_10 
REMARK    4  A    between atoms: C_3  and  N_19 
REMARK    5  A    between atoms: O_7  and  P_14 
REMARK    6  A    between atoms: P_14  and  O_15 
REMARK    7  A    between atoms: N_16  and  C_21 
REMARK       I    between atoms: N_19  and  C_20 
REMARK    8  A    between atoms: C_20  and  C_21 
REMARK    9  A    between atoms: C_21  and  C_22 
REMARK   10  A    between atoms: C_22  and  C_23 
REMARK   11  A    between atoms: C_23  and  C_24 
ROOT
HETATM    1  O           1     -21.246  -7.474  -6.539  0.00  0.00    -0.271 OA
HETATM    2  H           1     -21.239  -4.485  -5.590  0.00  0.00     0.163 HD
HETATM    3  N           1     -21.290  -5.263  -6.235  0.00  0.00    -0.343 N 
HETATM    4  C           1     -21.185  -6.546  -5.769  0.00  0.00     0.249 C 
ENDROOT
BRANCH   3   5
HETATM    5  C           1     -21.472  -5.019  -7.653  0.00  0.00     0.210 C 
BRANCH   5   6
HETATM    6  C           1     -22.387  -3.815  -7.846  0.00  0.00     0.217 C 
BRANCH   6   7
HETATM    7  O           1     -23.615  -4.241  -8.371  0.00  0.00    -0.287 OA
BRANCH   7   8
HETATM    8  P           1     -23.814  -4.035  -9.961  0.00  0.00     0.406 P 
HETATM    9  O           1     -23.922  -5.355 -10.620  0.00  0.00    -0.624 OA
HETATM   10  O           1     -25.049  -3.257 -10.208  0.00  0.00    -0.624 OA
BRANCH   8  11
HETATM   11  O           1     -22.547  -3.233 -10.561  0.00  0.00    -0.300 OA
HETATM   12  H           1     -22.035  -2.989  -9.810  0.00  0.00     0.223 HD
ENDBRANCH   8  11
ENDBRANCH   7   8
ENDBRANCH   6   7
ENDBRANCH   5   6
BRANCH   5  13
HETATM   13  C           1     -20.134  -4.740  -8.291  0.00  0.00     0.198 C 
HETATM   14  O           1     -20.015  -4.774  -9.535  0.00  0.00    -0.646 OA
HETATM   15  O           1     -19.143  -4.476  -7.575  0.00  0.00    -0.646 OA
ENDBRANCH   5  13
ENDBRANCH   3   5
BRANCH   4  16
HETATM   16  C           1     -20.995  -6.800  -4.294  0.00  0.00     0.275 C 
BRANCH  16  17
HETATM   17  N           1     -22.114  -6.160  -3.528  0.00  0.00    -0.066 N 
HETATM   18  H           1     -21.735  -5.379  -2.947  0.00  0.00     0.275 HD
HETATM   19  H           1     -22.563  -6.871  -2.908  0.00  0.00     0.275 HD
HETATM   20  H           1     -22.824  -5.784  -4.197  0.00  0.00     0.275 HD
ENDBRANCH  16  17
BRANCH  16  21
HETATM   21  C           1     -20.994  -8.300  -4.033  0.00  0.00     0.053 C 
BRANCH  21  22
HETATM   22  C           1     -20.063  -8.613  -2.869  0.00  0.00     0.115 C 
BRANCH  22  23
HETATM   23  C           1     -20.876  -9.058  -1.679  0.00  0.00     0.172 C 
HETATM   24  O           1     -21.988  -8.533  -1.450  0.00  0.00    -0.648 OA
HETATM   25  O           1     -20.440  -9.952  -0.922  0.00  0.00    -0.648 OA
ENDBRANCH  22  23
ENDBRANCH  21  22
ENDBRANCH  16  21
ENDBRANCH   4  16
TORSDOF 11
ENDMDL
MODEL 5
REMARK VINA RESULT:      -5.8      3.859      8.873
REMARK  11 active torsions:
REMARK  status: ('A' for Active; 'I' for Inactive)
REMARK    1  A    between atoms: C_2  and  C_3 
REMARK    2  A    between atoms: C_2  and  O_15 
REMARK    3  A    between atoms: C_3  and  C_10 
REMARK    4  A    between atoms: C_3  and  N_19 
REMARK    5  A    between atoms: O_7  and  P_14 
REMARK    6  A    between atoms: P_14  and  O_15 
REMARK    7  A    between atoms: N_16  and  C_21 
REMARK       I    between atoms: N_19  and  C_20 
REMARK    8  A    between atoms: C_20  and  C_21 
REMARK    9  A    between atoms: C_21  and  C_22 
REMARK   10  A    between atoms: C_22  and  C_23 
REMARK   11  A    between atoms: C_23  and  C_24 
ROOT
HETATM    1  O           1     -20.447  -5.043  -6.127  0.00  0.00    -0.271 OA
HETATM    2  H           1     -23.099  -6.362  -5.095  0.00  0.00     0.163 HD
HETATM    3  N           1     -22.121  -6.105  -5.098  0.00  0.00    -0.343 N 
HETATM    4  C           1     -21.615  -5.351  -6.123  0.00  0.00     0.249 C 
ENDROOT
BRANCH   3   5
HETATM    5  C           1     -21.254  -6.535  -4.019  0.00  0.00     0.210 C 
BRANCH   5   6
HETATM    6  C           1     -22.016  -6.472  -2.701  0.00  0.00     0.217 C 
BRANCH   6   7
HETATM    7  O           1     -21.220  -7.000  -1.674  0.00  0.00    -0.287 OA
BRANCH   7   8
HETATM    8  P           1     -21.968  -7.982  -0.633  0.00  0.00     0.406 P 
HETATM    9  O           1     -21.067  -8.274   0.504  0.00  0.00    -0.624 OA
HETATM   10  O           1     -23.198  -7.328  -0.133  0.00  0.00    -0.624 OA
BRANCH   8  11
HETATM   11  O           1     -22.358  -9.360  -1.380  0.00  0.00    -0.300 OA
HETATM   12  H           1     -22.838  -9.857  -0.739  0.00  0.00     0.223 HD
ENDBRANCH   8  11
ENDBRANCH   7   8
ENDBRANCH   6   7
ENDBRANCH   5   6
BRANCH   5  13
HETATM   13  C           1     -20.803  -7.953  -4.272  0.00  0.00     0.198 C 
HETATM   14  O           1     -21.631  -8.888  -4.236  0.00  0.00    -0.646 OA
HETATM   15  O           1     -19.600  -8.192  -4.516  0.00  0.00    -0.646 OA
ENDBRANCH   5  13
ENDBRANCH   3   5
BRANCH   4  16
HETATM   16  C           1     -22.517  -4.903  -7.247  0.00  0.00     0.275 C 
BRANCH  16  17
HETATM   17  N           1     -23.858  -4.525  -6.691  0.00  0.00    -0.066 N 
HETATM   18  H           1     -24.495  -5.353  -6.728  0.00  0.00     0.275 HD
HETATM   19  H           1     -24.263  -3.746  -7.258  0.00  0.00     0.275 HD
HETATM   20  H           1     -23.749  -4.213  -5.699  0.00  0.00     0.275 HD
ENDBRANCH  16  17
BRANCH  16  21
HETATM   21  C           1     -21.900  -3.698  -7.944  0.00  0.00     0.053 C 
BRANCH  21  22
HETATM   22  C           1     -21.930  -3.913  -9.452  0.00  0.00     0.115 C 
BRANCH  22  23
HETATM   23  C           1     -23.358  -4.088  -9.907  0.00  0.00     0.172 C 
HETATM   24  O           1     -24.225  -3.247  -9.583  0.00  0.00    -0.648 OA
HETATM   25  O           1     -23.674  -5.074 -10.608  0.00  0.00    -0.648 OA
ENDBRANCH  22  23
ENDBRANCH  21  22
ENDBRANCH  16  21
ENDBRANCH   4  16
TORSDOF 11
ENDMDL
MODEL 6
REMARK VINA RESULT:      -5.6      3.482      8.041
REMARK  11 active torsions:
REMARK  status: ('A' for Active; 'I' for Inactive)
REMARK    1  A    between atoms: C_2  and  C_3 
REMARK    2  A    between atoms: C_2  and  O_15 
REMARK    3  A    between atoms: C_3  and  C_10 
REMARK    4  A    between atoms: C_3  and  N_19 
REMARK    5  A    between atoms: O_7  and  P_14 
REMARK    6  A    between atoms: P_14  and  O_15 
REMARK    7  A    between atoms: N_16  and  C_21 
REMARK       I    between atoms: N_19  and  C_20 
REMARK    8  A    between atoms: C_20  and  C_21 
REMARK    9  A    between atoms: C_21  and  C_22 
REMARK   10  A    between atoms: C_22  and  C_23 
REMARK   11  A    between atoms: C_23  and  C_24 
ROOT
HETATM    1  O           1     -22.584  -5.926  -5.390  0.00  0.00    -0.271 OA
HETATM    2  H           1     -19.868  -6.963  -4.213  0.00  0.00     0.163 HD
HETATM    3  N           1     -20.870  -6.863  -4.307  0.00  0.00    -0.343 N 
HETATM    4  C           1     -21.388  -6.046  -5.277  0.00  0.00     0.249 C 
ENDROOT
BRANCH   3   5
HETATM    5  C           1     -21.759  -7.582  -3.415  0.00  0.00     0.210 C 
BRANCH   5   6
HETATM    6  C           1     -21.264  -9.014  -3.253  0.00  0.00     0.217 C 
BRANCH   6   7
HETATM    7  O           1     -21.691  -9.782  -4.346  0.00  0.00    -0.287 OA
BRANCH   7   8
HETATM    8  P           1     -20.524 -10.374  -5.294  0.00  0.00     0.406 P 
HETATM    9  O           1     -19.773 -11.417  -4.560  0.00  0.00    -0.624 OA
HETATM   10  O           1     -21.127 -10.964  -6.510  0.00  0.00    -0.624 OA
BRANCH   8  11
HETATM   11  O           1     -19.520  -9.182  -5.717  0.00  0.00    -0.300 OA
HETATM   12  H           1     -18.852  -9.598  -6.235  0.00  0.00     0.223 HD
ENDBRANCH   8  11
ENDBRANCH   7   8
ENDBRANCH   6   7
ENDBRANCH   5   6
BRANCH   5  13
HETATM   13  C           1     -21.777  -6.901  -2.069  0.00  0.00     0.198 C 
HETATM   14  O           1     -21.363  -7.506  -1.056  0.00  0.00    -0.646 OA
HETATM   15  O           1     -22.208  -5.732  -1.965  0.00  0.00    -0.646 OA
ENDBRANCH   5  13
ENDBRANCH   3   5
BRANCH   4  16
HETATM   16  C           1     -20.463  -5.297  -6.205  0.00  0.00     0.275 C 
BRANCH  16  17
HETATM   17  N           1     -19.827  -6.262  -7.162  0.00  0.00    -0.066 N 
HETATM   18  H           1     -20.415  -6.336  -8.023  0.00  0.00     0.275 HD
HETATM   19  H           1     -19.750  -7.200  -6.709  0.00  0.00     0.275 HD
HETATM   20  H           1     -18.873  -5.920  -7.419  0.00  0.00     0.275 HD
ENDBRANCH  16  17
BRANCH  16  21
HETATM   21  C           1     -21.258  -4.259  -6.985  0.00  0.00     0.053 C 
BRANCH  21  22
HETATM   22  C           1     -21.313  -4.658  -8.454  0.00  0.00     0.115 C 
BRANCH  22  23
HETATM   23  C           1     -22.498  -3.996  -9.112  0.00  0.00     0.172 C 
HETATM   24  O           1     -23.624  -4.044  -8.567  0.00  0.00    -0.648 OA
HETATM   25  O           1     -22.356  -3.399 -10.201  0.00  0.00    -0.648 OA
ENDBRANCH  22  23
ENDBRANCH  21  22
ENDBRANCH  16  21
ENDBRANCH   4  16
TORSDOF 11
ENDMDL
MODEL 7
REMARK VINA RESULT:      -5.5      6.288      8.461
REMARK  11 active torsions:
REMARK  status: ('A' for Active; 'I' for Inactive)
REMARK    1  A    between atoms: C_2  and  C_3 
REMARK    2  A    between atoms: C_2  and  O_15 
REMARK    3  A    between atoms: C_3  and  C_10 
REMARK    4  A    between atoms: C_3  and  N_19 
REMARK    5  A    between atoms: O_7  and  P_14 
REMARK    6  A    between atoms: P_14  and  O_15 
REMARK    7  A    between atoms: N_16  and  C_21 
REMARK       I    between atoms: N_19  and  C_20 
REMARK    8  A    between atoms: C_20  and  C_21 
REMARK    9  A    between atoms: C_21  and  C_22 
REMARK   10  A    between atoms: C_22  and  C_23 
REMARK   11  A    between atoms: C_23  and  C_24 
ROOT
HETATM    1  O           1     -19.207  -9.563  -1.998  0.00  0.00    -0.271 OA
HETATM    2  H           1     -22.216  -9.289  -1.154  0.00  0.00     0.163 HD
HETATM    3  N           1     -21.336  -9.032  -1.582  0.00  0.00    -0.343 N 
HETATM    4  C           1     -20.257  -9.870  -1.487  0.00  0.00     0.249 C 
ENDROOT
BRANCH   3   5
HETATM    5  C           1     -21.216  -7.775  -2.294  0.00  0.00     0.210 C 
BRANCH   5   6
HETATM    6  C           1     -21.575  -7.987  -3.761  0.00  0.00     0.217 C 
BRANCH   6   7
HETATM    7  O           1     -20.598  -7.392  -4.572  0.00  0.00    -0.287 OA
BRANCH   7   8
HETATM    8  P           1     -21.117  -6.230  -5.566  0.00  0.00     0.406 P 
HETATM    9  O           1     -20.354  -4.987  -5.315  0.00  0.00    -0.624 OA
HETATM   10  O           1     -20.919  -6.655  -6.970  0.00  0.00    -0.624 OA
BRANCH   8  11
HETATM   11  O           1     -22.688  -5.960  -5.305  0.00  0.00    -0.300 OA
HETATM   12  H           1     -22.839  -6.239  -4.418  0.00  0.00     0.223 HD
ENDBRANCH   8  11
ENDBRANCH   7   8
ENDBRANCH   6   7
ENDBRANCH   5   6
BRANCH   5  13
HETATM   13  C           1     -22.156  -6.762  -1.688  0.00  0.00     0.198 C 
HETATM   14  O           1     -22.371  -5.679  -2.274  0.00  0.00    -0.646 OA
HETATM   15  O           1     -22.721  -7.007  -0.600  0.00  0.00    -0.646 OA
ENDBRANCH   5  13
ENDBRANCH   3   5
BRANCH   4  16
HETATM   16  C           1     -20.382 -11.178  -0.746  0.00  0.00     0.275 C 
BRANCH  16  17
HETATM   17  N           1     -19.015 -11.682  -0.387  0.00  0.00    -0.066 N 
HETATM   18  H           1     -18.999 -11.955   0.621  0.00  0.00     0.275 HD
HETATM   19  H           1     -18.312 -10.929  -0.557  0.00  0.00     0.275 HD
HETATM   20  H           1     -18.784 -12.514  -0.977  0.00  0.00     0.275 HD
ENDBRANCH  16  17
BRANCH  16  21
HETATM   21  C           1     -21.194 -10.967   0.525  0.00  0.00     0.053 C 
BRANCH  21  22
HETATM   22  C           1     -22.326 -11.985   0.580  0.00  0.00     0.115 C 
BRANCH  22  23
HETATM   23  C           1     -23.514 -11.459  -0.188  0.00  0.00     0.172 C 
HETATM   24  O           1     -24.207 -12.239  -0.878  0.00  0.00    -0.648 OA
HETATM   25  O           1     -23.805 -10.244  -0.135  0.00  0.00    -0.648 OA
ENDBRANCH  22  23
ENDBRANCH  21  22
ENDBRANCH  16  21
ENDBRANCH   4  16
TORSDOF 11
ENDMDL
MODEL 8
REMARK VINA RESULT:      -5.4      3.723      8.663
REMARK  11 active torsions:
REMARK  status: ('A' for Active; 'I' for Inactive)
REMARK    1  A    between atoms: C_2  and  C_3 
REMARK    2  A    between atoms: C_2  and  O_15 
REMARK    3  A    between atoms: C_3  and  C_10 
REMARK    4  A    between atoms: C_3  and  N_19 
REMARK    5  A    between atoms: O_7  and  P_14 
REMARK    6  A    between atoms: P_14  and  O_15 
REMARK    7  A    between atoms: N_16  and  C_21 
REMARK       I    between atoms: N_19  and  C_20 
REMARK    8  A    between atoms: C_20  and  C_21 
REMARK    9  A    between atoms: C_21  and  C_22 
REMARK   10  A    between atoms: C_22  and  C_23 
REMARK   11  A    between atoms: C_23  and  C_24 
ROOT
HETATM    1  O           1     -20.719  -4.819  -5.598  0.00  0.00    -0.271 OA
HETATM    2  H           1     -21.123  -7.570  -7.051  0.00  0.00     0.163 HD
HETATM    3  N           1     -20.898  -6.932  -6.298  0.00  0.00    -0.343 N 
HETATM    4  C           1     -20.988  -5.580  -6.496  0.00  0.00     0.249 C 
ENDROOT
BRANCH   3   5
HETATM    5  C           1     -20.478  -7.449  -5.010  0.00  0.00     0.210 C 
BRANCH   5   6
HETATM    6  C           1     -21.703  -7.890  -4.218  0.00  0.00     0.217 C 
BRANCH   6   7
HETATM    7  O           1     -21.829  -7.092  -3.071  0.00  0.00    -0.287 OA
BRANCH   7   8
HETATM    8  P           1     -21.536  -7.828  -1.663  0.00  0.00     0.406 P 
HETATM    9  O           1     -22.160  -7.057  -0.564  0.00  0.00    -0.624 OA
HETATM   10  O           1     -22.103  -9.195  -1.692  0.00  0.00    -0.624 OA
BRANCH   8  11
HETATM   11  O           1     -19.941  -7.914  -1.424  0.00  0.00    -0.300 OA
HETATM   12  H           1     -19.747  -8.835  -1.403  0.00  0.00     0.223 HD
ENDBRANCH   8  11
ENDBRANCH   7   8
ENDBRANCH   6   7
ENDBRANCH   5   6
BRANCH   5  13
HETATM   13  C           1     -19.562  -8.630  -5.218  0.00  0.00     0.198 C 
HETATM   14  O           1     -18.780  -8.652  -6.193  0.00  0.00    -0.646 OA
HETATM   15  O           1     -19.586  -9.588  -4.414  0.00  0.00    -0.646 OA
ENDBRANCH   5  13
ENDBRANCH   3   5
BRANCH   4  16
HETATM   16  C           1     -21.424  -5.041  -7.836  0.00  0.00     0.275 C 
BRANCH  16  17
HETATM   17  N           1     -22.602  -4.131  -7.650  0.00  0.00    -0.066 N 
HETATM   18  H           1     -23.453  -4.702  -7.443  0.00  0.00     0.275 HD
HETATM   19  H           1     -22.756  -3.578  -8.523  0.00  0.00     0.275 HD
HETATM   20  H           1     -22.417  -3.480  -6.853  0.00  0.00     0.275 HD
ENDBRANCH  16  17
BRANCH  16  21
HETATM   21  C           1     -20.278  -4.265  -8.470  0.00  0.00     0.053 C 
BRANCH  21  22
HETATM   22  C           1     -20.100  -4.710  -9.915  0.00  0.00     0.115 C 
BRANCH  22  23
HETATM   23  C           1     -21.089  -3.983 -10.792  0.00  0.00     0.172 C 
HETATM   24  O           1     -22.229  -4.462 -10.978  0.00  0.00    -0.648 OA
HETATM   25  O           1     -20.769  -2.902 -11.333  0.00  0.00    -0.648 OA
ENDBRANCH  22  23
ENDBRANCH  21  22
ENDBRANCH  16  21
ENDBRANCH   4  16
TORSDOF 11
ENDMDL
MODEL 9
REMARK VINA RESULT:      -5.3      5.061      9.674
REMARK  11 active torsions:
REMARK  status: ('A' for Active; 'I' for Inactive)
REMARK    1  A    between atoms: C_2  and  C_3 
REMARK    2  A    between atoms: C_2  and  O_15 
REMARK    3  A    between atoms: C_3  and  C_10 
REMARK    4  A    between atoms: C_3  and  N_19 
REMARK    5  A    between atoms: O_7  and  P_14 
REMARK    6  A    between atoms: P_14  and  O_15 
REMARK    7  A    between atoms: N_16  and  C_21 
REMARK       I    between atoms: N_19  and  C_20 
REMARK    8  A    between atoms: C_20  and  C_21 
REMARK    9  A    between atoms: C_21  and  C_22 
REMARK   10  A    between atoms: C_22  and  C_23 
REMARK   11  A    between atoms: C_23  and  C_24 
ROOT
HETATM    1  O           1     -19.767  -8.365  -4.594  0.00  0.00    -0.271 OA
HETATM    2  H           1     -22.514  -8.708  -3.119  0.00  0.00     0.163 HD
HETATM    3  N           1     -21.555  -8.909  -3.373  0.00  0.00    -0.343 N 
HETATM    4  C           1     -20.911  -8.125  -4.292  0.00  0.00     0.249 C 
ENDROOT
BRANCH   3   5
HETATM    5  C           1     -20.864 -10.028  -2.764  0.00  0.00     0.210 C 
BRANCH   5   6
HETATM    6  C           1     -20.918  -9.893  -1.246  0.00  0.00     0.217 C 
BRANCH   6   7
HETATM    7  O           1     -22.212  -9.517  -0.857  0.00  0.00    -0.287 OA
BRANCH   7   8
HETATM    8  P           1     -22.325  -8.147  -0.008  0.00  0.00     0.406 P 
HETATM    9  O           1     -21.295  -8.138   1.054  0.00  0.00    -0.624 OA
HETATM   10  O           1     -22.115  -6.990  -0.908  0.00  0.00    -0.624 OA
BRANCH   8  11
HETATM   11  O           1     -23.791  -8.048   0.660  0.00  0.00    -0.300 OA
HETATM   12  H           1     -23.732  -7.336   1.274  0.00  0.00     0.223 HD
ENDBRANCH   8  11
ENDBRANCH   7   8
ENDBRANCH   6   7
ENDBRANCH   5   6
BRANCH   5  13
HETATM   13  C           1     -21.531 -11.317  -3.177  0.00  0.00     0.198 C 
HETATM   14  O           1     -22.648 -11.291  -3.738  0.00  0.00    -0.646 OA
HETATM   15  O           1     -20.966 -12.411  -2.960  0.00  0.00    -0.646 OA
ENDBRANCH   5  13
ENDBRANCH   3   5
BRANCH   4  16
HETATM   16  C           1     -21.631  -6.960  -4.926  0.00  0.00     0.275 C 
BRANCH  16  17
HETATM   17  N           1     -22.345  -6.176  -3.865  0.00  0.00    -0.066 N 
HETATM   18  H           1     -22.437  -6.761  -3.004  0.00  0.00     0.275 HD
HETATM   19  H           1     -23.295  -5.910  -4.210  0.00  0.00     0.275 HD
HETATM   20  H           1     -21.800  -5.312  -3.644  0.00  0.00     0.275 HD
ENDBRANCH  16  17
BRANCH  16  21
HETATM   21  C           1     -20.622  -6.061  -5.629  0.00  0.00     0.053 C 
BRANCH  21  22
HETATM   22  C           1     -21.090  -5.787  -7.052  0.00  0.00     0.115 C 
BRANCH  22  23
HETATM   23  C           1     -22.000  -4.584  -7.059  0.00  0.00     0.172 C 
HETATM   24  O           1     -21.588  -3.490  -7.505  0.00  0.00    -0.648 OA
HETATM   25  O           1     -23.167  -4.679  -6.620  0.00  0.00    -0.648 OA
ENDBRANCH  22  23
ENDBRANCH  21  22
ENDBRANCH  16  21
ENDBRANCH   4  16
TORSDOF 11
ENDMDL
