MODEL 1
REMARK VINA RESULT:      -6.2      0.000      0.000
REMARK  9 active torsions:
REMARK  status: ('A' for Active; 'I' for Inactive)
REMARK    1  A    between atoms: C_3  and  C_21 
REMARK    2  A    between atoms: C_6  and  C_7 
REMARK    3  A    between atoms: C_6  and  C_21 
REMARK    4  A    between atoms: C_7  and  C_8 
REMARK    5  A    between atoms: C_8  and  C_9 
REMARK    6  A    between atoms: C_9  and  N_15 
REMARK    7  A    between atoms: N_17  and  C_21 
REMARK       I    between atoms: N_17  and  C_18 
REMARK    8  A    between atoms: C_18  and  C_19 
REMARK    9  A    between atoms: C_19  and  N_20 
ROOT
HETATM    1  C           1     -22.885  -3.347 -12.281  0.00  0.00     0.185 C 
ENDROOT
BRANCH   1   2
HETATM    2  C           1     -23.859  -3.889 -11.263  0.00  0.00     0.196 C 
HETATM    3  O           1     -24.529  -3.103 -10.560  0.00  0.00    -0.646 OA
HETATM    4  O           1     -23.994  -5.123 -11.123  0.00  0.00    -0.646 OA
ENDBRANCH   1   2
BRANCH   1   5
HETATM    5  C           1     -21.595  -2.937 -11.582  0.00  0.00     0.036 C 
BRANCH   5   6
HETATM    6  C           1     -20.898  -4.177 -11.037  0.00  0.00     0.004 C 
BRANCH   6   7
HETATM    7  C           1     -20.478  -3.930  -9.594  0.00  0.00     0.027 C 
BRANCH   7   8
HETATM    8  C           1     -21.478  -4.587  -8.653  0.00  0.00     0.229 C 
BRANCH   8   9
HETATM    9  N           1     -22.403  -3.544  -8.098  0.00  0.00    -0.079 N 
HETATM   10  H           1     -22.609  -2.834  -8.837  0.00  0.00     0.274 HD
HETATM   11  H           1     -23.294  -3.995  -7.791  0.00  0.00     0.274 HD
HETATM   12  H           1     -21.950  -3.077  -7.281  0.00  0.00     0.274 HD
ENDBRANCH   8   9
ENDBRANCH   7   8
ENDBRANCH   6   7
ENDBRANCH   5   6
ENDBRANCH   1   5
BRANCH   1  13
HETATM   13  N           1     -23.466  -2.191 -12.937  0.00  0.00    -0.345 N 
HETATM   14  H           1     -23.871  -1.446 -12.385  0.00  0.00     0.163 HD
HETATM   15  C           1     -23.466  -2.109 -14.304  0.00  0.00     0.243 C 
HETATM   16  O           1     -22.984  -2.998 -14.963  0.00  0.00    -0.272 OA
BRANCH  15  17
HETATM   17  C           1     -24.071  -0.907 -14.986  0.00  0.00     0.332 C 
BRANCH  17  18
HETATM   18  N           1     -23.118  -0.386 -16.021  0.00  0.00    -0.071 N 
HETATM   19  H           1     -22.304  -1.037 -16.102  0.00  0.00     0.274 HD
HETATM   20  H           1     -23.606  -0.320 -16.942  0.00  0.00     0.274 HD
HETATM   21  H           1     -22.779   0.561 -15.738  0.00  0.00     0.274 HD
ENDBRANCH  17  18
ENDBRANCH  15  17
ENDBRANCH   1  13
TORSDOF 9
ENDMDL
MODEL 2
REMARK VINA RESULT:      -6.0     11.593     12.596
REMARK  9 active torsions:
REMARK  status: ('A' for Active; 'I' for Inactive)
REMARK    1  A    between atoms: C_3  and  C_21 
REMARK    2  A    between atoms: C_6  and  C_7 
REMARK    3  A    between atoms: C_6  and  C_21 
REMARK    4  A    between atoms: C_7  and  C_8 
REMARK    5  A    between atoms: C_8  and  C_9 
REMARK    6  A    between atoms: C_9  and  N_15 
REMARK    7  A    between atoms: N_17  and  C_21 
REMARK       I    between atoms: N_17  and  C_18 
REMARK    8  A    between atoms: C_18  and  C_19 
REMARK    9  A    between atoms: C_19  and  N_20 
ROOT
HETATM    1  C           1     -35.244  -1.542 -11.276  0.00  0.00     0.185 C 
ENDROOT
BRANCH   1   2
HETATM    2  C           1     -36.371  -1.133 -10.359  0.00  0.00     0.196 C 
HETATM    3  O           1     -36.119  -0.545  -9.285  0.00  0.00    -0.646 OA
HETATM    4  O           1     -37.555  -1.382 -10.672  0.00  0.00    -0.646 OA
ENDBRANCH   1   2
BRANCH   1   5
HETATM    5  C           1     -34.066  -2.032 -10.445  0.00  0.00     0.036 C 
BRANCH   5   6
HETATM    6  C           1     -33.215  -2.981 -11.280  0.00  0.00     0.004 C 
BRANCH   6   7
HETATM    7  C           1     -33.773  -4.394 -11.170  0.00  0.00     0.027 C 
BRANCH   7   8
HETATM    8  C           1     -34.493  -4.758 -12.462  0.00  0.00     0.229 C 
BRANCH   8   9
HETATM    9  N           1     -33.904  -3.977 -13.600  0.00  0.00    -0.079 N 
HETATM   10  H           1     -34.447  -4.170 -14.472  0.00  0.00     0.274 HD
HETATM   11  H           1     -33.947  -2.956 -13.381  0.00  0.00     0.274 HD
HETATM   12  H           1     -32.908  -4.261 -13.739  0.00  0.00     0.274 HD
ENDBRANCH   8   9
ENDBRANCH   7   8
ENDBRANCH   6   7
ENDBRANCH   5   6
ENDBRANCH   1   5
BRANCH   1  13
HETATM   13  N           1     -34.832  -0.403 -12.073  0.00  0.00    -0.345 N 
HETATM   14  H           1     -34.328   0.361 -11.641  0.00  0.00     0.163 HD
HETATM   15  C           1     -35.125  -0.361 -13.409  0.00  0.00     0.243 C 
HETATM   16  O           1     -35.727  -1.272 -13.925  0.00  0.00    -0.272 OA
BRANCH  15  17
HETATM   17  C           1     -34.696   0.825 -14.238  0.00  0.00     0.332 C 
BRANCH  17  18
HETATM   18  N           1     -35.847   1.291 -15.079  0.00  0.00    -0.071 N 
HETATM   19  H           1     -36.326   2.088 -14.601  0.00  0.00     0.274 HD
HETATM   20  H           1     -35.494   1.604 -16.011  0.00  0.00     0.274 HD
HETATM   21  H           1     -36.525   0.506 -15.210  0.00  0.00     0.274 HD
ENDBRANCH  17  18
ENDBRANCH  15  17
ENDBRANCH   1  13
TORSDOF 9
ENDMDL
MODEL 3
REMARK VINA RESULT:      -5.5      2.299      5.887
REMARK  9 active torsions:
REMARK  status: ('A' for Active; 'I' for Inactive)
REMARK    1  A    between atoms: C_3  and  C_21 
REMARK    2  A    between atoms: C_6  and  C_7 
REMARK    3  A    between atoms: C_6  and  C_21 
REMARK    4  A    between atoms: C_7  and  C_8 
REMARK    5  A    between atoms: C_8  and  C_9 
REMARK    6  A    between atoms: C_9  and  N_15 
REMARK    7  A    between atoms: N_17  and  C_21 
REMARK       I    between atoms: N_17  and  C_18 
REMARK    8  A    between atoms: C_18  and  C_19 
REMARK    9  A    between atoms: C_19  and  N_20 
ROOT
HETATM    1  C           1     -22.725  -3.750  -9.255  0.00  0.00     0.185 C 
ENDROOT
BRANCH   1   2
HETATM    2  C           1     -24.183  -3.817  -9.642  0.00  0.00     0.196 C 
HETATM    3  O           1     -24.911  -2.809  -9.506  0.00  0.00    -0.646 OA
HETATM    4  O           1     -24.661  -4.877 -10.097  0.00  0.00    -0.646 OA
ENDBRANCH   1   2
BRANCH   1   5
HETATM    5  C           1     -21.862  -4.027 -10.479  0.00  0.00     0.036 C 
BRANCH   5   6
HETATM    6  C           1     -21.942  -2.844 -11.435  0.00  0.00     0.004 C 
BRANCH   6   7
HETATM    7  C           1     -22.339  -3.337 -12.820  0.00  0.00     0.027 C 
BRANCH   7   8
HETATM    8  C           1     -23.513  -2.514 -13.335  0.00  0.00     0.229 C 
BRANCH   8   9
HETATM    9  N           1     -24.774  -2.963 -12.658  0.00  0.00    -0.079 N 
HETATM   10  H           1     -24.627  -2.978 -11.624  0.00  0.00     0.274 HD
HETATM   11  H           1     -25.550  -2.302 -12.890  0.00  0.00     0.274 HD
HETATM   12  H           1     -25.024  -3.922 -12.989  0.00  0.00     0.274 HD
ENDBRANCH   8   9
ENDBRANCH   7   8
ENDBRANCH   6   7
ENDBRANCH   5   6
ENDBRANCH   1   5
BRANCH   1  13
HETATM   13  N           1     -22.450  -4.743  -8.235  0.00  0.00    -0.345 N 
HETATM   14  H           1     -22.820  -5.680  -8.329  0.00  0.00     0.163 HD
HETATM   15  C           1     -21.689  -4.412  -7.146  0.00  0.00     0.243 C 
HETATM   16  O           1     -21.248  -3.293  -7.034  0.00  0.00    -0.272 OA
BRANCH  15  17
HETATM   17  C           1     -21.403  -5.446  -6.085  0.00  0.00     0.332 C 
BRANCH  17  18
HETATM   18  N           1     -20.873  -6.693  -6.729  0.00  0.00    -0.071 N 
HETATM   19  H           1     -21.222  -7.528  -6.207  0.00  0.00     0.274 HD
HETATM   20  H           1     -21.202  -6.739  -7.720  0.00  0.00     0.274 HD
HETATM   21  H           1     -19.829  -6.680  -6.709  0.00  0.00     0.274 HD
ENDBRANCH  17  18
ENDBRANCH  15  17
ENDBRANCH   1  13
TORSDOF 9
ENDMDL
MODEL 4
REMARK VINA RESULT:      -5.3      2.014      2.645
REMARK  9 active torsions:
REMARK  status: ('A' for Active; 'I' for Inactive)
REMARK    1  A    between atoms: C_3  and  C_21 
REMARK    2  A    between atoms: C_6  and  C_7 
REMARK    3  A    between atoms: C_6  and  C_21 
REMARK    4  A    between atoms: C_7  and  C_8 
REMARK    5  A    between atoms: C_8  and  C_9 
REMARK    6  A    between atoms: C_9  and  N_15 
REMARK    7  A    between atoms: N_17  and  C_21 
REMARK       I    between atoms: N_17  and  C_18 
REMARK    8  A    between atoms: C_18  and  C_19 
REMARK    9  A    between atoms: C_19  and  N_20 
ROOT
HETATM    1  C           1     -22.262  -3.769 -11.431  0.00  0.00     0.185 C 
ENDROOT
BRANCH   1   2
HETATM    2  C           1     -20.846  -4.092 -11.020  0.00  0.00     0.196 C 
HETATM    3  O           1     -20.629  -4.677  -9.937  0.00  0.00    -0.646 OA
HETATM    4  O           1     -19.892  -3.775 -11.762  0.00  0.00    -0.646 OA
ENDBRANCH   1   2
BRANCH   1   5
HETATM    5  C           1     -23.114  -5.029 -11.350  0.00  0.00     0.036 C 
BRANCH   5   6
HETATM    6  C           1     -24.129  -4.884 -10.224  0.00  0.00     0.004 C 
BRANCH   6   7
HETATM    7  C           1     -23.760  -3.687  -9.358  0.00  0.00     0.027 C 
BRANCH   7   8
HETATM    8  C           1     -23.368  -4.167  -7.967  0.00  0.00     0.229 C 
BRANCH   8   9
HETATM    9  N           1     -22.099  -3.488  -7.543  0.00  0.00    -0.079 N 
HETATM   10  H           1     -22.308  -2.502  -7.265  0.00  0.00     0.274 HD
HETATM   11  H           1     -21.685  -3.998  -6.731  0.00  0.00     0.274 HD
HETATM   12  H           1     -21.421  -3.489  -8.338  0.00  0.00     0.274 HD
ENDBRANCH   8   9
ENDBRANCH   7   8
ENDBRANCH   6   7
ENDBRANCH   5   6
ENDBRANCH   1   5
BRANCH   1  13
HETATM   13  N           1     -22.268  -3.269 -12.793  0.00  0.00    -0.345 N 
HETATM   14  H           1     -21.460  -3.407 -13.386  0.00  0.00     0.163 HD
HETATM   15  C           1     -23.367  -2.611 -13.275  0.00  0.00     0.243 C 
HETATM   16  O           1     -24.332  -2.446 -12.567  0.00  0.00    -0.272 OA
BRANCH  15  17
HETATM   17  C           1     -23.373  -2.091 -14.691  0.00  0.00     0.332 C 
BRANCH  17  18
HETATM   18  N           1     -24.085  -0.772 -14.738  0.00  0.00    -0.071 N 
HETATM   19  H           1     -24.968  -0.873 -15.288  0.00  0.00     0.274 HD
HETATM   20  H           1     -24.312  -0.464 -13.766  0.00  0.00     0.274 HD
HETATM   21  H           1     -23.471  -0.059 -15.194  0.00  0.00     0.274 HD
ENDBRANCH  17  18
ENDBRANCH  15  17
ENDBRANCH   1  13
TORSDOF 9
ENDMDL
MODEL 5
REMARK VINA RESULT:      -5.3      7.963      9.631
REMARK  9 active torsions:
REMARK  status: ('A' for Active; 'I' for Inactive)
REMARK    1  A    between atoms: C_3  and  C_21 
REMARK    2  A    between atoms: C_6  and  C_7 
REMARK    3  A    between atoms: C_6  and  C_21 
REMARK    4  A    between atoms: C_7  and  C_8 
REMARK    5  A    between atoms: C_8  and  C_9 
REMARK    6  A    between atoms: C_9  and  N_15 
REMARK    7  A    between atoms: N_17  and  C_21 
REMARK       I    between atoms: N_17  and  C_18 
REMARK    8  A    between atoms: C_18  and  C_19 
REMARK    9  A    between atoms: C_19  and  N_20 
ROOT
HETATM    1  C           1     -28.441  -6.562 -16.972  0.00  0.00     0.185 C 
ENDROOT
BRANCH   1   2
HETATM    2  C           1     -27.649  -6.798 -15.709  0.00  0.00     0.196 C 
HETATM    3  O           1     -26.609  -6.138 -15.492  0.00  0.00    -0.646 OA
HETATM    4  O           1     -28.032  -7.652 -14.881  0.00  0.00    -0.646 OA
ENDBRANCH   1   2
BRANCH   1   5
HETATM    5  C           1     -29.676  -7.453 -16.971  0.00  0.00     0.036 C 
BRANCH   5   6
HETATM    6  C           1     -30.898  -6.628 -17.351  0.00  0.00     0.004 C 
BRANCH   6   7
HETATM    7  C           1     -30.884  -5.314 -16.582  0.00  0.00     0.027 C 
BRANCH   7   8
HETATM    8  C           1     -32.168  -4.545 -16.865  0.00  0.00     0.229 C 
BRANCH   8   9
HETATM    9  N           1     -31.836  -3.254 -17.552  0.00  0.00    -0.079 N 
HETATM   10  H           1     -31.818  -2.480 -16.850  0.00  0.00     0.274 HD
HETATM   11  H           1     -30.900  -3.332 -18.009  0.00  0.00     0.274 HD
HETATM   12  H           1     -32.561  -3.050 -18.278  0.00  0.00     0.274 HD
ENDBRANCH   8   9
ENDBRANCH   7   8
ENDBRANCH   6   7
ENDBRANCH   5   6
ENDBRANCH   1   5
BRANCH   1  13
HETATM   13  N           1     -27.619  -6.878 -18.124  0.00  0.00    -0.345 N 
HETATM   14  H           1     -26.993  -7.672 -18.097  0.00  0.00     0.163 HD
HETATM   15  C           1     -27.691  -6.101 -19.249  0.00  0.00     0.243 C 
HETATM   16  O           1     -28.438  -5.152 -19.282  0.00  0.00    -0.272 OA
BRANCH  15  17
HETATM   17  C           1     -26.836  -6.430 -20.448  0.00  0.00     0.332 C 
BRANCH  17  18
HETATM   18  N           1     -26.894  -7.905 -20.716  0.00  0.00    -0.071 N 
HETATM   19  H           1     -26.511  -8.100 -21.669  0.00  0.00     0.274 HD
HETATM   20  H           1     -26.326  -8.411 -20.000  0.00  0.00     0.274 HD
HETATM   21  H           1     -27.886  -8.230 -20.667  0.00  0.00     0.274 HD
ENDBRANCH  17  18
ENDBRANCH  15  17
ENDBRANCH   1  13
TORSDOF 9
ENDMDL
MODEL 6
REMARK VINA RESULT:      -5.3      8.581      9.784
REMARK  9 active torsions:
REMARK  status: ('A' for Active; 'I' for Inactive)
REMARK    1  A    between atoms: C_3  and  C_21 
REMARK    2  A    between atoms: C_6  and  C_7 
REMARK    3  A    between atoms: C_6  and  C_21 
REMARK    4  A    between atoms: C_7  and  C_8 
REMARK    5  A    between atoms: C_8  and  C_9 
REMARK    6  A    between atoms: C_9  and  N_15 
REMARK    7  A    between atoms: N_17  and  C_21 
REMARK       I    between atoms: N_17  and  C_18 
REMARK    8  A    between atoms: C_18  and  C_19 
REMARK    9  A    between atoms: C_19  and  N_20 
ROOT
HETATM    1  C           1     -29.898  -6.869 -17.565  0.00  0.00     0.185 C 
ENDROOT
BRANCH   1   2
HETATM    2  C           1     -30.329  -7.857 -18.621  0.00  0.00     0.196 C 
HETATM    3  O           1     -29.496  -8.652 -19.108  0.00  0.00    -0.646 OA
HETATM    4  O           1     -31.517  -7.882 -19.008  0.00  0.00    -0.646 OA
ENDBRANCH   1   2
BRANCH   1   5
HETATM    5  C           1     -29.029  -7.575 -16.533  0.00  0.00     0.036 C 
BRANCH   5   6
HETATM    6  C           1     -28.106  -6.562 -15.868  0.00  0.00     0.004 C 
BRANCH   6   7
HETATM    7  C           1     -26.809  -6.460 -16.658  0.00  0.00     0.027 C 
BRANCH   7   8
HETATM    8  C           1     -25.632  -6.793 -15.750  0.00  0.00     0.229 C 
BRANCH   8   9
HETATM    9  N           1     -24.535  -7.415 -16.562  0.00  0.00    -0.079 N 
HETATM   10  H           1     -23.678  -6.820 -16.503  0.00  0.00     0.274 HD
HETATM   11  H           1     -24.323  -8.369 -16.191  0.00  0.00     0.274 HD
HETATM   12  H           1     -24.839  -7.490 -17.559  0.00  0.00     0.274 HD
ENDBRANCH   8   9
ENDBRANCH   7   8
ENDBRANCH   6   7
ENDBRANCH   5   6
ENDBRANCH   1   5
BRANCH   1  13
HETATM   13  N           1     -31.070  -6.318 -16.912  0.00  0.00    -0.345 N 
HETATM   14  H           1     -31.631  -6.899 -16.304  0.00  0.00     0.163 HD
HETATM   15  C           1     -31.418  -5.010 -17.121  0.00  0.00     0.243 C 
HETATM   16  O           1     -30.749  -4.315 -17.848  0.00  0.00    -0.272 OA
BRANCH  15  17
HETATM   17  C           1     -32.637  -4.437 -16.442  0.00  0.00     0.332 C 
BRANCH  17  18
HETATM   18  N           1     -33.242  -3.375 -17.312  0.00  0.00    -0.071 N 
HETATM   19  H           1     -33.590  -3.808 -18.197  0.00  0.00     0.274 HD
HETATM   20  H           1     -34.038  -2.923 -16.807  0.00  0.00     0.274 HD
HETATM   21  H           1     -32.519  -2.655 -17.538  0.00  0.00     0.274 HD
ENDBRANCH  17  18
ENDBRANCH  15  17
ENDBRANCH   1  13
TORSDOF 9
ENDMDL
MODEL 7
REMARK VINA RESULT:      -5.2      3.136      6.863
REMARK  9 active torsions:
REMARK  status: ('A' for Active; 'I' for Inactive)
REMARK    1  A    between atoms: C_3  and  C_21 
REMARK    2  A    between atoms: C_6  and  C_7 
REMARK    3  A    between atoms: C_6  and  C_21 
REMARK    4  A    between atoms: C_7  and  C_8 
REMARK    5  A    between atoms: C_8  and  C_9 
REMARK    6  A    between atoms: C_9  and  N_15 
REMARK    7  A    between atoms: N_17  and  C_21 
REMARK       I    between atoms: N_17  and  C_18 
REMARK    8  A    between atoms: C_18  and  C_19 
REMARK    9  A    between atoms: C_19  and  N_20 
ROOT
HETATM    1  C           1     -21.692  -4.742  -8.558  0.00  0.00     0.185 C 
ENDROOT
BRANCH   1   2
HETATM    2  C           1     -20.354  -4.371  -9.150  0.00  0.00     0.196 C 
HETATM    3  O           1     -19.533  -3.714  -8.473  0.00  0.00    -0.646 OA
HETATM    4  O           1     -20.067  -4.719 -10.315  0.00  0.00    -0.646 OA
ENDBRANCH   1   2
BRANCH   1   5
HETATM    5  C           1     -22.752  -3.762  -9.045  0.00  0.00     0.036 C 
BRANCH   5   6
HETATM    6  C           1     -23.871  -4.528  -9.739  0.00  0.00     0.004 C 
BRANCH   6   7
HETATM    7  C           1     -23.500  -4.759 -11.198  0.00  0.00     0.027 C 
BRANCH   7   8
HETATM    8  C           1     -23.026  -3.449 -11.815  0.00  0.00     0.229 C 
BRANCH   8   9
HETATM    9  N           1     -21.806  -3.703 -12.650  0.00  0.00    -0.079 N 
HETATM   10  H           1     -21.337  -2.794 -12.865  0.00  0.00     0.274 HD
HETATM   11  H           1     -21.146  -4.320 -12.125  0.00  0.00     0.274 HD
HETATM   12  H           1     -22.085  -4.171 -13.542  0.00  0.00     0.274 HD
ENDBRANCH   8   9
ENDBRANCH   7   8
ENDBRANCH   6   7
ENDBRANCH   5   6
ENDBRANCH   1   5
BRANCH   1  13
HETATM   13  N           1     -21.613  -4.687  -7.111  0.00  0.00    -0.345 N 
HETATM   14  H           1     -21.839  -3.830  -6.624  0.00  0.00     0.163 HD
HETATM   15  C           1     -21.230  -5.795  -6.405  0.00  0.00     0.243 C 
HETATM   16  O           1     -20.959  -6.819  -6.986  0.00  0.00    -0.272 OA
BRANCH  15  17
HETATM   17  C           1     -21.148  -5.738  -4.899  0.00  0.00     0.332 C 
BRANCH  17  18
HETATM   18  N           1     -22.415  -6.279  -4.306  0.00  0.00    -0.071 N 
HETATM   19  H           1     -22.403  -6.136  -3.271  0.00  0.00     0.274 HD
HETATM   20  H           1     -23.234  -5.779  -4.719  0.00  0.00     0.274 HD
HETATM   21  H           1     -22.490  -7.301  -4.515  0.00  0.00     0.274 HD
ENDBRANCH  17  18
ENDBRANCH  15  17
ENDBRANCH   1  13
TORSDOF 9
ENDMDL
MODEL 8
REMARK VINA RESULT:      -5.1      1.911      2.438
REMARK  9 active torsions:
REMARK  status: ('A' for Active; 'I' for Inactive)
REMARK    1  A    between atoms: C_3  and  C_21 
REMARK    2  A    between atoms: C_6  and  C_7 
REMARK    3  A    between atoms: C_6  and  C_21 
REMARK    4  A    between atoms: C_7  and  C_8 
REMARK    5  A    between atoms: C_8  and  C_9 
REMARK    6  A    between atoms: C_9  and  N_15 
REMARK    7  A    between atoms: N_17  and  C_21 
REMARK       I    between atoms: N_17  and  C_18 
REMARK    8  A    between atoms: C_18  and  C_19 
REMARK    9  A    between atoms: C_19  and  N_20 
ROOT
HETATM    1  C           1     -23.029  -3.959 -10.524  0.00  0.00     0.185 C 
ENDROOT
BRANCH   1   2
HETATM    2  C           1     -24.404  -3.870  -9.909  0.00  0.00     0.196 C 
HETATM    3  O           1     -25.077  -4.908  -9.731  0.00  0.00    -0.646 OA
HETATM    4  O           1     -24.871  -2.759  -9.578  0.00  0.00    -0.646 OA
ENDBRANCH   1   2
BRANCH   1   5
HETATM    5  C           1     -21.980  -3.620  -9.473  0.00  0.00     0.036 C 
BRANCH   5   6
HETATM    6  C           1     -21.900  -4.748  -8.453  0.00  0.00     0.004 C 
BRANCH   6   7
HETATM    7  C           1     -20.784  -4.455  -7.459  0.00  0.00     0.027 C 
BRANCH   7   8
HETATM    8  C           1     -20.953  -5.338  -6.229  0.00  0.00     0.229 C 
BRANCH   8   9
HETATM    9  N           1     -20.770  -6.776  -6.617  0.00  0.00    -0.079 N 
HETATM   10  H           1     -21.671  -7.289  -6.488  0.00  0.00     0.274 HD
HETATM   11  H           1     -20.477  -6.833  -7.618  0.00  0.00     0.274 HD
HETATM   12  H           1     -20.034  -7.208  -6.014  0.00  0.00     0.274 HD
ENDBRANCH   8   9
ENDBRANCH   7   8
ENDBRANCH   6   7
ENDBRANCH   5   6
ENDBRANCH   1   5
BRANCH   1  13
HETATM   13  N           1     -22.930  -3.021 -11.625  0.00  0.00    -0.345 N 
HETATM   14  H           1     -22.431  -2.149 -11.504  0.00  0.00     0.163 HD
HETATM   15  C           1     -23.512  -3.315 -12.829  0.00  0.00     0.243 C 
HETATM   16  O           1     -24.109  -4.355 -12.973  0.00  0.00    -0.272 OA
BRANCH  15  17
HETATM   17  C           1     -23.409  -2.338 -13.975  0.00  0.00     0.332 C 
BRANCH  17  18
HETATM   18  N           1     -22.451  -2.868 -15.000  0.00  0.00    -0.071 N 
HETATM   19  H           1     -22.978  -3.413 -15.720  0.00  0.00     0.274 HD
HETATM   20  H           1     -21.955  -2.071 -15.459  0.00  0.00     0.274 HD
HETATM   21  H           1     -21.752  -3.492 -14.536  0.00  0.00     0.274 HD
ENDBRANCH  17  18
ENDBRANCH  15  17
ENDBRANCH   1  13
TORSDOF 9
ENDMDL
MODEL 9
REMARK VINA RESULT:      -5.0      8.196      9.995
REMARK  9 active torsions:
REMARK  status: ('A' for Active; 'I' for Inactive)
REMARK    1  A    between atoms: C_3  and  C_21 
REMARK    2  A    between atoms: C_6  and  C_7 
REMARK    3  A    between atoms: C_6  and  C_21 
REMARK    4  A    between atoms: C_7  and  C_8 
REMARK    5  A    between atoms: C_8  and  C_9 
REMARK    6  A    between atoms: C_9  and  N_15 
REMARK    7  A    between atoms: N_17  and  C_21 
REMARK       I    between atoms: N_17  and  C_18 
REMARK    8  A    between atoms: C_18  and  C_19 
REMARK    9  A    between atoms: C_19  and  N_20 
ROOT
HETATM    1  C           1     -27.711  -6.728 -18.048  0.00  0.00     0.185 C 
ENDROOT
BRANCH   1   2
HETATM    2  C           1     -26.765  -6.309 -16.949  0.00  0.00     0.196 C 
HETATM    3  O           1     -27.216  -5.967 -15.835  0.00  0.00    -0.646 OA
HETATM    4  O           1     -25.532  -6.304 -17.153  0.00  0.00    -0.646 OA
ENDBRANCH   1   2
BRANCH   1   5
HETATM    5  C           1     -27.357  -5.989 -19.332  0.00  0.00     0.036 C 
BRANCH   5   6
HETATM    6  C           1     -26.857  -6.984 -20.370  0.00  0.00     0.004 C 
BRANCH   6   7
HETATM    7  C           1     -25.355  -6.815 -20.555  0.00  0.00     0.027 C 
BRANCH   7   8
HETATM    8  C           1     -24.824  -7.926 -21.452  0.00  0.00     0.229 C 
BRANCH   8   9
HETATM    9  N           1     -23.586  -8.513 -20.842  0.00  0.00    -0.079 N 
HETATM   10  H           1     -23.299  -7.939 -20.017  0.00  0.00     0.274 HD
HETATM   11  H           1     -23.779  -9.493 -20.534  0.00  0.00     0.274 HD
HETATM   12  H           1     -22.817  -8.516 -21.550  0.00  0.00     0.274 HD
ENDBRANCH   8   9
ENDBRANCH   7   8
ENDBRANCH   6   7
ENDBRANCH   5   6
ENDBRANCH   1   5
BRANCH   1  13
HETATM   13  N           1     -29.071  -6.405 -17.665  0.00  0.00    -0.345 N 
HETATM   14  H           1     -29.269  -5.537 -17.182  0.00  0.00     0.163 HD
HETATM   15  C           1     -30.089  -7.274 -17.955  0.00  0.00     0.243 C 
HETATM   16  O           1     -29.853  -8.309 -18.530  0.00  0.00    -0.272 OA
BRANCH  15  17
HETATM   17  C           1     -31.505  -6.937 -17.556  0.00  0.00     0.332 C 
BRANCH  17  18
HETATM   18  N           1     -31.515  -5.654 -16.779  0.00  0.00    -0.071 N 
HETATM   19  H           1     -30.965  -5.777 -15.898  0.00  0.00     0.274 HD
HETATM   20  H           1     -31.086  -4.895 -17.355  0.00  0.00     0.274 HD
HETATM   21  H           1     -32.499  -5.397 -16.542  0.00  0.00     0.274 HD
ENDBRANCH  17  18
ENDBRANCH  15  17
ENDBRANCH   1  13
TORSDOF 9
ENDMDL
