MODEL 1
REMARK VINA RESULT:      -7.2      0.000      0.000
REMARK  15 active torsions:
REMARK  status: ('A' for Active; 'I' for Inactive)
REMARK    1  A    between atoms: C_1  and  C_2 
REMARK    2  A    between atoms: C_1  and  C_20 
REMARK    3  A    between atoms: C_1  and  N_32 
REMARK       I    between atoms: C_2  and  N_3 
REMARK    4  A    between atoms: N_3  and  C_12 
REMARK    5  A    between atoms: C_6  and  C_7 
REMARK    6  A    between atoms: C_7  and  C_8 
REMARK    7  A    between atoms: C_7  and  N_17 
REMARK    8  A    between atoms: C_8  and  O_29 
REMARK       I    between atoms: C_9  and  N_10 
REMARK       I    between atoms: C_9  and  N_30 
REMARK    9  A    between atoms: N_10  and  C_18 
REMARK   10  A    between atoms: C_11  and  C_12 
REMARK   11  A    between atoms: C_12  and  C_13 
REMARK   12  A    between atoms: C_13  and  C_14 
REMARK   13  A    between atoms: C_14  and  N_17 
REMARK   14  A    between atoms: C_18  and  C_19 
REMARK   15  A    between atoms: C_19  and  C_20 
ROOT
HETATM    1  C           1     -20.667  -4.387  -7.937  0.00  0.00     0.249 C 
HETATM    2  N           1     -21.925  -4.584  -8.437  0.00  0.00    -0.345 N 
HETATM    3  O           1     -19.982  -3.487  -8.361  0.00  0.00    -0.271 OA
HETATM    4  H           1     -22.500  -5.338  -8.082  0.00  0.00     0.163 HD
ENDROOT
BRANCH   1   5
HETATM    5  C           1     -20.134  -5.296  -6.856  0.00  0.00     0.274 C 
BRANCH   5   6
HETATM    6  C           1     -21.067  -6.489  -6.690  0.00  0.00     0.044 C 
BRANCH   6   7
HETATM    7  C           1     -20.616  -7.325  -5.499  0.00  0.00     0.023 C 
BRANCH   7   8
HETATM    8  C           1     -21.826  -7.693  -4.649  0.00  0.00     0.138 C 
BRANCH   8   9
HETATM    9  N           1     -22.188  -6.555  -3.794  0.00  0.00    -0.227 N 
HETATM   10  C           1     -21.928  -6.585  -2.555  0.00  0.00     0.665 C 
HETATM   11  N           1     -22.240  -5.606  -1.817  0.00  0.00    -0.235 N 
HETATM   12  N           1     -21.339  -7.625  -2.040  0.00  0.00    -0.235 N 
HETATM   13  H           1     -22.715  -4.766  -2.233  0.00  0.00     0.174 HD
HETATM   14  H           1     -22.024  -5.631  -0.790  0.00  0.00     0.174 HD
HETATM   15  H           1     -21.081  -8.434  -2.650  0.00  0.00     0.174 HD
HETATM   16  H           1     -21.124  -7.651  -1.018  0.00  0.00     0.174 HD
HETATM   17  H           1     -22.663  -5.715  -4.209  0.00  0.00     0.177 HD
ENDBRANCH   8   9
ENDBRANCH   7   8
ENDBRANCH   6   7
ENDBRANCH   5   6
BRANCH   5  18
HETATM   18  N           1     -20.055  -4.540  -5.563  0.00  0.00    -0.067 N 
HETATM   19  H           1     -21.019  -4.306  -5.236  0.00  0.00     0.275 HD
HETATM   20  H           1     -19.512  -3.660  -5.708  0.00  0.00     0.275 HD
HETATM   21  H           1     -19.577  -5.130  -4.844  0.00  0.00     0.275 HD
ENDBRANCH   5  18
ENDBRANCH   1   5
BRANCH   2  22
HETATM   22  C           1     -22.437  -3.711  -9.476  0.00  0.00     0.187 C 
BRANCH  22  23
HETATM   23  C           1     -23.935  -3.864  -9.568  0.00  0.00     0.196 C 
HETATM   24  O           1     -24.669  -2.852  -9.558  0.00  0.00    -0.646 OA
HETATM   25  O           1     -24.443  -5.002  -9.656  0.00  0.00    -0.646 OA
ENDBRANCH  22  23
BRANCH  22  26
HETATM   26  C           1     -21.804  -4.085 -10.810  0.00  0.00     0.066 C 
BRANCH  26  27
HETATM   27  C           1     -21.555  -2.823 -11.626  0.00  0.00     0.273 C 
BRANCH  27  28
HETATM   28  N           1     -22.794  -2.369 -12.199  0.00  0.00     0.100 N 
HETATM   29  H           1     -22.688  -1.405 -12.516  0.00  0.00     0.317 HD
BRANCH  28  30
HETATM   30  C           1     -23.091  -3.214 -13.324  0.00  0.00     0.343 C 
BRANCH  30  31
HETATM   31  C           1     -23.164  -2.375 -14.576  0.00  0.00     0.209 C 
HETATM   32  O           1     -24.007  -1.455 -14.664  0.00  0.00    -0.646 OA
HETATM   33  O           1     -22.383  -2.600 -15.525  0.00  0.00    -0.646 OA
ENDBRANCH  30  31
BRANCH  30  34
HETATM   34  C           1     -24.428  -3.907 -13.097  0.00  0.00     0.211 C 
BRANCH  34  35
HETATM   35  O           1     -25.351  -2.985 -12.584  0.00  0.00    -0.398 OA
HETATM   36  H           1     -25.734  -3.378 -11.818  0.00  0.00     0.209 HD
ENDBRANCH  34  35
ENDBRANCH  30  34
ENDBRANCH  28  30
ENDBRANCH  27  28
ENDBRANCH  26  27
ENDBRANCH  22  26
ENDBRANCH   2  22
TORSDOF 15
ENDMDL
MODEL 2
REMARK VINA RESULT:      -7.1      0.820      1.574
REMARK  15 active torsions:
REMARK  status: ('A' for Active; 'I' for Inactive)
REMARK    1  A    between atoms: C_1  and  C_2 
REMARK    2  A    between atoms: C_1  and  C_20 
REMARK    3  A    between atoms: C_1  and  N_32 
REMARK       I    between atoms: C_2  and  N_3 
REMARK    4  A    between atoms: N_3  and  C_12 
REMARK    5  A    between atoms: C_6  and  C_7 
REMARK    6  A    between atoms: C_7  and  C_8 
REMARK    7  A    between atoms: C_7  and  N_17 
REMARK    8  A    between atoms: C_8  and  O_29 
REMARK       I    between atoms: C_9  and  N_10 
REMARK       I    between atoms: C_9  and  N_30 
REMARK    9  A    between atoms: N_10  and  C_18 
REMARK   10  A    between atoms: C_11  and  C_12 
REMARK   11  A    between atoms: C_12  and  C_13 
REMARK   12  A    between atoms: C_13  and  C_14 
REMARK   13  A    between atoms: C_14  and  N_17 
REMARK   14  A    between atoms: C_18  and  C_19 
REMARK   15  A    between atoms: C_19  and  C_20 
ROOT
HETATM    1  C           1     -20.559  -4.618  -8.081  0.00  0.00     0.249 C 
HETATM    2  N           1     -21.775  -4.879  -8.652  0.00  0.00    -0.345 N 
HETATM    3  O           1     -19.936  -3.637  -8.410  0.00  0.00    -0.271 OA
HETATM    4  H           1     -22.299  -5.701  -8.376  0.00  0.00     0.163 HD
ENDROOT
BRANCH   1   5
HETATM    5  C           1     -19.997  -5.557  -7.042  0.00  0.00     0.274 C 
BRANCH   5   6
HETATM    6  C           1     -21.111  -6.443  -6.501  0.00  0.00     0.044 C 
BRANCH   6   7
HETATM    7  C           1     -20.691  -7.025  -5.157  0.00  0.00     0.023 C 
BRANCH   7   8
HETATM    8  C           1     -21.748  -6.699  -4.110  0.00  0.00     0.138 C 
BRANCH   8   9
HETATM    9  N           1     -21.497  -7.489  -2.897  0.00  0.00    -0.227 N 
HETATM   10  C           1     -21.824  -7.029  -1.763  0.00  0.00     0.665 C 
HETATM   11  N           1     -21.607  -7.708  -0.717  0.00  0.00    -0.235 N 
HETATM   12  N           1     -22.384  -5.858  -1.673  0.00  0.00    -0.235 N 
HETATM   13  H           1     -21.156  -8.654  -0.790  0.00  0.00     0.174 HD
HETATM   14  H           1     -21.879  -7.328   0.222  0.00  0.00     0.174 HD
HETATM   15  H           1     -22.563  -5.298  -2.537  0.00  0.00     0.174 HD
HETATM   16  H           1     -22.654  -5.479  -0.738  0.00  0.00     0.174 HD
HETATM   17  H           1     -21.045  -8.434  -2.969  0.00  0.00     0.177 HD
ENDBRANCH   8   9
ENDBRANCH   7   8
ENDBRANCH   6   7
ENDBRANCH   5   6
BRANCH   5  18
HETATM   18  N           1     -19.403  -4.760  -5.918  0.00  0.00    -0.067 N 
HETATM   19  H           1     -20.034  -4.807  -5.087  0.00  0.00     0.275 HD
HETATM   20  H           1     -19.293  -3.766  -6.218  0.00  0.00     0.275 HD
HETATM   21  H           1     -18.468  -5.154  -5.669  0.00  0.00     0.275 HD
ENDBRANCH   5  18
ENDBRANCH   1   5
BRANCH   2  22
HETATM   22  C           1     -22.316  -3.978  -9.650  0.00  0.00     0.187 C 
BRANCH  22  23
HETATM   23  C           1     -23.817  -4.122  -9.698  0.00  0.00     0.196 C 
HETATM   24  O           1     -24.548  -3.207  -9.262  0.00  0.00    -0.646 OA
HETATM   25  O           1     -24.330  -5.158 -10.175  0.00  0.00    -0.646 OA
ENDBRANCH  22  23
BRANCH  22  26
HETATM   26  C           1     -21.728  -4.320 -11.014  0.00  0.00     0.066 C 
BRANCH  26  27
HETATM   27  C           1     -21.578  -3.047 -11.836  0.00  0.00     0.273 C 
BRANCH  27  28
HETATM   28  N           1     -22.006  -3.294 -13.187  0.00  0.00     0.100 N 
HETATM   29  H           1     -22.284  -4.271 -13.282  0.00  0.00     0.317 HD
BRANCH  28  30
HETATM   30  C           1     -23.137  -2.446 -13.450  0.00  0.00     0.343 C 
BRANCH  30  31
HETATM   31  C           1     -24.409  -3.243 -13.294  0.00  0.00     0.209 C 
HETATM   32  O           1     -25.330  -2.815 -12.565  0.00  0.00    -0.646 OA
HETATM   33  O           1     -24.541  -4.332 -13.894  0.00  0.00    -0.646 OA
ENDBRANCH  30  31
BRANCH  30  34
HETATM   34  C           1     -23.046  -1.906 -14.871  0.00  0.00     0.211 C 
BRANCH  34  35
HETATM   35  O           1     -24.304  -1.438 -15.275  0.00  0.00    -0.398 OA
HETATM   36  H           1     -24.243  -0.500 -15.328  0.00  0.00     0.209 HD
ENDBRANCH  34  35
ENDBRANCH  30  34
ENDBRANCH  28  30
ENDBRANCH  27  28
ENDBRANCH  26  27
ENDBRANCH  22  26
ENDBRANCH   2  22
TORSDOF 15
ENDMDL
MODEL 3
REMARK VINA RESULT:      -6.9      1.676      2.116
REMARK  15 active torsions:
REMARK  status: ('A' for Active; 'I' for Inactive)
REMARK    1  A    between atoms: C_1  and  C_2 
REMARK    2  A    between atoms: C_1  and  C_20 
REMARK    3  A    between atoms: C_1  and  N_32 
REMARK       I    between atoms: C_2  and  N_3 
REMARK    4  A    between atoms: N_3  and  C_12 
REMARK    5  A    between atoms: C_6  and  C_7 
REMARK    6  A    between atoms: C_7  and  C_8 
REMARK    7  A    between atoms: C_7  and  N_17 
REMARK    8  A    between atoms: C_8  and  O_29 
REMARK       I    between atoms: C_9  and  N_10 
REMARK       I    between atoms: C_9  and  N_30 
REMARK    9  A    between atoms: N_10  and  C_18 
REMARK   10  A    between atoms: C_11  and  C_12 
REMARK   11  A    between atoms: C_12  and  C_13 
REMARK   12  A    between atoms: C_13  and  C_14 
REMARK   13  A    between atoms: C_14  and  N_17 
REMARK   14  A    between atoms: C_18  and  C_19 
REMARK   15  A    between atoms: C_19  and  C_20 
ROOT
HETATM    1  C           1     -21.678  -4.872  -7.584  0.00  0.00     0.249 C 
HETATM    2  N           1     -22.075  -5.047  -8.882  0.00  0.00    -0.345 N 
HETATM    3  O           1     -21.702  -3.771  -7.089  0.00  0.00    -0.271 OA
HETATM    4  H           1     -22.056  -5.971  -9.298  0.00  0.00     0.163 HD
ENDROOT
BRANCH   1   5
HETATM    5  C           1     -21.211  -6.055  -6.772  0.00  0.00     0.274 C 
BRANCH   5   6
HETATM    6  C           1     -21.352  -5.740  -5.289  0.00  0.00     0.044 C 
BRANCH   6   7
HETATM    7  C           1     -20.740  -6.869  -4.469  0.00  0.00     0.023 C 
BRANCH   7   8
HETATM    8  C           1     -21.683  -8.066  -4.469  0.00  0.00     0.138 C 
BRANCH   8   9
HETATM    9  N           1     -20.967  -9.254  -3.985  0.00  0.00    -0.227 N 
HETATM   10  C           1     -20.663 -10.182  -4.791  0.00  0.00     0.665 C 
HETATM   11  N           1     -20.047 -11.207  -4.376  0.00  0.00    -0.235 N 
HETATM   12  N           1     -20.985 -10.082  -6.048  0.00  0.00    -0.235 N 
HETATM   13  H           1     -19.788 -11.287  -3.361  0.00  0.00     0.174 HD
HETATM   14  H           1     -19.795 -11.976  -5.044  0.00  0.00     0.174 HD
HETATM   15  H           1     -21.493  -9.236  -6.391  0.00  0.00     0.174 HD
HETATM   16  H           1     -20.735 -10.848  -6.713  0.00  0.00     0.174 HD
HETATM   17  H           1     -20.707  -9.335  -2.971  0.00  0.00     0.177 HD
ENDBRANCH   8   9
ENDBRANCH   7   8
ENDBRANCH   6   7
ENDBRANCH   5   6
BRANCH   5  18
HETATM   18  N           1     -19.773  -6.341  -7.088  0.00  0.00    -0.067 N 
HETATM   19  H           1     -19.240  -5.443  -7.130  0.00  0.00     0.275 HD
HETATM   20  H           1     -19.710  -6.827  -8.010  0.00  0.00     0.275 HD
HETATM   21  H           1     -19.368  -6.952  -6.343  0.00  0.00     0.275 HD
ENDBRANCH   5  18
ENDBRANCH   1   5
BRANCH   2  22
HETATM   22  C           1     -22.524  -3.911  -9.663  0.00  0.00     0.187 C 
BRANCH  22  23
HETATM   23  C           1     -24.031  -3.917  -9.738  0.00  0.00     0.196 C 
HETATM   24  O           1     -24.666  -2.844  -9.646  0.00  0.00    -0.646 OA
HETATM   25  O           1     -24.645  -4.995  -9.892  0.00  0.00    -0.646 OA
ENDBRANCH  22  23
BRANCH  22  26
HETATM   26  C           1     -21.945  -4.001 -11.069  0.00  0.00     0.066 C 
BRANCH  26  27
HETATM   27  C           1     -21.758  -2.598 -11.632  0.00  0.00     0.273 C 
BRANCH  27  28
HETATM   28  N           1     -22.969  -2.177 -12.284  0.00  0.00     0.100 N 
HETATM   29  H           1     -22.860  -1.219 -12.617  0.00  0.00     0.317 HD
BRANCH  28  30
HETATM   30  C           1     -23.189  -3.051 -13.405  0.00  0.00     0.343 C 
BRANCH  30  31
HETATM   31  C           1     -23.201  -2.242 -14.678  0.00  0.00     0.209 C 
HETATM   32  O           1     -24.016  -1.304 -14.814  0.00  0.00    -0.646 OA
HETATM   33  O           1     -22.397  -2.511 -15.597  0.00  0.00    -0.646 OA
ENDBRANCH  30  31
BRANCH  30  34
HETATM   34  C           1     -24.527  -3.760 -13.239  0.00  0.00     0.211 C 
BRANCH  34  35
HETATM   35  O           1     -25.463  -2.870 -12.695  0.00  0.00    -0.398 OA
HETATM   36  H           1     -25.428  -2.085 -13.214  0.00  0.00     0.209 HD
ENDBRANCH  34  35
ENDBRANCH  30  34
ENDBRANCH  28  30
ENDBRANCH  27  28
ENDBRANCH  26  27
ENDBRANCH  22  26
ENDBRANCH   2  22
TORSDOF 15
ENDMDL
MODEL 4
REMARK VINA RESULT:      -6.8      2.594      4.415
REMARK  15 active torsions:
REMARK  status: ('A' for Active; 'I' for Inactive)
REMARK    1  A    between atoms: C_1  and  C_2 
REMARK    2  A    between atoms: C_1  and  C_20 
REMARK    3  A    between atoms: C_1  and  N_32 
REMARK       I    between atoms: C_2  and  N_3 
REMARK    4  A    between atoms: N_3  and  C_12 
REMARK    5  A    between atoms: C_6  and  C_7 
REMARK    6  A    between atoms: C_7  and  C_8 
REMARK    7  A    between atoms: C_7  and  N_17 
REMARK    8  A    between atoms: C_8  and  O_29 
REMARK       I    between atoms: C_9  and  N_10 
REMARK       I    between atoms: C_9  and  N_30 
REMARK    9  A    between atoms: N_10  and  C_18 
REMARK   10  A    between atoms: C_11  and  C_12 
REMARK   11  A    between atoms: C_12  and  C_13 
REMARK   12  A    between atoms: C_13  and  C_14 
REMARK   13  A    between atoms: C_14  and  N_17 
REMARK   14  A    between atoms: C_18  and  C_19 
REMARK   15  A    between atoms: C_19  and  C_20 
ROOT
HETATM    1  C           1     -21.519  -6.580  -4.413  0.00  0.00     0.249 C 
HETATM    2  N           1     -21.123  -5.498  -5.151  0.00  0.00    -0.345 N 
HETATM    3  O           1     -22.052  -7.518  -4.956  0.00  0.00    -0.271 OA
HETATM    4  H           1     -20.675  -4.711  -4.697  0.00  0.00     0.163 HD
ENDROOT
BRANCH   1   5
HETATM    5  C           1     -21.290  -6.601  -2.921  0.00  0.00     0.274 C 
BRANCH   5   6
HETATM    6  C           1     -21.365  -8.036  -2.416  0.00  0.00     0.044 C 
BRANCH   6   7
HETATM    7  C           1     -19.959  -8.549  -2.133  0.00  0.00     0.023 C 
BRANCH   7   8
HETATM    8  C           1     -19.697  -9.799  -2.963  0.00  0.00     0.138 C 
BRANCH   8   9
HETATM    9  N           1     -18.732  -9.487  -4.027  0.00  0.00    -0.227 N 
HETATM   10  C           1     -19.071  -9.596  -5.242  0.00  0.00     0.665 C 
HETATM   11  N           1     -18.241  -9.329  -6.159  0.00  0.00    -0.235 N 
HETATM   12  N           1     -20.275  -9.984  -5.548  0.00  0.00    -0.235 N 
HETATM   13  H           1     -17.269  -9.016  -5.911  0.00  0.00     0.174 HD
HETATM   14  H           1     -18.522  -9.419  -7.166  0.00  0.00     0.174 HD
HETATM   15  H           1     -20.961 -10.204  -4.791  0.00  0.00     0.174 HD
HETATM   16  H           1     -20.555 -10.074  -6.550  0.00  0.00     0.174 HD
HETATM   17  H           1     -17.760  -9.174  -3.780  0.00  0.00     0.177 HD
ENDBRANCH   8   9
ENDBRANCH   7   8
ENDBRANCH   6   7
ENDBRANCH   5   6
BRANCH   5  18
HETATM   18  N           1     -22.343  -5.776  -2.243  0.00  0.00    -0.067 N 
HETATM   19  H           1     -21.892  -5.141  -1.545  0.00  0.00     0.275 HD
HETATM   20  H           1     -23.017  -6.407  -1.756  0.00  0.00     0.275 HD
HETATM   21  H           1     -22.851  -5.205  -2.956  0.00  0.00     0.275 HD
ENDBRANCH   5  18
ENDBRANCH   1   5
BRANCH   2  22
HETATM   22  C           1     -21.342  -5.477  -6.584  0.00  0.00     0.187 C 
BRANCH  22  23
HETATM   23  C           1     -20.036  -5.727  -7.296  0.00  0.00     0.196 C 
HETATM   24  O           1     -19.589  -4.879  -8.099  0.00  0.00    -0.646 OA
HETATM   25  O           1     -19.401  -6.782  -7.085  0.00  0.00    -0.646 OA
ENDBRANCH  22  23
BRANCH  22  26
HETATM   26  C           1     -21.893  -4.117  -6.994  0.00  0.00     0.066 C 
BRANCH  26  27
HETATM   27  C           1     -23.120  -4.310  -7.874  0.00  0.00     0.273 C 
BRANCH  27  28
HETATM   28  N           1     -22.704  -4.590  -9.223  0.00  0.00     0.100 N 
HETATM   29  H           1     -22.477  -5.581  -9.309  0.00  0.00     0.317 HD
BRANCH  28  30
HETATM   30  C           1     -23.804  -4.273 -10.094  0.00  0.00     0.343 C 
BRANCH  30  31
HETATM   31  C           1     -23.270  -3.777 -11.416  0.00  0.00     0.209 C 
HETATM   32  O           1     -22.216  -4.260 -11.884  0.00  0.00    -0.646 OA
HETATM   33  O           1     -23.882  -2.885 -12.042  0.00  0.00    -0.646 OA
ENDBRANCH  30  31
BRANCH  30  34
HETATM   34  C           1     -24.660  -3.188  -9.453  0.00  0.00     0.211 C 
BRANCH  34  35
HETATM   35  O           1     -25.995  -3.352  -9.850  0.00  0.00    -0.398 OA
HETATM   36  H           1     -26.223  -2.594 -10.361  0.00  0.00     0.209 HD
ENDBRANCH  34  35
ENDBRANCH  30  34
ENDBRANCH  28  30
ENDBRANCH  27  28
ENDBRANCH  26  27
ENDBRANCH  22  26
ENDBRANCH   2  22
TORSDOF 15
ENDMDL
MODEL 5
REMARK VINA RESULT:      -6.8      4.279     10.079
REMARK  15 active torsions:
REMARK  status: ('A' for Active; 'I' for Inactive)
REMARK    1  A    between atoms: C_1  and  C_2 
REMARK    2  A    between atoms: C_1  and  C_20 
REMARK    3  A    between atoms: C_1  and  N_32 
REMARK       I    between atoms: C_2  and  N_3 
REMARK    4  A    between atoms: N_3  and  C_12 
REMARK    5  A    between atoms: C_6  and  C_7 
REMARK    6  A    between atoms: C_7  and  C_8 
REMARK    7  A    between atoms: C_7  and  N_17 
REMARK    8  A    between atoms: C_8  and  O_29 
REMARK       I    between atoms: C_9  and  N_10 
REMARK       I    between atoms: C_9  and  N_30 
REMARK    9  A    between atoms: N_10  and  C_18 
REMARK   10  A    between atoms: C_11  and  C_12 
REMARK   11  A    between atoms: C_12  and  C_13 
REMARK   12  A    between atoms: C_13  and  C_14 
REMARK   13  A    between atoms: C_14  and  N_17 
REMARK   14  A    between atoms: C_18  and  C_19 
REMARK   15  A    between atoms: C_19  and  C_20 
ROOT
HETATM    1  C           1     -20.867  -5.263  -7.184  0.00  0.00     0.249 C 
HETATM    2  N           1     -21.606  -6.024  -6.320  0.00  0.00    -0.345 N 
HETATM    3  O           1     -19.689  -5.091  -6.980  0.00  0.00    -0.271 OA
HETATM    4  H           1     -22.594  -6.169  -6.491  0.00  0.00     0.163 HD
ENDROOT
BRANCH   1   5
HETATM    5  C           1     -21.523  -4.638  -8.391  0.00  0.00     0.274 C 
BRANCH   5   6
HETATM    6  C           1     -20.454  -4.060  -9.308  0.00  0.00     0.044 C 
BRANCH   6   7
HETATM    7  C           1     -20.771  -4.427 -10.753  0.00  0.00     0.023 C 
BRANCH   7   8
HETATM    8  C           1     -21.750  -3.414 -11.331  0.00  0.00     0.138 C 
BRANCH   8   9
HETATM    9  N           1     -21.739  -3.504 -12.798  0.00  0.00    -0.227 N 
HETATM   10  C           1     -22.642  -2.928 -13.474  0.00  0.00     0.665 C 
HETATM   11  N           1     -22.634  -3.005 -14.737  0.00  0.00    -0.235 N 
HETATM   12  N           1     -23.579  -2.259 -12.870  0.00  0.00    -0.235 N 
HETATM   13  H           1     -21.877  -3.546 -15.225  0.00  0.00     0.174 HD
HETATM   14  H           1     -23.383  -2.528 -15.298  0.00  0.00     0.174 HD
HETATM   15  H           1     -23.586  -2.195 -11.826  0.00  0.00     0.174 HD
HETATM   16  H           1     -24.324  -1.784 -13.427  0.00  0.00     0.174 HD
HETATM   17  H           1     -20.983  -4.045 -13.286  0.00  0.00     0.177 HD
ENDBRANCH   8   9
ENDBRANCH   7   8
ENDBRANCH   6   7
ENDBRANCH   5   6
BRANCH   5  18
HETATM   18  N           1     -22.445  -3.542  -7.946  0.00  0.00    -0.067 N 
HETATM   19  H           1     -23.435  -3.872  -8.008  0.00  0.00     0.275 HD
HETATM   20  H           1     -22.316  -2.708  -8.562  0.00  0.00     0.275 HD
HETATM   21  H           1     -22.227  -3.283  -6.958  0.00  0.00     0.275 HD
ENDBRANCH   5  18
ENDBRANCH   1   5
BRANCH   2  22
HETATM   22  C           1     -20.976  -6.625  -5.161  0.00  0.00     0.187 C 
BRANCH  22  23
HETATM   23  C           1     -20.509  -8.017  -5.508  0.00  0.00     0.196 C 
HETATM   24  O           1     -19.302  -8.228  -5.758  0.00  0.00    -0.646 OA
HETATM   25  O           1     -21.328  -8.960  -5.544  0.00  0.00    -0.646 OA
ENDBRANCH  22  23
BRANCH  22  26
HETATM   26  C           1     -21.980  -6.696  -4.017  0.00  0.00     0.066 C 
BRANCH  26  27
HETATM   27  C           1     -21.236  -6.848  -2.697  0.00  0.00     0.273 C 
BRANCH  27  28
HETATM   28  N           1     -21.276  -8.224  -2.279  0.00  0.00     0.100 N 
HETATM   29  H           1     -20.382  -8.668  -2.488  0.00  0.00     0.317 HD
BRANCH  28  30
HETATM   30  C           1     -21.500  -8.243  -0.859  0.00  0.00     0.343 C 
BRANCH  30  31
HETATM   31  C           1     -22.073  -9.581  -0.459  0.00  0.00     0.209 C 
HETATM   32  O           1     -22.968 -10.110  -1.154  0.00  0.00    -0.646 OA
HETATM   33  O           1     -21.653 -10.159   0.566  0.00  0.00    -0.646 OA
ENDBRANCH  30  31
BRANCH  30  34
HETATM   34  C           1     -22.480  -7.138  -0.487  0.00  0.00     0.211 C 
BRANCH  34  35
HETATM   35  O           1     -23.492  -7.665   0.328  0.00  0.00    -0.398 OA
HETATM   36  H           1     -23.455  -8.602   0.240  0.00  0.00     0.209 HD
ENDBRANCH  34  35
ENDBRANCH  30  34
ENDBRANCH  28  30
ENDBRANCH  27  28
ENDBRANCH  26  27
ENDBRANCH  22  26
ENDBRANCH   2  22
TORSDOF 15
ENDMDL
MODEL 6
REMARK VINA RESULT:      -6.7      3.113      9.405
REMARK  15 active torsions:
REMARK  status: ('A' for Active; 'I' for Inactive)
REMARK    1  A    between atoms: C_1  and  C_2 
REMARK    2  A    between atoms: C_1  and  C_20 
REMARK    3  A    between atoms: C_1  and  N_32 
REMARK       I    between atoms: C_2  and  N_3 
REMARK    4  A    between atoms: N_3  and  C_12 
REMARK    5  A    between atoms: C_6  and  C_7 
REMARK    6  A    between atoms: C_7  and  C_8 
REMARK    7  A    between atoms: C_7  and  N_17 
REMARK    8  A    between atoms: C_8  and  O_29 
REMARK       I    between atoms: C_9  and  N_10 
REMARK       I    between atoms: C_9  and  N_30 
REMARK    9  A    between atoms: N_10  and  C_18 
REMARK   10  A    between atoms: C_11  and  C_12 
REMARK   11  A    between atoms: C_12  and  C_13 
REMARK   12  A    between atoms: C_13  and  C_14 
REMARK   13  A    between atoms: C_14  and  N_17 
REMARK   14  A    between atoms: C_18  and  C_19 
REMARK   15  A    between atoms: C_19  and  C_20 
ROOT
HETATM    1  C           1     -23.294  -4.505  -8.738  0.00  0.00     0.249 C 
HETATM    2  N           1     -22.058  -5.088  -8.793  0.00  0.00    -0.345 N 
HETATM    3  O           1     -23.624  -3.880  -7.758  0.00  0.00    -0.271 OA
HETATM    4  H           1     -21.780  -5.611  -9.614  0.00  0.00     0.163 HD
ENDROOT
BRANCH   1   5
HETATM    5  C           1     -24.245  -4.642  -9.902  0.00  0.00     0.274 C 
BRANCH   5   6
HETATM    6  C           1     -23.470  -4.524 -11.208  0.00  0.00     0.044 C 
BRANCH   6   7
HETATM    7  C           1     -23.316  -3.054 -11.576  0.00  0.00     0.023 C 
BRANCH   7   8
HETATM    8  C           1     -23.188  -2.920 -13.089  0.00  0.00     0.138 C 
BRANCH   8   9
HETATM    9  N           1     -24.010  -1.794 -13.553  0.00  0.00    -0.227 N 
HETATM   10  C           1     -23.798  -1.282 -14.692  0.00  0.00     0.665 C 
HETATM   11  N           1     -24.505  -0.312 -15.093  0.00  0.00    -0.235 N 
HETATM   12  N           1     -22.853  -1.755 -15.450  0.00  0.00    -0.235 N 
HETATM   13  H           1     -25.268   0.069 -14.480  0.00  0.00     0.174 HD
HETATM   14  H           1     -24.329   0.111 -16.037  0.00  0.00     0.174 HD
HETATM   15  H           1     -22.269  -2.556 -15.119  0.00  0.00     0.174 HD
HETATM   16  H           1     -22.677  -1.333 -16.390  0.00  0.00     0.174 HD
HETATM   17  H           1     -24.773  -1.412 -12.941  0.00  0.00     0.177 HD
ENDBRANCH   8   9
ENDBRANCH   7   8
ENDBRANCH   6   7
ENDBRANCH   5   6
BRANCH   5  18
HETATM   18  N           1     -25.278  -3.556  -9.834  0.00  0.00    -0.067 N 
HETATM   19  H           1     -26.228  -3.971  -9.966  0.00  0.00     0.275 HD
HETATM   20  H           1     -25.095  -2.856 -10.586  0.00  0.00     0.275 HD
HETATM   21  H           1     -25.229  -3.088  -8.901  0.00  0.00     0.275 HD
ENDBRANCH   5  18
ENDBRANCH   1   5
BRANCH   2  22
HETATM   22  C           1     -21.144  -4.957  -7.675  0.00  0.00     0.187 C 
BRANCH  22  23
HETATM   23  C           1     -19.797  -4.498  -8.178  0.00  0.00     0.196 C 
HETATM   24  O           1     -19.654  -4.172  -9.376  0.00  0.00    -0.646 OA
HETATM   25  O           1     -18.824  -4.443  -7.395  0.00  0.00    -0.646 OA
ENDBRANCH  22  23
BRANCH  22  26
HETATM   26  C           1     -20.995  -6.304  -6.980  0.00  0.00     0.066 C 
BRANCH  26  27
HETATM   27  C           1     -21.691  -6.258  -5.626  0.00  0.00     0.273 C 
BRANCH  27  28
HETATM   28  N           1     -20.783  -6.703  -4.603  0.00  0.00     0.100 N 
HETATM   29  H           1     -20.275  -5.902  -4.229  0.00  0.00     0.317 HD
BRANCH  28  30
HETATM   30  C           1     -21.565  -7.306  -3.558  0.00  0.00     0.343 C 
BRANCH  30  31
HETATM   31  C           1     -21.848  -6.282  -2.487  0.00  0.00     0.209 C 
HETATM   32  O           1     -21.240  -5.189  -2.491  0.00  0.00    -0.646 OA
HETATM   33  O           1     -22.691  -6.526  -1.596  0.00  0.00    -0.646 OA
ENDBRANCH  30  31
BRANCH  30  34
HETATM   34  C           1     -20.790  -8.471  -2.956  0.00  0.00     0.211 C 
BRANCH  34  35
HETATM   35  O           1     -20.212  -8.071  -1.743  0.00  0.00    -0.398 OA
HETATM   36  H           1     -19.373  -8.495  -1.686  0.00  0.00     0.209 HD
ENDBRANCH  34  35
ENDBRANCH  30  34
ENDBRANCH  28  30
ENDBRANCH  27  28
ENDBRANCH  26  27
ENDBRANCH  22  26
ENDBRANCH   2  22
TORSDOF 15
ENDMDL
MODEL 7
REMARK VINA RESULT:      -6.6      2.158      3.686
REMARK  15 active torsions:
REMARK  status: ('A' for Active; 'I' for Inactive)
REMARK    1  A    between atoms: C_1  and  C_2 
REMARK    2  A    between atoms: C_1  and  C_20 
REMARK    3  A    between atoms: C_1  and  N_32 
REMARK       I    between atoms: C_2  and  N_3 
REMARK    4  A    between atoms: N_3  and  C_12 
REMARK    5  A    between atoms: C_6  and  C_7 
REMARK    6  A    between atoms: C_7  and  C_8 
REMARK    7  A    between atoms: C_7  and  N_17 
REMARK    8  A    between atoms: C_8  and  O_29 
REMARK       I    between atoms: C_9  and  N_10 
REMARK       I    between atoms: C_9  and  N_30 
REMARK    9  A    between atoms: N_10  and  C_18 
REMARK   10  A    between atoms: C_11  and  C_12 
REMARK   11  A    between atoms: C_12  and  C_13 
REMARK   12  A    between atoms: C_13  and  C_14 
REMARK   13  A    between atoms: C_14  and  N_17 
REMARK   14  A    between atoms: C_18  and  C_19 
REMARK   15  A    between atoms: C_19  and  C_20 
ROOT
HETATM    1  C           1     -21.130  -6.429  -5.787  0.00  0.00     0.249 C 
HETATM    2  N           1     -21.152  -5.169  -6.320  0.00  0.00    -0.345 N 
HETATM    3  O           1     -21.207  -7.392  -6.512  0.00  0.00    -0.271 OA
HETATM    4  H           1     -21.086  -4.361  -5.713  0.00  0.00     0.163 HD
ENDROOT
BRANCH   1   5
HETATM    5  C           1     -21.010  -6.615  -4.294  0.00  0.00     0.274 C 
BRANCH   5   6
HETATM    6  C           1     -20.817  -8.093  -3.981  0.00  0.00     0.044 C 
BRANCH   6   7
HETATM    7  C           1     -20.375  -8.251  -2.531  0.00  0.00     0.023 C 
BRANCH   7   8
HETATM    8  C           1     -21.401  -9.087  -1.776  0.00  0.00     0.138 C 
BRANCH   8   9
HETATM    9  N           1     -22.100  -8.242  -0.799  0.00  0.00    -0.227 N 
HETATM   10  C           1     -22.966  -8.749  -0.027  0.00  0.00     0.665 C 
HETATM   11  N           1     -23.569  -8.021   0.814  0.00  0.00    -0.235 N 
HETATM   12  N           1     -23.238 -10.019  -0.101  0.00  0.00    -0.235 N 
HETATM   13  H           1     -23.350  -6.996   0.873  0.00  0.00     0.174 HD
HETATM   14  H           1     -24.287  -8.442   1.454  0.00  0.00     0.174 HD
HETATM   15  H           1     -22.740 -10.620  -0.796  0.00  0.00     0.174 HD
HETATM   16  H           1     -23.953 -10.438   0.535  0.00  0.00     0.174 HD
HETATM   17  H           1     -21.881  -7.216  -0.739  0.00  0.00     0.177 HD
ENDBRANCH   8   9
ENDBRANCH   7   8
ENDBRANCH   6   7
ENDBRANCH   5   6
BRANCH   5  18
HETATM   18  N           1     -22.259  -6.122  -3.627  0.00  0.00    -0.067 N 
HETATM   19  H           1     -22.802  -5.532  -4.298  0.00  0.00     0.275 HD
HETATM   20  H           1     -22.004  -5.553  -2.790  0.00  0.00     0.275 HD
HETATM   21  H           1     -22.841  -6.938  -3.331  0.00  0.00     0.275 HD
ENDBRANCH   5  18
ENDBRANCH   1   5
BRANCH   2  22
HETATM   22  C           1     -21.267  -4.990  -7.754  0.00  0.00     0.187 C 
BRANCH  22  23
HETATM   23  C           1     -19.900  -4.741  -8.342  0.00  0.00     0.196 C 
HETATM   24  O           1     -19.709  -4.890  -9.568  0.00  0.00    -0.646 OA
HETATM   25  O           1     -18.957  -4.385  -7.602  0.00  0.00    -0.646 OA
ENDBRANCH  22  23
BRANCH  22  26
HETATM   26  C           1     -22.170  -3.797  -8.046  0.00  0.00     0.066 C 
BRANCH  26  27
HETATM   27  C           1     -23.463  -4.284  -8.686  0.00  0.00     0.273 C 
BRANCH  27  28
HETATM   28  N           1     -23.199  -4.720 -10.031  0.00  0.00     0.100 N 
HETATM   29  H           1     -24.022  -5.197 -10.401  0.00  0.00     0.317 HD
BRANCH  28  30
HETATM   30  C           1     -22.925  -3.552 -10.823  0.00  0.00     0.343 C 
BRANCH  30  31
HETATM   31  C           1     -24.173  -3.144 -11.566  0.00  0.00     0.209 C 
HETATM   32  O           1     -24.106  -2.824 -12.773  0.00  0.00    -0.646 OA
HETATM   33  O           1     -25.275  -3.128 -10.975  0.00  0.00    -0.646 OA
ENDBRANCH  30  31
BRANCH  30  34
HETATM   34  C           1     -21.819  -3.866 -11.822  0.00  0.00     0.211 C 
BRANCH  34  35
HETATM   35  O           1     -20.738  -2.998 -11.610  0.00  0.00    -0.398 OA
HETATM   36  H           1     -20.995  -2.154 -11.939  0.00  0.00     0.209 HD
ENDBRANCH  34  35
ENDBRANCH  30  34
ENDBRANCH  28  30
ENDBRANCH  27  28
ENDBRANCH  26  27
ENDBRANCH  22  26
ENDBRANCH   2  22
TORSDOF 15
ENDMDL
MODEL 8
REMARK VINA RESULT:      -6.5      1.769      2.552
REMARK  15 active torsions:
REMARK  status: ('A' for Active; 'I' for Inactive)
REMARK    1  A    between atoms: C_1  and  C_2 
REMARK    2  A    between atoms: C_1  and  C_20 
REMARK    3  A    between atoms: C_1  and  N_32 
REMARK       I    between atoms: C_2  and  N_3 
REMARK    4  A    between atoms: N_3  and  C_12 
REMARK    5  A    between atoms: C_6  and  C_7 
REMARK    6  A    between atoms: C_7  and  C_8 
REMARK    7  A    between atoms: C_7  and  N_17 
REMARK    8  A    between atoms: C_8  and  O_29 
REMARK       I    between atoms: C_9  and  N_10 
REMARK       I    between atoms: C_9  and  N_30 
REMARK    9  A    between atoms: N_10  and  C_18 
REMARK   10  A    between atoms: C_11  and  C_12 
REMARK   11  A    between atoms: C_12  and  C_13 
REMARK   12  A    between atoms: C_13  and  C_14 
REMARK   13  A    between atoms: C_14  and  N_17 
REMARK   14  A    between atoms: C_18  and  C_19 
REMARK   15  A    between atoms: C_19  and  C_20 
ROOT
HETATM    1  C           1     -20.507  -4.369  -7.952  0.00  0.00     0.249 C 
HETATM    2  N           1     -21.816  -4.467  -8.338  0.00  0.00    -0.345 N 
HETATM    3  O           1     -19.750  -3.652  -8.563  0.00  0.00    -0.271 OA
HETATM    4  H           1     -22.452  -5.067  -7.827  0.00  0.00     0.163 HD
ENDROOT
BRANCH   1   5
HETATM    5  C           1     -20.009  -5.156  -6.765  0.00  0.00     0.274 C 
BRANCH   5   6
HETATM    6  C           1     -20.497  -6.595  -6.869  0.00  0.00     0.044 C 
BRANCH   6   7
HETATM    7  C           1     -21.320  -6.943  -5.634  0.00  0.00     0.023 C 
BRANCH   7   8
HETATM    8  C           1     -20.793  -8.234  -5.020  0.00  0.00     0.138 C 
BRANCH   8   9
HETATM    9  N           1     -19.512  -8.588  -5.647  0.00  0.00    -0.227 N 
HETATM   10  C           1     -18.706  -9.361  -5.049  0.00  0.00     0.665 C 
HETATM   11  N           1     -17.603  -9.666  -5.588  0.00  0.00    -0.235 N 
HETATM   12  N           1     -19.014  -9.841  -3.880  0.00  0.00    -0.235 N 
HETATM   13  H           1     -17.355  -9.278  -6.532  0.00  0.00     0.174 HD
HETATM   14  H           1     -16.935 -10.307  -5.093  0.00  0.00     0.174 HD
HETATM   15  H           1     -19.925  -9.589  -3.435  0.00  0.00     0.174 HD
HETATM   16  H           1     -18.350 -10.479  -3.387  0.00  0.00     0.174 HD
HETATM   17  H           1     -19.263  -8.200  -6.591  0.00  0.00     0.177 HD
ENDBRANCH   8   9
ENDBRANCH   7   8
ENDBRANCH   6   7
ENDBRANCH   5   6
BRANCH   5  18
HETATM   18  N           1     -20.534  -4.540  -5.502  0.00  0.00    -0.067 N 
HETATM   19  H           1     -21.297  -5.139  -5.113  0.00  0.00     0.275 HD
HETATM   20  H           1     -20.909  -3.588  -5.710  0.00  0.00     0.275 HD
HETATM   21  H           1     -19.760  -4.465  -4.804  0.00  0.00     0.275 HD
ENDBRANCH   5  18
ENDBRANCH   1   5
BRANCH   2  22
HETATM   22  C           1     -22.295  -3.711  -9.479  0.00  0.00     0.187 C 
BRANCH  22  23
HETATM   23  C           1     -23.785  -3.901  -9.619  0.00  0.00     0.196 C 
HETATM   24  O           1     -24.565  -2.972  -9.317  0.00  0.00    -0.646 OA
HETATM   25  O           1     -24.240  -4.987 -10.038  0.00  0.00    -0.646 OA
ENDBRANCH  22  23
BRANCH  22  26
HETATM   26  C           1     -21.598  -4.203 -10.742  0.00  0.00     0.066 C 
BRANCH  26  27
HETATM   27  C           1     -21.507  -3.063 -11.748  0.00  0.00     0.273 C 
BRANCH  27  28
HETATM   28  N           1     -21.995  -3.510 -13.026  0.00  0.00     0.100 N 
HETATM   29  H           1     -22.336  -4.468 -12.943  0.00  0.00     0.317 HD
BRANCH  28  30
HETATM   30  C           1     -23.079  -2.646 -13.406  0.00  0.00     0.343 C 
BRANCH  30  31
HETATM   31  C           1     -24.389  -3.370 -13.215  0.00  0.00     0.209 C 
HETATM   32  O           1     -24.524  -4.539 -13.636  0.00  0.00    -0.646 OA
HETATM   33  O           1     -25.339  -2.800 -12.635  0.00  0.00    -0.646 OA
ENDBRANCH  30  31
BRANCH  30  34
HETATM   34  C           1     -22.924  -2.253 -14.869  0.00  0.00     0.211 C 
BRANCH  34  35
HETATM   35  O           1     -24.077  -1.581 -15.298  0.00  0.00    -0.398 OA
HETATM   36  H           1     -23.836  -0.680 -15.431  0.00  0.00     0.209 HD
ENDBRANCH  34  35
ENDBRANCH  30  34
ENDBRANCH  28  30
ENDBRANCH  27  28
ENDBRANCH  26  27
ENDBRANCH  22  26
ENDBRANCH   2  22
TORSDOF 15
ENDMDL
MODEL 9
REMARK VINA RESULT:      -6.3      4.969      9.749
REMARK  15 active torsions:
REMARK  status: ('A' for Active; 'I' for Inactive)
REMARK    1  A    between atoms: C_1  and  C_2 
REMARK    2  A    between atoms: C_1  and  C_20 
REMARK    3  A    between atoms: C_1  and  N_32 
REMARK       I    between atoms: C_2  and  N_3 
REMARK    4  A    between atoms: N_3  and  C_12 
REMARK    5  A    between atoms: C_6  and  C_7 
REMARK    6  A    between atoms: C_7  and  C_8 
REMARK    7  A    between atoms: C_7  and  N_17 
REMARK    8  A    between atoms: C_8  and  O_29 
REMARK       I    between atoms: C_9  and  N_10 
REMARK       I    between atoms: C_9  and  N_30 
REMARK    9  A    between atoms: N_10  and  C_18 
REMARK   10  A    between atoms: C_11  and  C_12 
REMARK   11  A    between atoms: C_12  and  C_13 
REMARK   12  A    between atoms: C_13  and  C_14 
REMARK   13  A    between atoms: C_14  and  N_17 
REMARK   14  A    between atoms: C_18  and  C_19 
REMARK   15  A    between atoms: C_19  and  C_20 
ROOT
HETATM    1  C           1     -20.777  -6.796  -5.462  0.00  0.00     0.249 C 
HETATM    2  N           1     -20.222  -8.018  -5.730  0.00  0.00    -0.345 N 
HETATM    3  O           1     -20.637  -6.296  -4.371  0.00  0.00    -0.271 OA
HETATM    4  H           1     -20.339  -8.437  -6.644  0.00  0.00     0.163 HD
ENDROOT
BRANCH   1   5
HETATM    5  C           1     -21.565  -6.075  -6.528  0.00  0.00     0.274 C 
BRANCH   5   6
HETATM    6  C           1     -20.700  -4.988  -7.151  0.00  0.00     0.044 C 
BRANCH   6   7
HETATM    7  C           1     -21.548  -3.749  -7.411  0.00  0.00     0.023 C 
BRANCH   7   8
HETATM    8  C           1     -22.118  -3.811  -8.823  0.00  0.00     0.138 C 
BRANCH   8   9
HETATM    9  N           1     -23.550  -3.486  -8.788  0.00  0.00    -0.227 N 
HETATM   10  C           1     -24.315  -3.893  -9.712  0.00  0.00     0.665 C 
HETATM   11  N           1     -25.549  -3.613  -9.683  0.00  0.00    -0.235 N 
HETATM   12  N           1     -23.832  -4.601 -10.690  0.00  0.00    -0.235 N 
HETATM   13  H           1     -25.939  -3.041  -8.893  0.00  0.00     0.174 HD
HETATM   14  H           1     -26.183  -3.951 -10.449  0.00  0.00     0.174 HD
HETATM   15  H           1     -22.813  -4.833 -10.714  0.00  0.00     0.174 HD
HETATM   16  H           1     -24.462  -4.937 -11.452  0.00  0.00     0.174 HD
HETATM   17  H           1     -23.941  -2.914  -7.998  0.00  0.00     0.177 HD
ENDBRANCH   8   9
ENDBRANCH   7   8
ENDBRANCH   6   7
ENDBRANCH   5   6
BRANCH   5  18
HETATM   18  N           1     -22.784  -5.453  -5.913  0.00  0.00    -0.067 N 
HETATM   19  H           1     -23.425  -5.121  -6.669  0.00  0.00     0.275 HD
HETATM   20  H           1     -22.498  -4.643  -5.319  0.00  0.00     0.275 HD
HETATM   21  H           1     -23.277  -6.161  -5.324  0.00  0.00     0.275 HD
ENDBRANCH   5  18
ENDBRANCH   1   5
BRANCH   2  22
HETATM   22  C           1     -19.465  -8.711  -4.706  0.00  0.00     0.187 C 
BRANCH  22  23
HETATM   23  C           1     -18.314  -9.448  -5.344  0.00  0.00     0.196 C 
HETATM   24  O           1     -17.660 -10.281  -4.681  0.00  0.00    -0.646 OA
HETATM   25  O           1     -18.014  -9.226  -6.537  0.00  0.00    -0.646 OA
ENDBRANCH  22  23
BRANCH  22  26
HETATM   26  C           1     -20.371  -9.704  -3.990  0.00  0.00     0.066 C 
BRANCH  26  27
HETATM   27  C           1     -20.492  -9.316  -2.523  0.00  0.00     0.273 C 
BRANCH  27  28
HETATM   28  N           1     -21.619  -8.439  -2.349  0.00  0.00     0.100 N 
HETATM   29  H           1     -22.482  -8.976  -2.434  0.00  0.00     0.317 HD
BRANCH  28  30
HETATM   30  C           1     -21.534  -7.874  -1.030  0.00  0.00     0.343 C 
BRANCH  30  31
HETATM   31  C           1     -21.988  -8.895  -0.016  0.00  0.00     0.209 C 
HETATM   32  O           1     -21.233  -9.219   0.926  0.00  0.00    -0.646 OA
HETATM   33  O           1     -23.120  -9.415  -0.117  0.00  0.00    -0.646 OA
ENDBRANCH  30  31
BRANCH  30  34
HETATM   34  C           1     -22.428  -6.643  -0.948  0.00  0.00     0.211 C 
BRANCH  34  35
HETATM   35  O           1     -22.430  -5.984  -2.185  0.00  0.00    -0.398 OA
HETATM   36  H           1     -23.262  -6.161  -2.589  0.00  0.00     0.209 HD
ENDBRANCH  34  35
ENDBRANCH  30  34
ENDBRANCH  28  30
ENDBRANCH  27  28
ENDBRANCH  26  27
ENDBRANCH  22  26
ENDBRANCH   2  22
TORSDOF 15
ENDMDL
