MODEL 1
REMARK VINA RESULT:      -8.8      0.000      0.000
REMARK  8 active torsions:
REMARK  status: ('A' for Active; 'I' for Inactive)
REMARK       I    between atoms: C_1  and  N_2 
REMARK    1  A    between atoms: C_1  and  C_17 
REMARK    2  A    between atoms: N_2  and  C_20 
REMARK    3  A    between atoms: C_3  and  C_31 
REMARK    4  A    between atoms: C_8  and  C_20 
REMARK    5  A    between atoms: N_10  and  C_17 
REMARK    6  A    between atoms: C_17  and  C_31 
REMARK    7  A    between atoms: C_18  and  C_19 
REMARK    8  A    between atoms: C_19  and  C_20 
ROOT
HETATM    1  C           1     -20.220  -5.794  -6.373  0.00  0.00     0.249 C 
HETATM    2  N           1     -19.778  -7.089  -6.377  0.00  0.00    -0.344 N 
HETATM    3  H           1     -19.359  -7.479  -7.212  0.00  0.00     0.163 HD
HETATM    4  O           1     -19.473  -4.901  -6.048  0.00  0.00    -0.271 OA
ENDROOT
BRANCH   2   5
HETATM    5  C           1     -19.911  -7.904  -5.185  0.00  0.00     0.190 C 
BRANCH   5   6
HETATM    6  C           1     -18.793  -8.916  -5.141  0.00  0.00     0.197 C 
HETATM    7  O           1     -18.429  -9.491  -6.190  0.00  0.00    -0.646 OA
HETATM    8  O           1     -18.229  -9.179  -4.057  0.00  0.00    -0.646 OA
ENDBRANCH   5   6
BRANCH   5   9
HETATM    9  C           1     -21.251  -8.627  -5.211  0.00  0.00     0.077 C 
BRANCH   9  10
HETATM   10  C           1     -21.544  -9.186  -3.855  0.00  0.00    -0.028 A 
HETATM   11  C           1     -21.808  -8.434  -2.676  0.00  0.00    -0.002 A 
HETATM   12  C           1     -21.880  -7.059  -2.388  0.00  0.00     0.014 A 
HETATM   13  C           1     -22.027  -9.349  -1.646  0.00  0.00     0.042 A 
HETATM   14  C           1     -22.169  -6.646  -1.082  0.00  0.00     0.001 A 
HETATM   15  C           1     -22.384  -7.582  -0.072  0.00  0.00     0.002 A 
HETATM   16  C           1     -22.318  -8.954  -0.334  0.00  0.00     0.030 A 
HETATM   17  N           1     -21.899 -10.608  -2.188  0.00  0.00    -0.365 N 
HETATM   18  H           1     -22.010 -11.506  -1.655  0.00  0.00     0.165 HD
HETATM   19  C           1     -21.607 -10.521  -3.523  0.00  0.00     0.096 A 
ENDBRANCH   9  10
ENDBRANCH   5   9
ENDBRANCH   2   5
BRANCH   1  20
HETATM   20  C           1     -21.641  -5.480  -6.776  0.00  0.00     0.278 C 
BRANCH  20  21
HETATM   21  N           1     -22.531  -5.569  -5.572  0.00  0.00    -0.066 N 
HETATM   22  H           1     -22.814  -6.564  -5.422  0.00  0.00     0.275 HD
HETATM   23  H           1     -22.017  -5.224  -4.732  0.00  0.00     0.275 HD
HETATM   24  H           1     -23.383  -4.984  -5.725  0.00  0.00     0.275 HD
ENDBRANCH  20  21
BRANCH  20  25
HETATM   25  C           1     -21.706  -4.072  -7.353  0.00  0.00     0.081 C 
BRANCH  25  26
HETATM   26  C           1     -21.709  -4.144  -8.848  0.00  0.00    -0.056 A 
HETATM   27  C           1     -22.915  -4.254  -9.539  0.00  0.00     0.007 A 
HETATM   28  C           1     -22.918  -4.321 -10.932  0.00  0.00     0.001 A 
HETATM   29  C           1     -21.713  -4.276 -11.634  0.00  0.00     0.000 A 
HETATM   30  C           1     -20.506  -4.166 -10.944  0.00  0.00     0.001 A 
HETATM   31  C           1     -20.504  -4.099  -9.550  0.00  0.00     0.007 A 
ENDBRANCH  25  26
ENDBRANCH  20  25
ENDBRANCH   1  20
TORSDOF 8
ENDMDL
MODEL 2
REMARK VINA RESULT:      -8.7      1.388      1.966
REMARK  8 active torsions:
REMARK  status: ('A' for Active; 'I' for Inactive)
REMARK       I    between atoms: C_1  and  N_2 
REMARK    1  A    between atoms: C_1  and  C_17 
REMARK    2  A    between atoms: N_2  and  C_20 
REMARK    3  A    between atoms: C_3  and  C_31 
REMARK    4  A    between atoms: C_8  and  C_20 
REMARK    5  A    between atoms: N_10  and  C_17 
REMARK    6  A    between atoms: C_17  and  C_31 
REMARK    7  A    between atoms: C_18  and  C_19 
REMARK    8  A    between atoms: C_19  and  C_20 
ROOT
HETATM    1  C           1     -20.133  -6.360  -6.748  0.00  0.00     0.249 C 
HETATM    2  N           1     -20.752  -7.441  -6.182  0.00  0.00    -0.344 N 
HETATM    3  H           1     -21.475  -7.934  -6.691  0.00  0.00     0.163 HD
HETATM    4  O           1     -19.136  -6.514  -7.413  0.00  0.00    -0.271 OA
ENDROOT
BRANCH   2   5
HETATM    5  C           1     -20.373  -7.880  -4.853  0.00  0.00     0.190 C 
BRANCH   5   6
HETATM    6  C           1     -19.269  -8.902  -4.958  0.00  0.00     0.197 C 
HETATM    7  O           1     -19.135  -9.574  -6.004  0.00  0.00    -0.646 OA
HETATM    8  O           1     -18.486  -9.078  -3.999  0.00  0.00    -0.646 OA
ENDBRANCH   5   6
BRANCH   5   9
HETATM    9  C           1     -21.579  -8.503  -4.162  0.00  0.00     0.077 C 
BRANCH   9  10
HETATM   10  C           1     -21.756  -7.884  -2.811  0.00  0.00    -0.028 A 
HETATM   11  C           1     -21.510  -8.515  -1.560  0.00  0.00    -0.002 A 
HETATM   12  C           1     -21.067  -9.795  -1.180  0.00  0.00     0.014 A 
HETATM   13  C           1     -21.803  -7.582  -0.565  0.00  0.00     0.042 A 
HETATM   14  C           1     -20.931 -10.097   0.181  0.00  0.00     0.001 A 
HETATM   15  C           1     -21.230  -9.146   1.153  0.00  0.00     0.002 A 
HETATM   16  C           1     -21.672  -7.868   0.800  0.00  0.00     0.030 A 
HETATM   17  N           1     -22.210  -6.430  -1.198  0.00  0.00    -0.365 N 
HETATM   18  H           1     -22.499  -5.545  -0.709  0.00  0.00     0.165 HD
HETATM   19  C           1     -22.186  -6.601  -2.556  0.00  0.00     0.096 A 
ENDBRANCH   9  10
ENDBRANCH   5   9
ENDBRANCH   2   5
BRANCH   1  20
HETATM   20  C           1     -20.696  -4.974  -6.542  0.00  0.00     0.278 C 
BRANCH  20  21
HETATM   21  N           1     -20.258  -4.452  -5.206  0.00  0.00    -0.066 N 
HETATM   22  H           1     -20.870  -4.851  -4.459  0.00  0.00     0.275 HD
HETATM   23  H           1     -19.267  -4.732  -5.030  0.00  0.00     0.275 HD
HETATM   24  H           1     -20.333  -3.410  -5.198  0.00  0.00     0.275 HD
ENDBRANCH  20  21
BRANCH  20  25
HETATM   25  C           1     -20.187  -4.051  -7.640  0.00  0.00     0.081 C 
BRANCH  25  26
HETATM   26  C           1     -21.073  -4.167  -8.842  0.00  0.00    -0.056 A 
HETATM   27  C           1     -22.459  -4.177  -8.689  0.00  0.00     0.007 A 
HETATM   28  C           1     -23.283  -4.285  -9.809  0.00  0.00     0.001 A 
HETATM   29  C           1     -22.721  -4.382 -11.082  0.00  0.00     0.000 A 
HETATM   30  C           1     -21.335  -4.371 -11.235  0.00  0.00     0.001 A 
HETATM   31  C           1     -20.510  -4.263 -10.115  0.00  0.00     0.007 A 
ENDBRANCH  25  26
ENDBRANCH  20  25
ENDBRANCH   1  20
TORSDOF 8
ENDMDL
MODEL 3
REMARK VINA RESULT:      -8.6      1.697      2.293
REMARK  8 active torsions:
REMARK  status: ('A' for Active; 'I' for Inactive)
REMARK       I    between atoms: C_1  and  N_2 
REMARK    1  A    between atoms: C_1  and  C_17 
REMARK    2  A    between atoms: N_2  and  C_20 
REMARK    3  A    between atoms: C_3  and  C_31 
REMARK    4  A    between atoms: C_8  and  C_20 
REMARK    5  A    between atoms: N_10  and  C_17 
REMARK    6  A    between atoms: C_17  and  C_31 
REMARK    7  A    between atoms: C_18  and  C_19 
REMARK    8  A    between atoms: C_19  and  C_20 
ROOT
HETATM    1  C           1     -20.332  -5.485  -6.865  0.00  0.00     0.249 C 
HETATM    2  N           1     -20.388  -6.833  -6.636  0.00  0.00    -0.344 N 
HETATM    3  H           1     -19.861  -7.468  -7.223  0.00  0.00     0.163 HD
HETATM    4  O           1     -19.491  -4.813  -6.316  0.00  0.00    -0.271 OA
ENDROOT
BRANCH   2   5
HETATM    5  C           1     -21.201  -7.352  -5.554  0.00  0.00     0.190 C 
BRANCH   5   6
HETATM    6  C           1     -21.949  -6.217  -4.899  0.00  0.00     0.197 C 
HETATM    7  O           1     -23.107  -5.933  -5.274  0.00  0.00    -0.646 OA
HETATM    8  O           1     -21.411  -5.561  -3.982  0.00  0.00    -0.646 OA
ENDBRANCH   5   6
BRANCH   5   9
HETATM    9  C           1     -20.305  -8.031  -4.526  0.00  0.00     0.077 C 
BRANCH   9  10
HETATM   10  C           1     -21.116  -8.986  -3.708  0.00  0.00    -0.028 A 
HETATM   11  C           1     -21.549  -8.784  -2.368  0.00  0.00    -0.002 A 
HETATM   12  C           1     -21.394  -7.742  -1.435  0.00  0.00     0.014 A 
HETATM   13  C           1     -22.272  -9.918  -1.995  0.00  0.00     0.042 A 
HETATM   14  C           1     -21.966  -7.870  -0.163  0.00  0.00     0.001 A 
HETATM   15  C           1     -22.684  -9.014   0.182  0.00  0.00     0.002 A 
HETATM   16  C           1     -22.852 -10.062  -0.729  0.00  0.00     0.030 A 
HETATM   17  N           1     -22.273 -10.771  -3.076  0.00  0.00    -0.365 N 
HETATM   18  H           1     -22.740 -11.711  -3.099  0.00  0.00     0.165 HD
HETATM   19  C           1     -21.576 -10.217  -4.117  0.00  0.00     0.096 A 
ENDBRANCH   9  10
ENDBRANCH   5   9
ENDBRANCH   2   5
BRANCH   1  20
HETATM   20  C           1     -21.321  -4.837  -7.803  0.00  0.00     0.278 C 
BRANCH  20  21
HETATM   21  N           1     -21.893  -3.611  -7.156  0.00  0.00    -0.066 N 
HETATM   22  H           1     -22.485  -3.892  -6.341  0.00  0.00     0.275 HD
HETATM   23  H           1     -21.116  -2.997  -6.825  0.00  0.00     0.275 HD
HETATM   24  H           1     -22.478  -3.092  -7.849  0.00  0.00     0.275 HD
ENDBRANCH  20  21
BRANCH  20  25
HETATM   25  C           1     -20.616  -4.447  -9.095  0.00  0.00     0.081 C 
BRANCH  25  26
HETATM   26  C           1     -21.633  -4.177 -10.159  0.00  0.00    -0.056 A 
HETATM   27  C           1     -21.338  -3.297 -11.200  0.00  0.00     0.007 A 
HETATM   28  C           1     -22.287  -3.046 -12.191  0.00  0.00     0.001 A 
HETATM   29  C           1     -23.530  -3.676 -12.142  0.00  0.00     0.000 A 
HETATM   30  C           1     -23.825  -4.557 -11.102  0.00  0.00     0.001 A 
HETATM   31  C           1     -22.876  -4.808 -10.110  0.00  0.00     0.007 A 
ENDBRANCH  25  26
ENDBRANCH  20  25
ENDBRANCH   1  20
TORSDOF 8
ENDMDL
MODEL 4
REMARK VINA RESULT:      -8.6      2.022      8.136
REMARK  8 active torsions:
REMARK  status: ('A' for Active; 'I' for Inactive)
REMARK       I    between atoms: C_1  and  N_2 
REMARK    1  A    between atoms: C_1  and  C_17 
REMARK    2  A    between atoms: N_2  and  C_20 
REMARK    3  A    between atoms: C_3  and  C_31 
REMARK    4  A    between atoms: C_8  and  C_20 
REMARK    5  A    between atoms: N_10  and  C_17 
REMARK    6  A    between atoms: C_17  and  C_31 
REMARK    7  A    between atoms: C_18  and  C_19 
REMARK    8  A    between atoms: C_19  and  C_20 
ROOT
HETATM    1  C           1     -22.275  -6.459  -4.931  0.00  0.00     0.249 C 
HETATM    2  N           1     -21.801  -6.966  -6.110  0.00  0.00    -0.344 N 
HETATM    3  H           1     -21.839  -7.963  -6.284  0.00  0.00     0.163 HD
HETATM    4  O           1     -23.433  -6.125  -4.838  0.00  0.00    -0.271 OA
ENDROOT
BRANCH   2   5
HETATM    5  C           1     -21.245  -6.076  -7.111  0.00  0.00     0.190 C 
BRANCH   5   6
HETATM    6  C           1     -19.744  -6.036  -6.967  0.00  0.00     0.197 C 
HETATM    7  O           1     -19.144  -4.938  -6.977  0.00  0.00    -0.646 OA
HETATM    8  O           1     -19.099  -7.098  -6.839  0.00  0.00    -0.646 OA
ENDBRANCH   5   6
BRANCH   5   9
HETATM    9  C           1     -21.813  -4.676  -6.916  0.00  0.00     0.077 C 
BRANCH   9  10
HETATM   10  C           1     -22.614  -4.289  -8.119  0.00  0.00    -0.028 A 
HETATM   11  C           1     -22.098  -4.010  -9.415  0.00  0.00    -0.002 A 
HETATM   12  C           1     -20.807  -3.996  -9.973  0.00  0.00     0.014 A 
HETATM   13  C           1     -23.186  -3.693 -10.229  0.00  0.00     0.042 A 
HETATM   14  C           1     -20.648  -3.666 -11.325  0.00  0.00     0.001 A 
HETATM   15  C           1     -21.752  -3.354 -12.115  0.00  0.00     0.002 A 
HETATM   16  C           1     -23.045  -3.361 -11.583  0.00  0.00     0.030 A 
HETATM   17  N           1     -24.316  -3.780  -9.448  0.00  0.00    -0.365 N 
HETATM   18  H           1     -25.294  -3.596  -9.783  0.00  0.00     0.165 HD
HETATM   19  C           1     -23.981  -4.140  -8.169  0.00  0.00     0.096 A 
ENDBRANCH   9  10
ENDBRANCH   5   9
ENDBRANCH   2   5
BRANCH   1  20
HETATM   20  C           1     -21.352  -6.318  -3.744  0.00  0.00     0.278 C 
BRANCH  20  21
HETATM   21  N           1     -20.478  -5.114  -3.934  0.00  0.00    -0.066 N 
HETATM   22  H           1     -19.764  -5.315  -4.671  0.00  0.00     0.275 HD
HETATM   23  H           1     -21.063  -4.301  -4.230  0.00  0.00     0.275 HD
HETATM   24  H           1     -19.995  -4.889  -3.035  0.00  0.00     0.275 HD
ENDBRANCH  20  21
BRANCH  20  25
HETATM   25  C           1     -22.177  -6.151  -2.476  0.00  0.00     0.081 C 
BRANCH  25  26
HETATM   26  C           1     -21.868  -7.267  -1.527  0.00  0.00    -0.056 A 
HETATM   27  C           1     -22.475  -7.306  -0.273  0.00  0.00     0.007 A 
HETATM   28  C           1     -22.186  -8.346   0.611  0.00  0.00     0.001 A 
HETATM   29  C           1     -21.290  -9.348   0.238  0.00  0.00     0.000 A 
HETATM   30  C           1     -20.683  -9.310  -1.017  0.00  0.00     0.001 A 
HETATM   31  C           1     -20.972  -8.270  -1.900  0.00  0.00     0.007 A 
ENDBRANCH  25  26
ENDBRANCH  20  25
ENDBRANCH   1  20
TORSDOF 8
ENDMDL
MODEL 5
REMARK VINA RESULT:      -8.5      1.716      8.390
REMARK  8 active torsions:
REMARK  status: ('A' for Active; 'I' for Inactive)
REMARK       I    between atoms: C_1  and  N_2 
REMARK    1  A    between atoms: C_1  and  C_17 
REMARK    2  A    between atoms: N_2  and  C_20 
REMARK    3  A    between atoms: C_3  and  C_31 
REMARK    4  A    between atoms: C_8  and  C_20 
REMARK    5  A    between atoms: N_10  and  C_17 
REMARK    6  A    between atoms: C_17  and  C_31 
REMARK    7  A    between atoms: C_18  and  C_19 
REMARK    8  A    between atoms: C_19  and  C_20 
ROOT
HETATM    1  C           1     -21.802  -6.455  -4.519  0.00  0.00     0.249 C 
HETATM    2  N           1     -22.373  -5.854  -5.608  0.00  0.00    -0.344 N 
HETATM    3  H           1     -23.356  -5.614  -5.596  0.00  0.00     0.163 HD
HETATM    4  O           1     -21.314  -5.780  -3.643  0.00  0.00    -0.271 OA
ENDROOT
BRANCH   2   5
HETATM    5  C           1     -21.570  -5.563  -6.780  0.00  0.00     0.190 C 
BRANCH   5   6
HETATM    6  C           1     -20.109  -5.589  -6.406  0.00  0.00     0.197 C 
HETATM    7  O           1     -19.416  -6.599  -6.659  0.00  0.00    -0.646 OA
HETATM    8  O           1     -19.589  -4.602  -5.843  0.00  0.00    -0.646 OA
ENDBRANCH   5   6
BRANCH   5   9
HETATM    9  C           1     -21.934  -4.184  -7.314  0.00  0.00     0.077 C 
BRANCH   9  10
HETATM   10  C           1     -21.576  -4.100  -8.764  0.00  0.00    -0.028 A 
HETATM   11  C           1     -22.470  -3.813  -9.833  0.00  0.00    -0.002 A 
HETATM   12  C           1     -23.848  -3.538  -9.911  0.00  0.00     0.014 A 
HETATM   13  C           1     -21.722  -3.833 -11.011  0.00  0.00     0.042 A 
HETATM   14  C           1     -24.429  -3.294 -11.161  0.00  0.00     0.001 A 
HETATM   15  C           1     -23.658  -3.320 -12.321  0.00  0.00     0.002 A 
HETATM   16  C           1     -22.287  -3.590 -12.269  0.00  0.00     0.030 A 
HETATM   17  N           1     -20.423  -4.123 -10.660  0.00  0.00    -0.365 N 
HETATM   18  H           1     -19.622  -4.206 -11.335  0.00  0.00     0.165 HD
HETATM   19  C           1     -20.323  -4.286  -9.304  0.00  0.00     0.096 A 
ENDBRANCH   9  10
ENDBRANCH   5   9
ENDBRANCH   2   5
BRANCH   1  20
HETATM   20  C           1     -21.781  -7.960  -4.411  0.00  0.00     0.278 C 
BRANCH  20  21
HETATM   21  N           1     -21.241  -8.543  -5.683  0.00  0.00    -0.066 N 
HETATM   22  H           1     -20.199  -8.461  -5.689  0.00  0.00     0.275 HD
HETATM   23  H           1     -21.511  -9.550  -5.746  0.00  0.00     0.275 HD
HETATM   24  H           1     -21.636  -8.024  -6.499  0.00  0.00     0.275 HD
ENDBRANCH  20  21
BRANCH  20  25
HETATM   25  C           1     -20.891  -8.373  -3.246  0.00  0.00     0.081 C 
BRANCH  25  26
HETATM   26  C           1     -21.737  -8.937  -2.147  0.00  0.00    -0.056 A 
HETATM   27  C           1     -22.263 -10.224  -2.261  0.00  0.00     0.007 A 
HETATM   28  C           1     -23.051 -10.749  -1.237  0.00  0.00     0.001 A 
HETATM   29  C           1     -23.311  -9.987  -0.098  0.00  0.00     0.000 A 
HETATM   30  C           1     -22.785  -8.701   0.018  0.00  0.00     0.001 A 
HETATM   31  C           1     -21.997  -8.176  -1.007  0.00  0.00     0.007 A 
ENDBRANCH  25  26
ENDBRANCH  20  25
ENDBRANCH   1  20
TORSDOF 8
ENDMDL
MODEL 6
REMARK VINA RESULT:      -8.1      1.223      1.772
REMARK  8 active torsions:
REMARK  status: ('A' for Active; 'I' for Inactive)
REMARK       I    between atoms: C_1  and  N_2 
REMARK    1  A    between atoms: C_1  and  C_17 
REMARK    2  A    between atoms: N_2  and  C_20 
REMARK    3  A    between atoms: C_3  and  C_31 
REMARK    4  A    between atoms: C_8  and  C_20 
REMARK    5  A    between atoms: N_10  and  C_17 
REMARK    6  A    between atoms: C_17  and  C_31 
REMARK    7  A    between atoms: C_18  and  C_19 
REMARK    8  A    between atoms: C_19  and  C_20 
ROOT
HETATM    1  C           1     -20.469  -6.866  -6.247  0.00  0.00     0.249 C 
HETATM    2  N           1     -20.833  -8.167  -6.023  0.00  0.00    -0.344 N 
HETATM    3  H           1     -21.406  -8.655  -6.699  0.00  0.00     0.163 HD
HETATM    4  O           1     -19.446  -6.619  -6.841  0.00  0.00    -0.271 OA
ENDROOT
BRANCH   2   5
HETATM    5  C           1     -20.397  -8.844  -4.817  0.00  0.00     0.190 C 
BRANCH   5   6
HETATM    6  C           1     -19.247  -9.763  -5.145  0.00  0.00     0.197 C 
HETATM    7  O           1     -18.199  -9.723  -4.464  0.00  0.00    -0.646 OA
HETATM    8  O           1     -19.341 -10.567  -6.097  0.00  0.00    -0.646 OA
ENDBRANCH   5   6
BRANCH   5   9
HETATM    9  C           1     -21.552  -9.656  -4.246  0.00  0.00     0.077 C 
BRANCH   9  10
HETATM   10  C           1     -21.252 -10.023  -2.827  0.00  0.00    -0.028 A 
HETATM   11  C           1     -21.489  -9.212  -1.683  0.00  0.00    -0.002 A 
HETATM   12  C           1     -22.025  -7.925  -1.489  0.00  0.00     0.014 A 
HETATM   13  C           1     -21.064  -9.937  -0.570  0.00  0.00     0.042 A 
HETATM   14  C           1     -22.117  -7.410  -0.190  0.00  0.00     0.001 A 
HETATM   15  C           1     -21.686  -8.157   0.903  0.00  0.00     0.002 A 
HETATM   16  C           1     -21.150  -9.437   0.736  0.00  0.00     0.030 A 
HETATM   17  N           1     -20.589 -11.144  -1.031  0.00  0.00    -0.365 N 
HETATM   18  H           1     -20.199 -11.908  -0.424  0.00  0.00     0.165 HD
HETATM   19  C           1     -20.698 -11.207  -2.394  0.00  0.00     0.096 A 
ENDBRANCH   9  10
ENDBRANCH   5   9
ENDBRANCH   2   5
BRANCH   1  20
HETATM   20  C           1     -21.345  -5.741  -5.753  0.00  0.00     0.278 C 
BRANCH  20  21
HETATM   21  N           1     -21.222  -5.632  -4.262  0.00  0.00    -0.066 N 
HETATM   22  H           1     -20.267  -5.937  -3.968  0.00  0.00     0.275 HD
HETATM   23  H           1     -21.375  -4.640  -3.971  0.00  0.00     0.275 HD
HETATM   24  H           1     -21.938  -6.243  -3.808  0.00  0.00     0.275 HD
ENDBRANCH  20  21
BRANCH  20  25
HETATM   25  C           1     -20.904  -4.433  -6.396  0.00  0.00     0.081 C 
BRANCH  25  26
HETATM   26  C           1     -21.551  -4.292  -7.738  0.00  0.00    -0.056 A 
HETATM   27  C           1     -20.776  -4.000  -8.860  0.00  0.00     0.007 A 
HETATM   28  C           1     -21.379  -3.868 -10.110  0.00  0.00     0.001 A 
HETATM   29  C           1     -22.759  -4.031 -10.239  0.00  0.00     0.000 A 
HETATM   30  C           1     -23.535  -4.325  -9.118  0.00  0.00     0.001 A 
HETATM   31  C           1     -22.931  -4.456  -7.867  0.00  0.00     0.007 A 
ENDBRANCH  25  26
ENDBRANCH  20  25
ENDBRANCH   1  20
TORSDOF 8
ENDMDL
MODEL 7
REMARK VINA RESULT:      -8.0      1.941      2.788
REMARK  8 active torsions:
REMARK  status: ('A' for Active; 'I' for Inactive)
REMARK       I    between atoms: C_1  and  N_2 
REMARK    1  A    between atoms: C_1  and  C_17 
REMARK    2  A    between atoms: N_2  and  C_20 
REMARK    3  A    between atoms: C_3  and  C_31 
REMARK    4  A    between atoms: C_8  and  C_20 
REMARK    5  A    between atoms: N_10  and  C_17 
REMARK    6  A    between atoms: C_17  and  C_31 
REMARK    7  A    between atoms: C_18  and  C_19 
REMARK    8  A    between atoms: C_19  and  C_20 
ROOT
HETATM    1  C           1     -22.510  -4.393  -6.973  0.00  0.00     0.249 C 
HETATM    2  N           1     -21.464  -4.221  -6.108  0.00  0.00    -0.344 N 
HETATM    3  H           1     -21.312  -3.321  -5.670  0.00  0.00     0.163 HD
HETATM    4  O           1     -23.585  -4.755  -6.557  0.00  0.00    -0.271 OA
ENDROOT
BRANCH   2   5
HETATM    5  C           1     -20.572  -5.327  -5.820  0.00  0.00     0.190 C 
BRANCH   5   6
HETATM    6  C           1     -19.554  -5.453  -6.926  0.00  0.00     0.197 C 
HETATM    7  O           1     -19.493  -6.501  -7.604  0.00  0.00    -0.646 OA
HETATM    8  O           1     -18.771  -4.508  -7.165  0.00  0.00    -0.646 OA
ENDBRANCH   5   6
BRANCH   5   9
HETATM    9  C           1     -21.378  -6.616  -5.722  0.00  0.00     0.077 C 
BRANCH   9  10
HETATM   10  C           1     -20.868  -7.440  -4.582  0.00  0.00    -0.028 A 
HETATM   11  C           1     -21.272  -7.333  -3.222  0.00  0.00    -0.002 A 
HETATM   12  C           1     -22.187  -6.513  -2.534  0.00  0.00     0.014 A 
HETATM   13  C           1     -20.549  -8.284  -2.503  0.00  0.00     0.042 A 
HETATM   14  C           1     -22.346  -6.674  -1.153  0.00  0.00     0.001 A 
HETATM   15  C           1     -21.610  -7.633  -0.459  0.00  0.00     0.002 A 
HETATM   16  C           1     -20.696  -8.458  -1.121  0.00  0.00     0.030 A 
HETATM   17  N           1     -19.738  -8.940  -3.401  0.00  0.00    -0.365 N 
HETATM   18  H           1     -19.073  -9.715  -3.155  0.00  0.00     0.165 HD
HETATM   19  C           1     -19.923  -8.438  -4.661  0.00  0.00     0.096 A 
ENDBRANCH   9  10
ENDBRANCH   5   9
ENDBRANCH   2   5
BRANCH   1  20
HETATM   20  C           1     -22.322  -4.130  -8.448  0.00  0.00     0.278 C 
BRANCH  20  21
HETATM   21  N           1     -21.933  -5.405  -9.135  0.00  0.00    -0.066 N 
HETATM   22  H           1     -20.894  -5.513  -9.108  0.00  0.00     0.275 HD
HETATM   23  H           1     -22.379  -6.214  -8.648  0.00  0.00     0.275 HD
HETATM   24  H           1     -22.254  -5.377 -10.129  0.00  0.00     0.275 HD
ENDBRANCH  20  21
BRANCH  20  25
HETATM   25  C           1     -23.623  -3.610  -9.042  0.00  0.00     0.081 C 
BRANCH  25  26
HETATM   26  C           1     -23.444  -3.373 -10.509  0.00  0.00    -0.056 A 
HETATM   27  C           1     -24.558  -3.295 -11.345  0.00  0.00     0.007 A 
HETATM   28  C           1     -24.391  -3.076 -12.712  0.00  0.00     0.001 A 
HETATM   29  C           1     -23.110  -2.932 -13.243  0.00  0.00     0.000 A 
HETATM   30  C           1     -21.995  -3.009 -12.408  0.00  0.00     0.001 A 
HETATM   31  C           1     -22.163  -3.229 -11.041  0.00  0.00     0.007 A 
ENDBRANCH  25  26
ENDBRANCH  20  25
ENDBRANCH   1  20
TORSDOF 8
ENDMDL
MODEL 8
REMARK VINA RESULT:      -7.8      2.118      7.756
REMARK  8 active torsions:
REMARK  status: ('A' for Active; 'I' for Inactive)
REMARK       I    between atoms: C_1  and  N_2 
REMARK    1  A    between atoms: C_1  and  C_17 
REMARK    2  A    between atoms: N_2  and  C_20 
REMARK    3  A    between atoms: C_3  and  C_31 
REMARK    4  A    between atoms: C_8  and  C_20 
REMARK    5  A    between atoms: N_10  and  C_17 
REMARK    6  A    between atoms: C_17  and  C_31 
REMARK    7  A    between atoms: C_18  and  C_19 
REMARK    8  A    between atoms: C_19  and  C_20 
ROOT
HETATM    1  C           1     -22.149  -6.592  -5.150  0.00  0.00     0.249 C 
HETATM    2  N           1     -21.783  -6.930  -6.425  0.00  0.00    -0.344 N 
HETATM    3  H           1     -21.945  -7.869  -6.766  0.00  0.00     0.163 HD
HETATM    4  O           1     -23.255  -6.154  -4.935  0.00  0.00    -0.271 OA
ENDROOT
BRANCH   2   5
HETATM    5  C           1     -21.163  -5.943  -7.287  0.00  0.00     0.190 C 
BRANCH   5   6
HETATM    6  C           1     -19.690  -5.857  -6.973  0.00  0.00     0.197 C 
HETATM    7  O           1     -19.154  -4.743  -6.785  0.00  0.00    -0.646 OA
HETATM    8  O           1     -19.004  -6.900  -6.900  0.00  0.00    -0.646 OA
ENDBRANCH   5   6
BRANCH   5   9
HETATM    9  C           1     -21.812  -4.585  -7.053  0.00  0.00     0.077 C 
BRANCH   9  10
HETATM   10  C           1     -22.615  -4.201  -8.255  0.00  0.00    -0.028 A 
HETATM   11  C           1     -22.102  -3.925  -9.553  0.00  0.00    -0.002 A 
HETATM   12  C           1     -20.811  -3.914 -10.114  0.00  0.00     0.014 A 
HETATM   13  C           1     -23.190  -3.609 -10.367  0.00  0.00     0.042 A 
HETATM   14  C           1     -20.654  -3.588 -11.467  0.00  0.00     0.001 A 
HETATM   15  C           1     -21.759  -3.277 -12.256  0.00  0.00     0.002 A 
HETATM   16  C           1     -23.051  -3.282 -11.721  0.00  0.00     0.030 A 
HETATM   17  N           1     -24.319  -3.692  -9.583  0.00  0.00    -0.365 N 
HETATM   18  H           1     -25.298  -3.509  -9.917  0.00  0.00     0.165 HD
HETATM   19  C           1     -23.982  -4.049  -8.304  0.00  0.00     0.096 A 
ENDBRANCH   9  10
ENDBRANCH   5   9
ENDBRANCH   2   5
BRANCH   1  20
HETATM   20  C           1     -21.173  -6.767  -4.013  0.00  0.00     0.278 C 
BRANCH  20  21
HETATM   21  N           1     -21.554  -5.856  -2.884  0.00  0.00    -0.066 N 
HETATM   22  H           1     -22.551  -5.563  -2.995  0.00  0.00     0.275 HD
HETATM   23  H           1     -21.439  -6.358  -1.976  0.00  0.00     0.275 HD
HETATM   24  H           1     -20.940  -5.011  -2.896  0.00  0.00     0.275 HD
ENDBRANCH  20  21
BRANCH  20  25
HETATM   25  C           1     -21.206  -8.211  -3.532  0.00  0.00     0.081 C 
BRANCH  25  26
HETATM   26  C           1     -19.860  -8.837  -3.734  0.00  0.00    -0.056 A 
HETATM   27  C           1     -18.953  -8.898  -2.677  0.00  0.00     0.007 A 
HETATM   28  C           1     -17.700  -9.480  -2.865  0.00  0.00     0.001 A 
HETATM   29  C           1     -17.355 -10.002  -4.112  0.00  0.00     0.000 A 
HETATM   30  C           1     -18.262  -9.942  -5.170  0.00  0.00     0.001 A 
HETATM   31  C           1     -19.515  -9.359  -4.981  0.00  0.00     0.007 A 
ENDBRANCH  25  26
ENDBRANCH  20  25
ENDBRANCH   1  20
TORSDOF 8
ENDMDL
MODEL 9
REMARK VINA RESULT:      -7.7      2.400      3.459
REMARK  8 active torsions:
REMARK  status: ('A' for Active; 'I' for Inactive)
REMARK       I    between atoms: C_1  and  N_2 
REMARK    1  A    between atoms: C_1  and  C_17 
REMARK    2  A    between atoms: N_2  and  C_20 
REMARK    3  A    between atoms: C_3  and  C_31 
REMARK    4  A    between atoms: C_8  and  C_20 
REMARK    5  A    between atoms: N_10  and  C_17 
REMARK    6  A    between atoms: C_17  and  C_31 
REMARK    7  A    between atoms: C_18  and  C_19 
REMARK    8  A    between atoms: C_19  and  C_20 
ROOT
HETATM    1  C           1     -20.269  -6.572  -6.604  0.00  0.00     0.249 C 
HETATM    2  N           1     -21.197  -7.458  -6.124  0.00  0.00    -0.344 N 
HETATM    3  H           1     -21.880  -7.864  -6.751  0.00  0.00     0.163 HD
HETATM    4  O           1     -19.206  -6.974  -7.014  0.00  0.00    -0.271 OA
ENDROOT
BRANCH   2   5
HETATM    5  C           1     -21.201  -7.813  -4.719  0.00  0.00     0.190 C 
BRANCH   5   6
HETATM    6  C           1     -21.917  -6.742  -3.933  0.00  0.00     0.197 C 
HETATM    7  O           1     -21.529  -6.446  -2.781  0.00  0.00    -0.646 OA
HETATM    8  O           1     -22.897  -6.149  -4.432  0.00  0.00    -0.646 OA
ENDBRANCH   5   6
BRANCH   5   9
HETATM    9  C           1     -19.767  -7.935  -4.222  0.00  0.00     0.077 C 
BRANCH   9  10
HETATM   10  C           1     -19.614  -9.205  -3.444  0.00  0.00    -0.028 A 
HETATM   11  C           1     -18.390  -9.762  -2.981  0.00  0.00    -0.002 A 
HETATM   12  C           1     -17.040  -9.374  -3.073  0.00  0.00     0.014 A 
HETATM   13  C           1     -18.705 -10.942  -2.307  0.00  0.00     0.042 A 
HETATM   14  C           1     -16.054 -10.178  -2.488  0.00  0.00     0.001 A 
HETATM   15  C           1     -16.398 -11.351  -1.820  0.00  0.00     0.002 A 
HETATM   16  C           1     -17.732 -11.757  -1.715  0.00  0.00     0.030 A 
HETATM   17  N           1     -20.073 -11.087  -2.363  0.00  0.00    -0.365 N 
HETATM   18  H           1     -20.611 -11.885  -1.941  0.00  0.00     0.165 HD
HETATM   19  C           1     -20.632 -10.042  -3.049  0.00  0.00     0.096 A 
ENDBRANCH   9  10
ENDBRANCH   5   9
ENDBRANCH   2   5
BRANCH   1  20
HETATM   20  C           1     -20.574  -5.094  -6.620  0.00  0.00     0.278 C 
BRANCH  20  21
HETATM   21  N           1     -20.112  -4.475  -5.335  0.00  0.00    -0.066 N 
HETATM   22  H           1     -20.922  -4.383  -4.681  0.00  0.00     0.275 HD
HETATM   23  H           1     -19.381  -5.081  -4.899  0.00  0.00     0.275 HD
HETATM   24  H           1     -19.711  -3.530  -5.528  0.00  0.00     0.275 HD
ENDBRANCH  20  21
BRANCH  20  25
HETATM   25  C           1     -19.850  -4.439  -7.789  0.00  0.00     0.081 C 
BRANCH  25  26
HETATM   26  C           1     -20.801  -4.267  -8.933  0.00  0.00    -0.056 A 
HETATM   27  C           1     -22.148  -4.002  -8.687  0.00  0.00     0.007 A 
HETATM   28  C           1     -23.033  -3.842  -9.753  0.00  0.00     0.001 A 
HETATM   29  C           1     -22.570  -3.944 -11.065  0.00  0.00     0.000 A 
HETATM   30  C           1     -21.222  -4.208 -11.311  0.00  0.00     0.001 A 
HETATM   31  C           1     -20.337  -4.369 -10.245  0.00  0.00     0.007 A 
ENDBRANCH  25  26
ENDBRANCH  20  25
ENDBRANCH   1  20
TORSDOF 8
ENDMDL
