MODEL 1
REMARK VINA RESULT:      -6.5      0.000      0.000
REMARK  5 active torsions:
REMARK  status: ('A' for Active; 'I' for Inactive)
REMARK    1  A    between atoms: N_1  and  C_7 
REMARK    2  A    between atoms: C_6  and  C_7 
REMARK    3  A    between atoms: C_6  and  C_21 
REMARK    4  A    between atoms: C_7  and  C_10 
REMARK       I    between atoms: C_10  and  N_11 
REMARK    5  A    between atoms: C_13  and  C_14 
ROOT
HETATM    1  C           1     -20.309  -4.896  -7.424  0.00  0.00     0.280 C 
ENDROOT
BRANCH   1   2
HETATM    2  N           1     -19.016  -4.232  -7.796  0.00  0.00    -0.066 N 
HETATM    3  H           1     -18.239  -4.642  -7.230  0.00  0.00     0.275 HD
HETATM    4  H           1     -18.826  -4.387  -8.811  0.00  0.00     0.275 HD
HETATM    5  H           1     -19.083  -3.207  -7.605  0.00  0.00     0.275 HD
ENDBRANCH   1   2
BRANCH   1   6
HETATM    6  C           1     -20.503  -4.819  -5.914  0.00  0.00     0.101 C 
BRANCH   6   7
HETATM    7  C           1     -20.913  -6.161  -5.394  0.00  0.00     0.028 A 
HETATM    8  C           1     -21.431  -6.388  -4.141  0.00  0.00     0.114 A 
HETATM    9  N           1     -21.661  -7.736  -4.092  0.00  0.00    -0.360 N 
HETATM   10  C           1     -21.280  -8.260  -5.294  0.00  0.00     0.180 A 
HETATM   11  H           1     -22.058  -8.268  -3.279  0.00  0.00     0.166 HD
HETATM   12  N           1     -20.823  -7.332  -6.102  0.00  0.00    -0.355 N 
ATOM     13  HN          1     -20.476  -7.456  -7.053  1.00  0.00     0.166 HD
ENDBRANCH   6   7
ENDBRANCH   1   6
BRANCH   1  14
HETATM   14  C           1     -21.452  -4.192  -8.114  0.00  0.00     0.251 C 
HETATM   15  O           1     -22.319  -3.663  -7.461  0.00  0.00    -0.271 OA
HETATM   16  N           1     -21.505  -4.153  -9.482  0.00  0.00    -0.336 N 
HETATM   17  C           1     -20.553  -4.732 -10.425  0.00  0.00     0.127 C 
HETATM   18  C           1     -22.527  -3.523 -10.314  0.00  0.00     0.188 C 
HETATM   19  C           1     -20.435  -3.679 -11.514  0.00  0.00     0.022 C 
HETATM   20  C           1     -21.731  -2.880 -11.438  0.00  0.00     0.038 C 
BRANCH  18  21
HETATM   21  C           1     -23.487  -4.553 -10.856  0.00  0.00     0.196 C 
HETATM   22  O           1     -23.590  -4.721 -12.091  0.00  0.00    -0.646 OA
HETATM   23  O           1     -24.179  -5.237 -10.072  0.00  0.00    -0.646 OA
ENDBRANCH  18  21
ENDBRANCH   1  14
TORSDOF 5
ENDMDL
MODEL 2
REMARK VINA RESULT:      -6.5      2.797      6.407
REMARK  5 active torsions:
REMARK  status: ('A' for Active; 'I' for Inactive)
REMARK    1  A    between atoms: N_1  and  C_7 
REMARK    2  A    between atoms: C_6  and  C_7 
REMARK    3  A    between atoms: C_6  and  C_21 
REMARK    4  A    between atoms: C_7  and  C_10 
REMARK       I    between atoms: C_10  and  N_11 
REMARK    5  A    between atoms: C_13  and  C_14 
ROOT
HETATM    1  C           1     -21.623  -4.998  -7.187  0.00  0.00     0.280 C 
ENDROOT
BRANCH   1   2
HETATM    2  N           1     -21.079  -3.666  -6.762  0.00  0.00    -0.066 N 
HETATM    3  H           1     -20.615  -3.761  -5.830  0.00  0.00     0.275 HD
HETATM    4  H           1     -20.380  -3.336  -7.465  0.00  0.00     0.275 HD
HETATM    5  H           1     -21.860  -2.976  -6.693  0.00  0.00     0.275 HD
ENDBRANCH   1   2
BRANCH   1   6
HETATM    6  C           1     -21.587  -5.098  -8.707  0.00  0.00     0.101 C 
BRANCH   6   7
HETATM    7  C           1     -22.744  -4.345  -9.284  0.00  0.00     0.028 A 
HETATM    8  C           1     -22.823  -3.911 -10.586  0.00  0.00     0.114 A 
HETATM    9  N           1     -24.033  -3.279 -10.676  0.00  0.00    -0.360 N 
HETATM   10  C           1     -24.627  -3.354  -9.449  0.00  0.00     0.180 A 
HETATM   11  H           1     -24.431  -2.821 -11.533  0.00  0.00     0.166 HD
HETATM   12  N           1     -23.871  -3.993  -8.586  0.00  0.00    -0.355 N 
ATOM     13  HN          1     -24.079  -4.186  -7.607  1.00  0.00     0.166 HD
ENDBRANCH   6   7
ENDBRANCH   1   6
BRANCH   1  14
HETATM   14  C           1     -20.780  -6.098  -6.590  0.00  0.00     0.251 C 
HETATM   15  O           1     -19.761  -6.445  -7.140  0.00  0.00    -0.271 OA
HETATM   16  N           1     -21.168  -6.703  -5.425  0.00  0.00    -0.336 N 
HETATM   17  C           1     -22.358  -6.416  -4.628  0.00  0.00     0.127 C 
HETATM   18  C           1     -20.483  -7.776  -4.709  0.00  0.00     0.188 C 
HETATM   19  C           1     -21.861  -6.492  -3.194  0.00  0.00     0.022 C 
HETATM   20  C           1     -20.625  -7.383  -3.248  0.00  0.00     0.038 C 
BRANCH  18  21
HETATM   21  C           1     -21.145  -9.106  -4.974  0.00  0.00     0.196 C 
HETATM   22  O           1     -21.637  -9.758  -4.028  0.00  0.00    -0.646 OA
HETATM   23  O           1     -21.201  -9.555  -6.139  0.00  0.00    -0.646 OA
ENDBRANCH  18  21
ENDBRANCH   1  14
TORSDOF 5
ENDMDL
MODEL 3
REMARK VINA RESULT:      -6.1     12.465     14.057
REMARK  5 active torsions:
REMARK  status: ('A' for Active; 'I' for Inactive)
REMARK    1  A    between atoms: N_1  and  C_7 
REMARK    2  A    between atoms: C_6  and  C_7 
REMARK    3  A    between atoms: C_6  and  C_21 
REMARK    4  A    between atoms: C_7  and  C_10 
REMARK       I    between atoms: C_10  and  N_11 
REMARK    5  A    between atoms: C_13  and  C_14 
ROOT
HETATM    1  C           1     -33.983  -4.021 -12.342  0.00  0.00     0.280 C 
ENDROOT
BRANCH   1   2
HETATM    2  N           1     -33.529  -3.985 -13.772  0.00  0.00    -0.066 N 
HETATM    3  H           1     -33.171  -3.030 -13.999  0.00  0.00     0.275 HD
HETATM    4  H           1     -32.767  -4.685 -13.911  0.00  0.00     0.275 HD
HETATM    5  H           1     -34.333  -4.214 -14.398  0.00  0.00     0.275 HD
ENDBRANCH   1   2
BRANCH   1   6
HETATM    6  C           1     -33.012  -4.861 -11.523  0.00  0.00     0.101 C 
BRANCH   6   7
HETATM    7  C           1     -33.758  -5.961 -10.836  0.00  0.00     0.028 A 
HETATM    8  C           1     -34.945  -5.797 -10.161  0.00  0.00     0.114 A 
HETATM    9  N           1     -35.264  -7.044  -9.697  0.00  0.00    -0.360 N 
HETATM   10  C           1     -34.277  -7.896 -10.102  0.00  0.00     0.180 A 
HETATM   11  H           1     -36.112  -7.297  -9.135  0.00  0.00     0.166 HD
HETATM   12  N           1     -33.352  -7.270 -10.793  0.00  0.00    -0.355 N 
ATOM     13  HN          1     -32.512  -7.672 -11.208  1.00  0.00     0.166 HD
ENDBRANCH   6   7
ENDBRANCH   1   6
BRANCH   1  14
HETATM   14  C           1     -34.021  -2.616 -11.792  0.00  0.00     0.251 C 
HETATM   15  O           1     -33.391  -2.338 -10.800  0.00  0.00    -0.271 OA
HETATM   16  N           1     -34.769  -1.656 -12.419  0.00  0.00    -0.336 N 
HETATM   17  C           1     -35.587  -1.809 -13.619  0.00  0.00     0.127 C 
HETATM   18  C           1     -34.924  -0.256 -12.032  0.00  0.00     0.188 C 
HETATM   19  C           1     -35.330  -0.530 -14.399  0.00  0.00     0.022 C 
HETATM   20  C           1     -34.889   0.490 -13.355  0.00  0.00     0.038 C 
BRANCH  18  21
HETATM   21  C           1     -36.239  -0.036 -11.326  0.00  0.00     0.196 C 
HETATM   22  O           1     -37.238   0.349 -11.972  0.00  0.00    -0.646 OA
HETATM   23  O           1     -36.330  -0.238 -10.096  0.00  0.00    -0.646 OA
ENDBRANCH  18  21
ENDBRANCH   1  14
TORSDOF 5
ENDMDL
MODEL 4
REMARK VINA RESULT:      -6.1      2.401      6.376
REMARK  5 active torsions:
REMARK  status: ('A' for Active; 'I' for Inactive)
REMARK    1  A    between atoms: N_1  and  C_7 
REMARK    2  A    between atoms: C_6  and  C_7 
REMARK    3  A    between atoms: C_6  and  C_21 
REMARK    4  A    between atoms: C_7  and  C_10 
REMARK       I    between atoms: C_10  and  N_11 
REMARK    5  A    between atoms: C_13  and  C_14 
ROOT
HETATM    1  C           1     -21.876  -3.318 -10.397  0.00  0.00     0.280 C 
ENDROOT
BRANCH   1   2
HETATM    2  N           1     -21.066  -3.684 -11.606  0.00  0.00    -0.066 N 
HETATM    3  H           1     -21.633  -3.520 -12.468  0.00  0.00     0.275 HD
HETATM    4  H           1     -20.205  -3.092 -11.639  0.00  0.00     0.275 HD
HETATM    5  H           1     -20.796  -4.692 -11.553  0.00  0.00     0.275 HD
ENDBRANCH   1   2
BRANCH   1   6
HETATM    6  C           1     -23.248  -2.825 -10.837  0.00  0.00     0.101 C 
BRANCH   6   7
HETATM    7  C           1     -23.376  -2.962 -12.321  0.00  0.00     0.028 A 
HETATM    8  C           1     -23.799  -4.099 -12.968  0.00  0.00     0.114 A 
HETATM    9  N           1     -23.764  -3.784 -14.299  0.00  0.00    -0.360 N 
HETATM   10  C           1     -23.330  -2.494 -14.403  0.00  0.00     0.180 A 
HETATM   11  H           1     -24.025  -4.419 -15.093  0.00  0.00     0.166 HD
HETATM   12  N           1     -23.087  -1.971 -13.224  0.00  0.00    -0.355 N 
ATOM     13  HN          1     -22.754  -1.028 -13.022  1.00  0.00     0.166 HD
ENDBRANCH   6   7
ENDBRANCH   1   6
BRANCH   1  14
HETATM   14  C           1     -22.035  -4.530  -9.514  0.00  0.00     0.251 C 
HETATM   15  O           1     -22.831  -5.391  -9.806  0.00  0.00    -0.271 OA
HETATM   16  N           1     -21.276  -4.656  -8.381  0.00  0.00    -0.336 N 
HETATM   17  C           1     -20.272  -3.724  -7.875  0.00  0.00     0.127 C 
HETATM   18  C           1     -21.296  -5.752  -7.415  0.00  0.00     0.188 C 
HETATM   19  C           1     -19.157  -4.628  -7.377  0.00  0.00     0.022 C 
HETATM   20  C           1     -19.829  -5.963  -7.079  0.00  0.00     0.038 C 
BRANCH  18  21
HETATM   21  C           1     -22.079  -5.368  -6.184  0.00  0.00     0.196 C 
HETATM   22  O           1     -21.590  -5.555  -5.049  0.00  0.00    -0.646 OA
HETATM   23  O           1     -23.217  -4.863  -6.298  0.00  0.00    -0.646 OA
ENDBRANCH  18  21
ENDBRANCH   1  14
TORSDOF 5
ENDMDL
MODEL 5
REMARK VINA RESULT:      -6.0     17.960     19.881
REMARK  5 active torsions:
REMARK  status: ('A' for Active; 'I' for Inactive)
REMARK    1  A    between atoms: N_1  and  C_7 
REMARK    2  A    between atoms: C_6  and  C_7 
REMARK    3  A    between atoms: C_6  and  C_21 
REMARK    4  A    between atoms: C_7  and  C_10 
REMARK       I    between atoms: C_10  and  N_11 
REMARK    5  A    between atoms: C_13  and  C_14 
ROOT
HETATM    1  C           1     -10.406   6.486 -20.327  0.00  0.00     0.280 C 
ENDROOT
BRANCH   1   2
HETATM    2  N           1      -8.931   6.424 -20.593  0.00  0.00    -0.066 N 
HETATM    3  H           1      -8.594   5.444 -20.460  0.00  0.00     0.275 HD
HETATM    4  H           1      -8.742   6.726 -21.576  0.00  0.00     0.275 HD
HETATM    5  H           1      -8.430   7.057 -19.931  0.00  0.00     0.275 HD
ENDBRANCH   1   2
BRANCH   1   6
HETATM    6  C           1     -10.797   5.364 -19.374  0.00  0.00     0.101 C 
BRANCH   6   7
HETATM    7  C           1     -11.720   4.415 -20.070  0.00  0.00     0.028 A 
HETATM    8  C           1     -11.368   3.161 -20.509  0.00  0.00     0.114 A 
HETATM    9  N           1     -12.503   2.653 -21.078  0.00  0.00    -0.360 N 
HETATM   10  C           1     -13.479   3.601 -20.964  0.00  0.00     0.180 A 
HETATM   11  H           1     -12.604   1.707 -21.521  0.00  0.00     0.166 HD
HETATM   12  N           1     -13.035   4.678 -20.358  0.00  0.00    -0.355 N 
ATOM     13  HN          1     -13.558   5.528 -20.148  1.00  0.00     0.166 HD
ENDBRANCH   6   7
ENDBRANCH   1   6
BRANCH   1  14
HETATM   14  C           1     -10.748   7.818 -19.706  0.00  0.00     0.251 C 
HETATM   15  O           1     -10.164   8.190 -18.716  0.00  0.00    -0.271 OA
HETATM   16  N           1     -11.720   8.604 -20.264  0.00  0.00    -0.336 N 
HETATM   17  C           1     -12.523   8.318 -21.450  0.00  0.00     0.127 C 
HETATM   18  C           1     -12.180   9.911 -19.802  0.00  0.00     0.188 C 
HETATM   19  C           1     -12.596   9.655 -22.169  0.00  0.00     0.022 C 
HETATM   20  C           1     -12.366  10.702 -21.086  0.00  0.00     0.038 C 
BRANCH  18  21
HETATM   21  C           1     -13.485   9.787 -19.054  0.00  0.00     0.196 C 
HETATM   22  O           1     -14.381  10.643 -19.216  0.00  0.00    -0.646 OA
HETATM   23  O           1     -13.668   8.830 -18.271  0.00  0.00    -0.646 OA
ENDBRANCH  18  21
ENDBRANCH   1  14
TORSDOF 5
ENDMDL
MODEL 6
REMARK VINA RESULT:      -5.7      5.221      8.562
REMARK  5 active torsions:
REMARK  status: ('A' for Active; 'I' for Inactive)
REMARK    1  A    between atoms: N_1  and  C_7 
REMARK    2  A    between atoms: C_6  and  C_7 
REMARK    3  A    between atoms: C_6  and  C_21 
REMARK    4  A    between atoms: C_7  and  C_10 
REMARK       I    between atoms: C_10  and  N_11 
REMARK    5  A    between atoms: C_13  and  C_14 
ROOT
HETATM    1  C           1     -20.027  -8.769  -3.728  0.00  0.00     0.280 C 
ENDROOT
BRANCH   1   2
HETATM    2  N           1     -18.637  -9.107  -4.182  0.00  0.00    -0.066 N 
HETATM    3  H           1     -18.678  -9.556  -5.125  0.00  0.00     0.275 HD
HETATM    4  H           1     -18.068  -8.232  -4.237  0.00  0.00     0.275 HD
HETATM    5  H           1     -18.199  -9.767  -3.501  0.00  0.00     0.275 HD
ENDBRANCH   1   2
BRANCH   1   6
HETATM    6  C           1     -20.988  -8.896  -4.903  0.00  0.00     0.101 C 
BRANCH   6   7
HETATM    7  C           1     -21.281  -7.538  -5.457  0.00  0.00     0.028 A 
HETATM    8  C           1     -22.227  -6.676  -4.955  0.00  0.00     0.114 A 
HETATM    9  N           1     -22.157  -5.568  -5.754  0.00  0.00    -0.360 N 
HETATM   10  C           1     -21.191  -5.799  -6.691  0.00  0.00     0.180 A 
HETATM   11  H           1     -22.740  -4.700  -5.663  0.00  0.00     0.166 HD
HETATM   12  N           1     -20.644  -6.982  -6.537  0.00  0.00    -0.355 N 
ATOM     13  HN          1     -19.903  -7.399  -7.101  1.00  0.00     0.166 HD
ENDBRANCH   6   7
ENDBRANCH   1   6
BRANCH   1  14
HETATM   14  C           1     -20.442  -9.721  -2.633  0.00  0.00     0.251 C 
HETATM   15  O           1     -20.017 -10.852  -2.622  0.00  0.00    -0.271 OA
HETATM   16  N           1     -21.299  -9.301  -1.651  0.00  0.00    -0.336 N 
HETATM   17  C           1     -21.906  -7.982  -1.505  0.00  0.00     0.127 C 
HETATM   18  C           1     -21.805 -10.078  -0.522  0.00  0.00     0.188 C 
HETATM   19  C           1     -21.842  -7.717  -0.010  0.00  0.00     0.022 C 
HETATM   20  C           1     -21.771  -9.095   0.637  0.00  0.00     0.038 C 
BRANCH  18  21
HETATM   21  C           1     -23.214 -10.550  -0.784  0.00  0.00     0.196 C 
HETATM   22  O           1     -24.097 -10.394   0.087  0.00  0.00    -0.646 OA
HETATM   23  O           1     -23.498 -11.098  -1.871  0.00  0.00    -0.646 OA
ENDBRANCH  18  21
ENDBRANCH   1  14
TORSDOF 5
ENDMDL
MODEL 7
REMARK VINA RESULT:      -5.6      5.895      9.475
REMARK  5 active torsions:
REMARK  status: ('A' for Active; 'I' for Inactive)
REMARK    1  A    between atoms: N_1  and  C_7 
REMARK    2  A    between atoms: C_6  and  C_7 
REMARK    3  A    between atoms: C_6  and  C_21 
REMARK    4  A    between atoms: C_7  and  C_10 
REMARK       I    between atoms: C_10  and  N_11 
REMARK    5  A    between atoms: C_13  and  C_14 
ROOT
HETATM    1  C           1     -22.061  -7.462  -1.824  0.00  0.00     0.280 C 
ENDROOT
BRANCH   1   2
HETATM    2  N           1     -22.272  -6.028  -1.436  0.00  0.00    -0.066 N 
HETATM    3  H           1     -21.635  -5.419  -1.998  0.00  0.00     0.275 HD
HETATM    4  H           1     -23.264  -5.760  -1.623  0.00  0.00     0.275 HD
HETATM    5  H           1     -22.062  -5.908  -0.420  0.00  0.00     0.275 HD
ENDBRANCH   1   2
BRANCH   1   6
HETATM    6  C           1     -20.705  -7.610  -2.502  0.00  0.00     0.101 C 
BRANCH   6   7
HETATM    7  C           1     -20.879  -7.540  -3.986  0.00  0.00     0.028 A 
HETATM    8  C           1     -21.005  -8.633  -4.811  0.00  0.00     0.114 A 
HETATM    9  N           1     -21.140  -8.114  -6.069  0.00  0.00    -0.360 N 
HETATM   10  C           1     -21.092  -6.754  -5.959  0.00  0.00     0.180 A 
HETATM   11  H           1     -21.260  -8.662  -6.956  0.00  0.00     0.166 HD
HETATM   12  N           1     -20.934  -6.377  -4.711  0.00  0.00    -0.355 N 
ATOM     13  HN          1     -20.867  -5.423  -4.357  1.00  0.00     0.166 HD
ENDBRANCH   6   7
ENDBRANCH   1   6
BRANCH   1  14
HETATM   14  C           1     -22.104  -8.328  -0.588  0.00  0.00     0.251 C 
HETATM   15  O           1     -21.888  -7.842   0.497  0.00  0.00    -0.271 OA
HETATM   16  N           1     -22.387  -9.663  -0.697  0.00  0.00    -0.336 N 
HETATM   17  C           1     -22.671 -10.415  -1.916  0.00  0.00     0.127 C 
HETATM   18  C           1     -22.469 -10.644   0.381  0.00  0.00     0.188 C 
HETATM   19  C           1     -23.798 -11.350  -1.510  0.00  0.00     0.022 C 
HETATM   20  C           1     -23.667 -11.498   0.002  0.00  0.00     0.038 C 
BRANCH  18  21
HETATM   21  C           1     -21.213 -11.480   0.444  0.00  0.00     0.196 C 
HETATM   22  O           1     -20.094 -10.924   0.466  0.00  0.00    -0.646 OA
HETATM   23  O           1     -21.293 -12.727   0.473  0.00  0.00    -0.646 OA
ENDBRANCH  18  21
ENDBRANCH   1  14
TORSDOF 5
ENDMDL
MODEL 8
REMARK VINA RESULT:      -5.6      6.807     10.461
REMARK  5 active torsions:
REMARK  status: ('A' for Active; 'I' for Inactive)
REMARK    1  A    between atoms: N_1  and  C_7 
REMARK    2  A    between atoms: C_6  and  C_7 
REMARK    3  A    between atoms: C_6  and  C_21 
REMARK    4  A    between atoms: C_7  and  C_10 
REMARK       I    between atoms: C_10  and  N_11 
REMARK    5  A    between atoms: C_13  and  C_14 
ROOT
HETATM    1  C           1     -22.700  -8.439  -0.277  0.00  0.00     0.280 C 
ENDROOT
BRANCH   1   2
HETATM    2  N           1     -23.727  -7.992   0.722  0.00  0.00    -0.066 N 
HETATM    3  H           1     -24.379  -7.313   0.271  0.00  0.00     0.275 HD
HETATM    4  H           1     -24.266  -8.821   1.059  0.00  0.00     0.275 HD
HETATM    5  H           1     -23.250  -7.533   1.530  0.00  0.00     0.275 HD
ENDBRANCH   1   2
BRANCH   1   6
HETATM    6  C           1     -21.880  -7.239  -0.733  0.00  0.00     0.101 C 
BRANCH   6   7
HETATM    7  C           1     -21.793  -7.232  -2.226  0.00  0.00     0.028 A 
HETATM    8  C           1     -21.369  -8.293  -2.990  0.00  0.00     0.114 A 
HETATM    9  N           1     -21.447  -7.854  -4.283  0.00  0.00    -0.360 N 
HETATM   10  C           1     -21.906  -6.568  -4.251  0.00  0.00     0.180 A 
HETATM   11  H           1     -21.200  -8.405  -5.141  0.00  0.00     0.166 HD
HETATM   12  N           1     -22.124  -6.164  -3.021  0.00  0.00    -0.355 N 
ATOM     13  HN          1     -22.466  -5.251  -2.721  1.00  0.00     0.166 HD
ENDBRANCH   6   7
ENDBRANCH   1   6
BRANCH   1  14
HETATM   14  C           1     -21.789  -9.459   0.361  0.00  0.00     0.251 C 
HETATM   15  O           1     -20.854  -9.096   1.035  0.00  0.00    -0.271 OA
HETATM   16  N           1     -22.023 -10.796   0.178  0.00  0.00    -0.336 N 
HETATM   17  C           1     -23.097 -11.412  -0.596  0.00  0.00     0.127 C 
HETATM   18  C           1     -21.253 -11.914   0.714  0.00  0.00     0.188 C 
HETATM   19  C           1     -23.526 -12.594   0.257  0.00  0.00     0.022 C 
HETATM   20  C           1     -22.315 -12.922   1.122  0.00  0.00     0.038 C 
BRANCH  18  21
HETATM   21  C           1     -20.341 -12.492  -0.340  0.00  0.00     0.196 C 
HETATM   22  O           1     -20.344 -13.723  -0.563  0.00  0.00    -0.646 OA
HETATM   23  O           1     -19.582 -11.742  -0.991  0.00  0.00    -0.646 OA
ENDBRANCH  18  21
ENDBRANCH   1  14
TORSDOF 5
ENDMDL
MODEL 9
REMARK VINA RESULT:      -5.4      5.894      8.299
REMARK  5 active torsions:
REMARK  status: ('A' for Active; 'I' for Inactive)
REMARK    1  A    between atoms: N_1  and  C_7 
REMARK    2  A    between atoms: C_6  and  C_7 
REMARK    3  A    between atoms: C_6  and  C_21 
REMARK    4  A    between atoms: C_7  and  C_10 
REMARK       I    between atoms: C_10  and  N_11 
REMARK    5  A    between atoms: C_13  and  C_14 
ROOT
HETATM    1  C           1     -19.775  -8.276  -4.720  0.00  0.00     0.280 C 
ENDROOT
BRANCH   1   2
HETATM    2  N           1     -19.926  -7.443  -5.959  0.00  0.00    -0.066 N 
HETATM    3  H           1     -19.299  -7.816  -6.707  0.00  0.00     0.275 HD
HETATM    4  H           1     -20.918  -7.483  -6.284  0.00  0.00     0.275 HD
HETATM    5  H           1     -19.667  -6.454  -5.747  0.00  0.00     0.275 HD
ENDBRANCH   1   2
BRANCH   1   6
HETATM    6  C           1     -21.153  -8.675  -4.206  0.00  0.00     0.101 C 
BRANCH   6   7
HETATM    7  C           1     -21.582  -7.721  -3.136  0.00  0.00     0.028 A 
HETATM    8  C           1     -21.894  -6.399  -3.346  0.00  0.00     0.114 A 
HETATM    9  N           1     -22.227  -5.912  -2.112  0.00  0.00    -0.360 N 
HETATM   10  C           1     -22.106  -6.939  -1.220  0.00  0.00     0.180 A 
HETATM   11  H           1     -22.523  -4.930  -1.892  0.00  0.00     0.166 HD
HETATM   12  N           1     -21.716  -8.046  -1.810  0.00  0.00    -0.355 N 
ATOM     13  HN          1     -21.550  -8.953  -1.375  1.00  0.00     0.166 HD
ENDBRANCH   6   7
ENDBRANCH   1   6
BRANCH   1  14
HETATM   14  C           1     -18.980  -9.517  -5.043  0.00  0.00     0.251 C 
HETATM   15  O           1     -19.186 -10.116  -6.072  0.00  0.00    -0.271 OA
HETATM   16  N           1     -18.023  -9.963  -4.172  0.00  0.00    -0.336 N 
HETATM   17  C           1     -17.640  -9.372  -2.893  0.00  0.00     0.127 C 
HETATM   18  C           1     -17.165 -11.136  -4.319  0.00  0.00     0.188 C 
HETATM   19  C           1     -16.126  -9.502  -2.872  0.00  0.00     0.022 C 
HETATM   20  C           1     -15.813 -10.659  -3.814  0.00  0.00     0.038 C 
BRANCH  18  21
HETATM   21  C           1     -17.676 -12.284  -3.482  0.00  0.00     0.196 C 
HETATM   22  O           1     -18.873 -12.633  -3.566  0.00  0.00    -0.646 OA
HETATM   23  O           1     -16.902 -12.885  -2.706  0.00  0.00    -0.646 OA
ENDBRANCH  18  21
ENDBRANCH   1  14
TORSDOF 5
ENDMDL
