MODEL 1
REMARK VINA RESULT:      -7.9      0.000      0.000
REMARK  8 active torsions:
REMARK  status: ('A' for Active; 'I' for Inactive)
REMARK    1  A    between atoms: N_4  and  C_10 
REMARK       I    between atoms: N_4  and  C_5 
REMARK    2  A    between atoms: C_5  and  C_22 
REMARK    3  A    between atoms: C_9  and  C_10 
REMARK    4  A    between atoms: C_9  and  C_17 
REMARK    5  A    between atoms: C_10  and  C_26 
REMARK    6  A    between atoms: C_13  and  C_22 
REMARK    7  A    between atoms: C_13  and  C_16 
REMARK    8  A    between atoms: N_21  and  C_22 
ROOT
HETATM    1  N           1     -20.793  -7.600  -6.040  0.00  0.00    -0.344 N 
HETATM    2  C           1     -20.207  -6.482  -6.571  0.00  0.00     0.249 C 
HETATM    3  O           1     -19.238  -6.589  -7.283  0.00  0.00    -0.271 OA
HETATM    4  H           1     -21.532  -8.073  -6.546  0.00  0.00     0.163 HD
ENDROOT
BRANCH   2   5
HETATM    5  C           1     -20.773  -5.117  -6.266  0.00  0.00     0.278 C 
BRANCH   5   6
HETATM    6  C           1     -20.352  -4.138  -7.354  0.00  0.00     0.081 C 
BRANCH   6   7
HETATM    7  C           1     -21.326  -4.202  -8.489  0.00  0.00    -0.056 A 
HETATM    8  C           1     -20.861  -4.281  -9.802  0.00  0.00     0.007 A 
HETATM    9  C           1     -21.768  -4.340 -10.860  0.00  0.00     0.001 A 
HETATM   10  C           1     -23.139  -4.322 -10.605  0.00  0.00     0.000 A 
HETATM   11  C           1     -23.603  -4.243  -9.293  0.00  0.00     0.001 A 
HETATM   12  C           1     -22.696  -4.183  -8.234  0.00  0.00     0.007 A 
ENDBRANCH   6   7
ENDBRANCH   5   6
BRANCH   5  13
HETATM   13  N           1     -20.253  -4.645  -4.941  0.00  0.00    -0.066 N 
HETATM   14  H           1     -20.866  -5.009  -4.177  0.00  0.00     0.275 HD
HETATM   15  H           1     -20.250  -3.601  -4.919  0.00  0.00     0.275 HD
HETATM   16  H           1     -19.279  -4.998  -4.804  0.00  0.00     0.275 HD
ENDBRANCH   5  13
ENDBRANCH   2   5
BRANCH   1  17
HETATM   17  C           1     -20.355  -8.106  -4.754  0.00  0.00     0.189 C 
BRANCH  17  18
HETATM   18  C           1     -21.490  -8.883  -4.102  0.00  0.00     0.074 C 
BRANCH  18  19
HETATM   19  C           1     -21.776  -8.310  -2.748  0.00  0.00    -0.056 A 
HETATM   20  C           1     -21.924  -9.157  -1.650  0.00  0.00     0.007 A 
HETATM   21  C           1     -22.190  -8.622  -0.389  0.00  0.00     0.001 A 
HETATM   22  C           1     -22.307  -7.242  -0.226  0.00  0.00     0.000 A 
HETATM   23  C           1     -22.157  -6.396  -1.325  0.00  0.00     0.001 A 
HETATM   24  C           1     -21.892  -6.929  -2.586  0.00  0.00     0.007 A 
ENDBRANCH  18  19
ENDBRANCH  17  18
BRANCH  17  25
HETATM   25  C           1     -19.168  -9.016  -4.949  0.00  0.00     0.197 C 
HETATM   26  O           1     -19.077  -9.711  -5.986  0.00  0.00    -0.646 OA
HETATM   27  O           1     -18.276  -9.077  -4.076  0.00  0.00    -0.646 OA
ENDBRANCH  17  25
ENDBRANCH   1  17
TORSDOF 8
ENDMDL
MODEL 2
REMARK VINA RESULT:      -7.9      1.552      7.682
REMARK  8 active torsions:
REMARK  status: ('A' for Active; 'I' for Inactive)
REMARK    1  A    between atoms: N_4  and  C_10 
REMARK       I    between atoms: N_4  and  C_5 
REMARK    2  A    between atoms: C_5  and  C_22 
REMARK    3  A    between atoms: C_9  and  C_10 
REMARK    4  A    between atoms: C_9  and  C_17 
REMARK    5  A    between atoms: C_10  and  C_26 
REMARK    6  A    between atoms: C_13  and  C_22 
REMARK    7  A    between atoms: C_13  and  C_16 
REMARK    8  A    between atoms: N_21  and  C_22 
ROOT
HETATM    1  N           1     -22.196  -5.568  -5.639  0.00  0.00    -0.344 N 
HETATM    2  C           1     -21.532  -6.199  -4.621  0.00  0.00     0.249 C 
HETATM    3  O           1     -20.830  -5.563  -3.873  0.00  0.00    -0.271 OA
HETATM    4  H           1     -23.126  -5.201  -5.485  0.00  0.00     0.163 HD
ENDROOT
BRANCH   2   5
HETATM    5  C           1     -21.679  -7.689  -4.435  0.00  0.00     0.278 C 
BRANCH   5   6
HETATM    6  C           1     -20.761  -8.154  -3.313  0.00  0.00     0.081 C 
BRANCH   6   7
HETATM    7  C           1     -21.575  -8.455  -2.092  0.00  0.00    -0.056 A 
HETATM    8  C           1     -21.866  -7.440  -1.181  0.00  0.00     0.007 A 
HETATM    9  C           1     -22.623  -7.721  -0.044  0.00  0.00     0.001 A 
HETATM   10  C           1     -23.091  -9.016   0.181  0.00  0.00     0.000 A 
HETATM   11  C           1     -22.800 -10.030  -0.730  0.00  0.00     0.001 A 
HETATM   12  C           1     -22.041  -9.750  -1.868  0.00  0.00     0.007 A 
ENDBRANCH   6   7
ENDBRANCH   5   6
BRANCH   5  13
HETATM   13  N           1     -21.308  -8.391  -5.707  0.00  0.00    -0.066 N 
HETATM   14  H           1     -21.812  -7.948  -6.509  0.00  0.00     0.275 HD
HETATM   15  H           1     -21.575  -9.399  -5.641  0.00  0.00     0.275 HD
HETATM   16  H           1     -20.277  -8.314  -5.859  0.00  0.00     0.275 HD
ENDBRANCH   5  13
ENDBRANCH   2   5
BRANCH   1  17
HETATM   17  C           1     -21.565  -5.426  -6.937  0.00  0.00     0.189 C 
BRANCH  17  18
HETATM   18  C           1     -21.909  -4.064  -7.522  0.00  0.00     0.074 C 
BRANCH  18  19
HETATM   19  C           1     -22.131  -4.195  -8.998  0.00  0.00    -0.056 A 
HETATM   20  C           1     -23.409  -4.457  -9.490  0.00  0.00     0.007 A 
HETATM   21  C           1     -23.614  -4.579 -10.864  0.00  0.00     0.001 A 
HETATM   22  C           1     -22.543  -4.438 -11.746  0.00  0.00     0.000 A 
HETATM   23  C           1     -21.265  -4.174 -11.253  0.00  0.00     0.001 A 
HETATM   24  C           1     -21.059  -4.053  -9.879  0.00  0.00     0.007 A 
ENDBRANCH  18  19
ENDBRANCH  17  18
BRANCH  17  25
HETATM   25  C           1     -20.069  -5.545  -6.784  0.00  0.00     0.197 C 
HETATM   26  O           1     -19.503  -6.639  -7.001  0.00  0.00    -0.646 OA
HETATM   27  O           1     -19.394  -4.550  -6.440  0.00  0.00    -0.646 OA
ENDBRANCH  17  25
ENDBRANCH   1  17
TORSDOF 8
ENDMDL
MODEL 3
REMARK VINA RESULT:      -7.8      3.352      6.964
REMARK  8 active torsions:
REMARK  status: ('A' for Active; 'I' for Inactive)
REMARK    1  A    between atoms: N_4  and  C_10 
REMARK       I    between atoms: N_4  and  C_5 
REMARK    2  A    between atoms: C_5  and  C_22 
REMARK    3  A    between atoms: C_9  and  C_10 
REMARK    4  A    between atoms: C_9  and  C_17 
REMARK    5  A    between atoms: C_10  and  C_26 
REMARK    6  A    between atoms: C_13  and  C_22 
REMARK    7  A    between atoms: C_13  and  C_16 
REMARK    8  A    between atoms: N_21  and  C_22 
ROOT
HETATM    1  N           1     -20.759  -8.578  -4.082  0.00  0.00    -0.344 N 
HETATM    2  C           1     -21.218  -9.618  -4.844  0.00  0.00     0.249 C 
HETATM    3  O           1     -21.130  -9.570  -6.047  0.00  0.00    -0.271 OA
HETATM    4  H           1     -19.800  -8.572  -3.758  0.00  0.00     0.163 HD
ENDROOT
BRANCH   2   5
HETATM    5  C           1     -21.833 -10.826  -4.179  0.00  0.00     0.278 C 
BRANCH   5   6
HETATM    6  C           1     -21.007 -11.209  -2.958  0.00  0.00     0.081 C 
BRANCH   6   7
HETATM    7  C           1     -21.920 -11.493  -1.806  0.00  0.00    -0.056 A 
HETATM    8  C           1     -21.464 -12.250  -0.726  0.00  0.00     0.007 A 
HETATM    9  C           1     -22.315 -12.515   0.347  0.00  0.00     0.001 A 
HETATM   10  C           1     -23.620 -12.023   0.341  0.00  0.00     0.000 A 
HETATM   11  C           1     -24.075 -11.267  -0.738  0.00  0.00     0.001 A 
HETATM   12  C           1     -23.225 -11.002  -1.813  0.00  0.00     0.007 A 
ENDBRANCH   6   7
ENDBRANCH   5   6
BRANCH   5  13
HETATM   13  N           1     -21.856 -11.971  -5.147  0.00  0.00    -0.066 N 
HETATM   14  H           1     -22.499 -11.745  -5.939  0.00  0.00     0.275 HD
HETATM   15  H           1     -22.192 -12.832  -4.660  0.00  0.00     0.275 HD
HETATM   16  H           1     -20.892 -12.134  -5.516  0.00  0.00     0.275 HD
ENDBRANCH   5  13
ENDBRANCH   2   5
BRANCH   1  17
HETATM   17  C           1     -21.647  -7.484  -3.738  0.00  0.00     0.189 C 
BRANCH  17  18
HETATM   18  C           1     -21.076  -6.720  -2.552  0.00  0.00     0.074 C 
BRANCH  18  19
HETATM   19  C           1     -21.460  -7.411  -1.280  0.00  0.00    -0.056 A 
HETATM   20  C           1     -20.560  -8.276  -0.658  0.00  0.00     0.007 A 
HETATM   21  C           1     -20.918  -8.919   0.527  0.00  0.00     0.001 A 
HETATM   22  C           1     -22.174  -8.697   1.090  0.00  0.00     0.000 A 
HETATM   23  C           1     -23.073  -7.830   0.468  0.00  0.00     0.001 A 
HETATM   24  C           1     -22.716  -7.187  -0.717  0.00  0.00     0.007 A 
ENDBRANCH  18  19
ENDBRANCH  17  18
BRANCH  17  25
HETATM   25  C           1     -21.780  -6.555  -4.919  0.00  0.00     0.197 C 
HETATM   26  O           1     -22.902  -6.099  -5.234  0.00  0.00    -0.646 OA
HETATM   27  O           1     -20.770  -6.240  -5.584  0.00  0.00    -0.646 OA
ENDBRANCH  17  25
ENDBRANCH   1  17
TORSDOF 8
ENDMDL
MODEL 4
REMARK VINA RESULT:      -7.6      5.047      6.601
REMARK  8 active torsions:
REMARK  status: ('A' for Active; 'I' for Inactive)
REMARK    1  A    between atoms: N_4  and  C_10 
REMARK       I    between atoms: N_4  and  C_5 
REMARK    2  A    between atoms: C_5  and  C_22 
REMARK    3  A    between atoms: C_9  and  C_10 
REMARK    4  A    between atoms: C_9  and  C_17 
REMARK    5  A    between atoms: C_10  and  C_26 
REMARK    6  A    between atoms: C_13  and  C_22 
REMARK    7  A    between atoms: C_13  and  C_16 
REMARK    8  A    between atoms: N_21  and  C_22 
ROOT
HETATM    1  N           1     -20.723 -10.535  -4.672  0.00  0.00    -0.344 N 
HETATM    2  C           1     -19.464 -10.483  -4.135  0.00  0.00     0.249 C 
HETATM    3  O           1     -18.555 -11.067  -4.672  0.00  0.00    -0.271 OA
HETATM    4  H           1     -21.013  -9.842  -5.350  0.00  0.00     0.163 HD
ENDROOT
BRANCH   2   5
HETATM    5  C           1     -19.215  -9.694  -2.873  0.00  0.00     0.278 C 
BRANCH   5   6
HETATM    6  C           1     -20.059  -8.426  -2.891  0.00  0.00     0.081 C 
BRANCH   6   7
HETATM    7  C           1     -20.847  -8.332  -1.622  0.00  0.00    -0.056 A 
HETATM    8  C           1     -20.519  -9.143  -0.535  0.00  0.00     0.007 A 
HETATM    9  C           1     -21.254  -9.056   0.647  0.00  0.00     0.001 A 
HETATM   10  C           1     -22.316  -8.156   0.743  0.00  0.00     0.000 A 
HETATM   11  C           1     -22.644  -7.346  -0.342  0.00  0.00     0.001 A 
HETATM   12  C           1     -21.909  -7.433  -1.526  0.00  0.00     0.007 A 
ENDBRANCH   6   7
ENDBRANCH   5   6
BRANCH   5  13
HETATM   13  N           1     -17.764  -9.327  -2.792  0.00  0.00    -0.066 N 
HETATM   14  H           1     -17.195 -10.189  -2.635  0.00  0.00     0.275 HD
HETATM   15  H           1     -17.615  -8.663  -1.999  0.00  0.00     0.275 HD
HETATM   16  H           1     -17.469  -8.872  -3.685  0.00  0.00     0.275 HD
ENDBRANCH   5  13
ENDBRANCH   2   5
BRANCH   1  17
HETATM   17  C           1     -21.640 -11.583  -4.268  0.00  0.00     0.189 C 
BRANCH  17  18
HETATM   18  C           1     -22.818 -10.969  -3.526  0.00  0.00     0.074 C 
BRANCH  18  19
HETATM   19  C           1     -22.835 -11.468  -2.114  0.00  0.00    -0.056 A 
HETATM   20  C           1     -21.829 -12.324  -1.666  0.00  0.00     0.007 A 
HETATM   21  C           1     -21.845 -12.788  -0.350  0.00  0.00     0.001 A 
HETATM   22  C           1     -22.865 -12.396   0.517  0.00  0.00     0.000 A 
HETATM   23  C           1     -23.869 -11.539   0.068  0.00  0.00     0.001 A 
HETATM   24  C           1     -23.855 -11.075  -1.247  0.00  0.00     0.007 A 
ENDBRANCH  18  19
ENDBRANCH  17  18
BRANCH  17  25
HETATM   25  C           1     -22.140 -12.311  -5.491  0.00  0.00     0.197 C 
HETATM   26  O           1     -23.012 -13.201  -5.377  0.00  0.00    -0.646 OA
HETATM   27  O           1     -21.683 -12.026  -6.619  0.00  0.00    -0.646 OA
ENDBRANCH  17  25
ENDBRANCH   1  17
TORSDOF 8
ENDMDL
MODEL 5
REMARK VINA RESULT:      -7.6      1.323      2.170
REMARK  8 active torsions:
REMARK  status: ('A' for Active; 'I' for Inactive)
REMARK    1  A    between atoms: N_4  and  C_10 
REMARK       I    between atoms: N_4  and  C_5 
REMARK    2  A    between atoms: C_5  and  C_22 
REMARK    3  A    between atoms: C_9  and  C_10 
REMARK    4  A    between atoms: C_9  and  C_17 
REMARK    5  A    between atoms: C_10  and  C_26 
REMARK    6  A    between atoms: C_13  and  C_22 
REMARK    7  A    between atoms: C_13  and  C_16 
REMARK    8  A    between atoms: N_21  and  C_22 
ROOT
HETATM    1  N           1     -21.011  -8.595  -4.936  0.00  0.00    -0.344 N 
HETATM    2  C           1     -20.597  -7.460  -5.582  0.00  0.00     0.249 C 
HETATM    3  O           1     -19.593  -7.480  -6.253  0.00  0.00    -0.271 OA
HETATM    4  H           1     -21.636  -9.242  -5.399  0.00  0.00     0.163 HD
ENDROOT
BRANCH   2   5
HETATM    5  C           1     -21.398  -6.187  -5.457  0.00  0.00     0.278 C 
BRANCH   5   6
HETATM    6  C           1     -20.548  -5.007  -5.910  0.00  0.00     0.081 C 
BRANCH   6   7
HETATM    7  C           1     -20.951  -4.602  -7.294  0.00  0.00    -0.056 A 
HETATM    8  C           1     -22.259  -4.187  -7.545  0.00  0.00     0.007 A 
HETATM    9  C           1     -22.634  -3.810  -8.835  0.00  0.00     0.001 A 
HETATM   10  C           1     -21.702  -3.847  -9.872  0.00  0.00     0.000 A 
HETATM   11  C           1     -20.395  -4.263  -9.620  0.00  0.00     0.001 A 
HETATM   12  C           1     -20.019  -4.640  -8.330  0.00  0.00     0.007 A 
ENDBRANCH   6   7
ENDBRANCH   5   6
BRANCH   5  13
HETATM   13  N           1     -21.803  -5.991  -4.027  0.00  0.00    -0.066 N 
HETATM   14  H           1     -21.400  -6.757  -3.442  0.00  0.00     0.275 HD
HETATM   15  H           1     -22.845  -6.009  -3.954  0.00  0.00     0.275 HD
HETATM   16  H           1     -21.447  -5.069  -3.687  0.00  0.00     0.275 HD
ENDBRANCH   5  13
ENDBRANCH   2   5
BRANCH   1  17
HETATM   17  C           1     -20.553  -8.868  -3.588  0.00  0.00     0.189 C 
BRANCH  17  18
HETATM   18  C           1     -21.640  -9.609  -2.823  0.00  0.00     0.074 C 
BRANCH  18  19
HETATM   19  C           1     -21.571  -9.240  -1.373  0.00  0.00    -0.056 A 
HETATM   20  C           1     -22.087  -8.020  -0.939  0.00  0.00     0.007 A 
HETATM   21  C           1     -22.023  -7.677   0.412  0.00  0.00     0.001 A 
HETATM   22  C           1     -21.444  -8.555   1.328  0.00  0.00     0.000 A 
HETATM   23  C           1     -20.929  -9.776   0.893  0.00  0.00     0.001 A 
HETATM   24  C           1     -20.993 -10.119  -0.457  0.00  0.00     0.007 A 
ENDBRANCH  18  19
ENDBRANCH  17  18
BRANCH  17  25
HETATM   25  C           1     -19.308  -9.719  -3.643  0.00  0.00     0.197 C 
HETATM   26  O           1     -19.398 -10.945  -3.874  0.00  0.00    -0.646 OA
HETATM   27  O           1     -18.186  -9.199  -3.458  0.00  0.00    -0.646 OA
ENDBRANCH  17  25
ENDBRANCH   1  17
TORSDOF 8
ENDMDL
MODEL 6
REMARK VINA RESULT:      -7.5      2.299      7.814
REMARK  8 active torsions:
REMARK  status: ('A' for Active; 'I' for Inactive)
REMARK    1  A    between atoms: N_4  and  C_10 
REMARK       I    between atoms: N_4  and  C_5 
REMARK    2  A    between atoms: C_5  and  C_22 
REMARK    3  A    between atoms: C_9  and  C_10 
REMARK    4  A    between atoms: C_9  and  C_17 
REMARK    5  A    between atoms: C_10  and  C_26 
REMARK    6  A    between atoms: C_13  and  C_22 
REMARK    7  A    between atoms: C_13  and  C_16 
REMARK    8  A    between atoms: N_21  and  C_22 
ROOT
HETATM    1  N           1     -22.579  -6.776  -3.932  0.00  0.00    -0.344 N 
HETATM    2  C           1     -22.000  -6.712  -2.693  0.00  0.00     0.249 C 
HETATM    3  O           1     -21.840  -5.643  -2.156  0.00  0.00    -0.271 OA
HETATM    4  H           1     -23.583  -6.868  -4.017  0.00  0.00     0.163 HD
ENDROOT
BRANCH   2   5
HETATM    5  C           1     -21.563  -7.979  -1.999  0.00  0.00     0.278 C 
BRANCH   5   6
HETATM    6  C           1     -22.220  -8.060  -0.628  0.00  0.00     0.081 C 
BRANCH   6   7
HETATM    7  C           1     -22.328  -9.493  -0.208  0.00  0.00    -0.056 A 
HETATM    8  C           1     -21.229 -10.138   0.360  0.00  0.00     0.007 A 
HETATM    9  C           1     -21.329 -11.473   0.750  0.00  0.00     0.001 A 
HETATM   10  C           1     -22.529 -12.163   0.574  0.00  0.00     0.000 A 
HETATM   11  C           1     -23.627 -11.519   0.005  0.00  0.00     0.001 A 
HETATM   12  C           1     -23.527 -10.183  -0.385  0.00  0.00     0.007 A 
ENDBRANCH   6   7
ENDBRANCH   5   6
BRANCH   5  13
HETATM   13  N           1     -20.072  -7.971  -1.838  0.00  0.00    -0.066 N 
HETATM   14  H           1     -19.627  -8.357  -2.702  0.00  0.00     0.275 HD
HETATM   15  H           1     -19.806  -8.560  -1.017  0.00  0.00     0.275 HD
HETATM   16  H           1     -19.743  -6.991  -1.685  0.00  0.00     0.275 HD
ENDBRANCH   5  13
ENDBRANCH   2   5
BRANCH   1  17
HETATM   17  C           1     -21.752  -6.711  -5.122  0.00  0.00     0.189 C 
BRANCH  17  18
HETATM   18  C           1     -20.877  -5.467  -5.065  0.00  0.00     0.074 C 
BRANCH  18  19
HETATM   19  C           1     -20.755  -4.879  -6.437  0.00  0.00    -0.056 A 
HETATM   20  C           1     -21.895  -4.444  -7.112  0.00  0.00     0.007 A 
HETATM   21  C           1     -21.781  -3.895  -8.390  0.00  0.00     0.001 A 
HETATM   22  C           1     -20.528  -3.781  -8.991  0.00  0.00     0.000 A 
HETATM   23  C           1     -19.388  -4.214  -8.314  0.00  0.00     0.001 A 
HETATM   24  C           1     -19.502  -4.763  -7.037  0.00  0.00     0.007 A 
ENDBRANCH  18  19
ENDBRANCH  17  18
BRANCH  17  25
HETATM   25  C           1     -20.878  -7.939  -5.193  0.00  0.00     0.197 C 
HETATM   26  O           1     -19.669  -7.865  -4.881  0.00  0.00    -0.646 OA
HETATM   27  O           1     -21.362  -9.030  -5.565  0.00  0.00    -0.646 OA
ENDBRANCH  17  25
ENDBRANCH   1  17
TORSDOF 8
ENDMDL
MODEL 7
REMARK VINA RESULT:      -7.4      1.514      2.135
REMARK  8 active torsions:
REMARK  status: ('A' for Active; 'I' for Inactive)
REMARK    1  A    between atoms: N_4  and  C_10 
REMARK       I    between atoms: N_4  and  C_5 
REMARK    2  A    between atoms: C_5  and  C_22 
REMARK    3  A    between atoms: C_9  and  C_10 
REMARK    4  A    between atoms: C_9  and  C_17 
REMARK    5  A    between atoms: C_10  and  C_26 
REMARK    6  A    between atoms: C_13  and  C_22 
REMARK    7  A    between atoms: C_13  and  C_16 
REMARK    8  A    between atoms: N_21  and  C_22 
ROOT
HETATM    1  N           1     -21.251  -8.621  -5.163  0.00  0.00    -0.344 N 
HETATM    2  C           1     -20.663  -7.435  -5.512  0.00  0.00     0.249 C 
HETATM    3  O           1     -19.599  -7.434  -6.083  0.00  0.00    -0.271 OA
HETATM    4  H           1     -21.883  -9.082  -5.806  0.00  0.00     0.163 HD
ENDROOT
BRANCH   2   5
HETATM    5  C           1     -21.345  -6.130  -5.183  0.00  0.00     0.278 C 
BRANCH   5   6
HETATM    6  C           1     -20.501  -4.972  -5.699  0.00  0.00     0.081 C 
BRANCH   6   7
HETATM    7  C           1     -20.929  -4.623  -7.091  0.00  0.00    -0.056 A 
HETATM    8  C           1     -19.985  -4.566  -8.116  0.00  0.00     0.007 A 
HETATM    9  C           1     -20.383  -4.240  -9.413  0.00  0.00     0.001 A 
HETATM   10  C           1     -21.725  -3.973  -9.684  0.00  0.00     0.000 A 
HETATM   11  C           1     -22.668  -4.029  -8.659  0.00  0.00     0.001 A 
HETATM   12  C           1     -22.270  -4.355  -7.362  0.00  0.00     0.007 A 
ENDBRANCH   6   7
ENDBRANCH   5   6
BRANCH   5  13
HETATM   13  N           1     -21.502  -6.009  -3.697  0.00  0.00    -0.066 N 
HETATM   14  H           1     -20.807  -5.323  -3.327  0.00  0.00     0.275 HD
HETATM   15  H           1     -21.342  -6.941  -3.252  0.00  0.00     0.275 HD
HETATM   16  H           1     -22.469  -5.680  -3.475  0.00  0.00     0.275 HD
ENDBRANCH   5  13
ENDBRANCH   2   5
BRANCH   1  17
HETATM   17  C           1     -20.969  -9.217  -3.872  0.00  0.00     0.189 C 
BRANCH  17  18
HETATM   18  C           1     -21.831 -10.458  -3.686  0.00  0.00     0.074 C 
BRANCH  18  19
HETATM   19  C           1     -22.494 -10.410  -2.344  0.00  0.00    -0.056 A 
HETATM   20  C           1     -23.408 -11.399  -1.983  0.00  0.00     0.007 A 
HETATM   21  C           1     -24.025 -11.354  -0.732  0.00  0.00     0.001 A 
HETATM   22  C           1     -23.728 -10.321   0.156  0.00  0.00     0.000 A 
HETATM   23  C           1     -22.813  -9.333  -0.206  0.00  0.00     0.001 A 
HETATM   24  C           1     -22.196  -9.377  -1.456  0.00  0.00     0.007 A 
ENDBRANCH  18  19
ENDBRANCH  17  18
BRANCH  17  25
HETATM   25  C           1     -19.511  -9.603  -3.804  0.00  0.00     0.197 C 
HETATM   26  O           1     -18.758  -9.055  -2.969  0.00  0.00    -0.646 OA
HETATM   27  O           1     -19.057 -10.468  -4.582  0.00  0.00    -0.646 OA
ENDBRANCH  17  25
ENDBRANCH   1  17
TORSDOF 8
ENDMDL
MODEL 8
REMARK VINA RESULT:      -7.3      4.195      7.591
REMARK  8 active torsions:
REMARK  status: ('A' for Active; 'I' for Inactive)
REMARK    1  A    between atoms: N_4  and  C_10 
REMARK       I    between atoms: N_4  and  C_5 
REMARK    2  A    between atoms: C_5  and  C_22 
REMARK    3  A    between atoms: C_9  and  C_10 
REMARK    4  A    between atoms: C_9  and  C_17 
REMARK    5  A    between atoms: C_10  and  C_26 
REMARK    6  A    between atoms: C_13  and  C_22 
REMARK    7  A    between atoms: C_13  and  C_16 
REMARK    8  A    between atoms: N_21  and  C_22 
ROOT
HETATM    1  N           1     -21.138 -12.174  -3.274  0.00  0.00    -0.344 N 
HETATM    2  C           1     -22.314 -12.685  -2.795  0.00  0.00     0.249 C 
HETATM    3  O           1     -22.839 -13.618  -3.354  0.00  0.00    -0.271 OA
HETATM    4  H           1     -20.254 -12.542  -2.943  0.00  0.00     0.163 HD
ENDROOT
BRANCH   2   5
HETATM    5  C           1     -22.954 -12.082  -1.568  0.00  0.00     0.278 C 
BRANCH   5   6
HETATM    6  C           1     -21.899 -11.889  -0.488  0.00  0.00     0.081 C 
BRANCH   6   7
HETATM    7  C           1     -22.002 -10.504   0.070  0.00  0.00    -0.056 A 
HETATM    8  C           1     -20.961  -9.983   0.840  0.00  0.00     0.007 A 
HETATM    9  C           1     -21.057  -8.693   1.360  0.00  0.00     0.001 A 
HETATM   10  C           1     -22.193  -7.922   1.109  0.00  0.00     0.000 A 
HETATM   11  C           1     -23.233  -8.443   0.341  0.00  0.00     0.001 A 
HETATM   12  C           1     -23.137  -9.734  -0.180  0.00  0.00     0.007 A 
ENDBRANCH   6   7
ENDBRANCH   5   6
BRANCH   5  13
HETATM   13  N           1     -24.026 -13.001  -1.062  0.00  0.00    -0.066 N 
HETATM   14  H           1     -23.880 -13.177  -0.042  0.00  0.00     0.275 HD
HETATM   15  H           1     -23.984 -13.906  -1.582  0.00  0.00     0.275 HD
HETATM   16  H           1     -24.961 -12.559  -1.208  0.00  0.00     0.275 HD
ENDBRANCH   5  13
ENDBRANCH   2   5
BRANCH   1  17
HETATM   17  C           1     -21.157 -11.106  -4.254  0.00  0.00     0.189 C 
BRANCH  17  18
HETATM   18  C           1     -20.070 -10.093  -3.922  0.00  0.00     0.074 C 
BRANCH  18  19
HETATM   19  C           1     -20.696  -8.761  -3.643  0.00  0.00    -0.056 A 
HETATM   20  C           1     -20.530  -8.161  -2.396  0.00  0.00     0.007 A 
HETATM   21  C           1     -21.112  -6.920  -2.137  0.00  0.00     0.001 A 
HETATM   22  C           1     -21.860  -6.280  -3.125  0.00  0.00     0.000 A 
HETATM   23  C           1     -22.025  -6.880  -4.373  0.00  0.00     0.001 A 
HETATM   24  C           1     -21.443  -8.121  -4.632  0.00  0.00     0.007 A 
ENDBRANCH  18  19
ENDBRANCH  17  18
BRANCH  17  25
HETATM   25  C           1     -20.909 -11.679  -5.627  0.00  0.00     0.197 C 
HETATM   26  O           1     -20.394 -12.813  -5.748  0.00  0.00    -0.646 OA
HETATM   27  O           1     -21.217 -11.022  -6.644  0.00  0.00    -0.646 OA
ENDBRANCH  17  25
ENDBRANCH   1  17
TORSDOF 8
ENDMDL
MODEL 9
REMARK VINA RESULT:      -7.3      2.391      4.018
REMARK  8 active torsions:
REMARK  status: ('A' for Active; 'I' for Inactive)
REMARK    1  A    between atoms: N_4  and  C_10 
REMARK       I    between atoms: N_4  and  C_5 
REMARK    2  A    between atoms: C_5  and  C_22 
REMARK    3  A    between atoms: C_9  and  C_10 
REMARK    4  A    between atoms: C_9  and  C_17 
REMARK    5  A    between atoms: C_10  and  C_26 
REMARK    6  A    between atoms: C_13  and  C_22 
REMARK    7  A    between atoms: C_13  and  C_16 
REMARK    8  A    between atoms: N_21  and  C_22 
ROOT
HETATM    1  N           1     -21.338  -6.454  -2.971  0.00  0.00    -0.344 N 
HETATM    2  C           1     -21.629  -6.256  -4.294  0.00  0.00     0.249 C 
HETATM    3  O           1     -22.774  -6.101  -4.643  0.00  0.00    -0.271 OA
HETATM    4  H           1     -21.148  -5.662  -2.370  0.00  0.00     0.163 HD
ENDROOT
BRANCH   2   5
HETATM    5  C           1     -20.518  -6.230  -5.315  0.00  0.00     0.278 C 
BRANCH   5   6
HETATM    6  C           1     -20.210  -4.787  -5.694  0.00  0.00     0.081 C 
BRANCH   6   7
HETATM    7  C           1     -20.660  -4.531  -7.098  0.00  0.00    -0.056 A 
HETATM    8  C           1     -21.968  -4.113  -7.346  0.00  0.00     0.007 A 
HETATM    9  C           1     -22.388  -3.876  -8.654  0.00  0.00     0.001 A 
HETATM   10  C           1     -21.500  -4.055  -9.715  0.00  0.00     0.000 A 
HETATM   11  C           1     -20.193  -4.473  -9.468  0.00  0.00     0.001 A 
HETATM   12  C           1     -19.773  -4.711  -8.158  0.00  0.00     0.007 A 
ENDBRANCH   6   7
ENDBRANCH   5   6
BRANCH   5  13
HETATM   13  N           1     -20.944  -6.987  -6.537  0.00  0.00    -0.066 N 
HETATM   14  H           1     -20.525  -7.944  -6.517  0.00  0.00     0.275 HD
HETATM   15  H           1     -20.618  -6.482  -7.392  0.00  0.00     0.275 HD
HETATM   16  H           1     -21.986  -7.062  -6.553  0.00  0.00     0.275 HD
ENDBRANCH   5  13
ENDBRANCH   2   5
BRANCH   1  17
HETATM   17  C           1     -21.302  -7.799  -2.431  0.00  0.00     0.189 C 
BRANCH  17  18
HETATM   18  C           1     -19.871  -8.154  -2.049  0.00  0.00     0.074 C 
BRANCH  18  19
HETATM   19  C           1     -19.284  -9.055  -3.091  0.00  0.00    -0.056 A 
HETATM   20  C           1     -17.913  -9.306  -3.102  0.00  0.00     0.007 A 
HETATM   21  C           1     -17.366 -10.146  -4.073  0.00  0.00     0.001 A 
HETATM   22  C           1     -18.190 -10.734  -5.032  0.00  0.00     0.000 A 
HETATM   23  C           1     -19.562 -10.483  -5.019  0.00  0.00     0.001 A 
HETATM   24  C           1     -20.109  -9.644  -4.049  0.00  0.00     0.007 A 
ENDBRANCH  18  19
ENDBRANCH  17  18
BRANCH  17  25
HETATM   25  C           1     -22.183  -7.874  -1.208  0.00  0.00     0.197 C 
HETATM   26  O           1     -22.383  -8.974  -0.648  0.00  0.00    -0.646 OA
HETATM   27  O           1     -22.713  -6.837  -0.756  0.00  0.00    -0.646 OA
ENDBRANCH  17  25
ENDBRANCH   1  17
TORSDOF 8
ENDMDL
