MODEL 1
REMARK VINA RESULT:      -7.1      0.000      0.000
REMARK  6 active torsions:
REMARK  status: ('A' for Active; 'I' for Inactive)
REMARK    1  A    between atoms: C_3  and  C_4 
REMARK    2  A    between atoms: C_4  and  C_5 
REMARK    3  A    between atoms: C_4  and  N_9 
REMARK    4  A    between atoms: C_5  and  C_8 
REMARK       I    between atoms: C_6  and  N_9 
REMARK    5  A    between atoms: C_6  and  C_15 
REMARK    6  A    between atoms: C_8  and  C_10 
ROOT
HETATM    1  C           1     -22.013  -4.681  -8.041  0.00  0.00     0.251 C 
HETATM    2  O           1     -22.459  -3.714  -7.472  0.00  0.00    -0.271 OA
HETATM    3  N           1     -22.144  -4.796  -9.399  0.00  0.00    -0.345 N 
HETATM    4  H           1     -21.771  -5.607  -9.876  0.00  0.00     0.163 HD
ENDROOT
BRANCH   3   5
HETATM    5  C           1     -22.816  -3.757 -10.153  0.00  0.00     0.186 C 
BRANCH   5   6
HETATM    6  C           1     -24.302  -3.838  -9.906  0.00  0.00     0.196 C 
HETATM    7  O           1     -24.892  -4.938  -9.992  0.00  0.00    -0.646 OA
HETATM    8  O           1     -24.946  -2.806  -9.617  0.00  0.00    -0.646 OA
ENDBRANCH   5   6
BRANCH   5   9
HETATM    9  C           1     -22.537  -3.946 -11.638  0.00  0.00     0.046 C 
BRANCH   9  10
HETATM   10  C           1     -22.758  -2.628 -12.369  0.00  0.00     0.116 C 
BRANCH  10  11
HETATM   11  C           1     -23.801  -2.817 -13.444  0.00  0.00     0.172 C 
HETATM   12  O           1     -25.014  -2.821 -13.143  0.00  0.00    -0.648 OA
HETATM   13  O           1     -23.450  -2.970 -14.634  0.00  0.00    -0.648 OA
ENDBRANCH  10  11
ENDBRANCH   9  10
ENDBRANCH   5   9
ENDBRANCH   3   5
BRANCH   1  14
HETATM   14  C           1     -21.312  -5.763  -7.255  0.00  0.00     0.311 C 
HETATM   15  C           1     -21.186  -5.371  -5.792  0.00  0.00     0.047 C 
HETATM   16  C           1     -19.805  -4.739  -5.669  0.00  0.00     0.033 C 
HETATM   17  C           1     -19.211  -4.807  -7.065  0.00  0.00     0.271 C 
HETATM   18  N           1     -19.929  -5.911  -7.696  0.00  0.00     0.097 N 
HETATM   19  H           1     -19.540  -6.797  -7.374  0.00  0.00     0.317 HD
ENDBRANCH   1  14
TORSDOF 6
ENDMDL
MODEL 2
REMARK VINA RESULT:      -6.4      1.687      2.240
REMARK  6 active torsions:
REMARK  status: ('A' for Active; 'I' for Inactive)
REMARK    1  A    between atoms: C_3  and  C_4 
REMARK    2  A    between atoms: C_4  and  C_5 
REMARK    3  A    between atoms: C_4  and  N_9 
REMARK    4  A    between atoms: C_5  and  C_8 
REMARK       I    between atoms: C_6  and  N_9 
REMARK    5  A    between atoms: C_6  and  C_15 
REMARK    6  A    between atoms: C_8  and  C_10 
ROOT
HETATM    1  C           1     -22.114  -4.557  -7.950  0.00  0.00     0.251 C 
HETATM    2  O           1     -22.372  -3.586  -7.280  0.00  0.00    -0.271 OA
HETATM    3  N           1     -22.536  -4.623  -9.250  0.00  0.00    -0.345 N 
HETATM    4  H           1     -22.320  -5.437  -9.812  0.00  0.00     0.163 HD
ENDROOT
BRANCH   3   5
HETATM    5  C           1     -23.293  -3.527  -9.823  0.00  0.00     0.186 C 
BRANCH   5   6
HETATM    6  C           1     -24.761  -3.872  -9.816  0.00  0.00     0.196 C 
HETATM    7  O           1     -25.123  -5.068  -9.769  0.00  0.00    -0.646 OA
HETATM    8  O           1     -25.618  -2.962  -9.856  0.00  0.00    -0.646 OA
ENDBRANCH   5   6
BRANCH   5   9
HETATM    9  C           1     -22.835  -3.288 -11.256  0.00  0.00     0.046 C 
BRANCH   9  10
HETATM   10  C           1     -21.838  -4.366 -11.659  0.00  0.00     0.116 C 
BRANCH  10  11
HETATM   11  C           1     -20.455  -3.969 -11.203  0.00  0.00     0.172 C 
HETATM   12  O           1     -19.663  -4.838 -10.780  0.00  0.00    -0.648 OA
HETATM   13  O           1     -20.103  -2.770 -11.250  0.00  0.00    -0.648 OA
ENDBRANCH  10  11
ENDBRANCH   9  10
ENDBRANCH   5   9
ENDBRANCH   3   5
BRANCH   1  14
HETATM   14  C           1     -21.325  -5.697  -7.353  0.00  0.00     0.311 C 
HETATM   15  C           1     -21.069  -5.461  -5.874  0.00  0.00     0.047 C 
HETATM   16  C           1     -19.693  -4.809  -5.809  0.00  0.00     0.033 C 
HETATM   17  C           1     -19.231  -4.713  -7.252  0.00  0.00     0.271 C 
HETATM   18  N           1     -19.987  -5.762  -7.931  0.00  0.00     0.097 N 
HETATM   19  H           1     -19.555  -6.667  -7.744  0.00  0.00     0.317 HD
ENDBRANCH   1  14
TORSDOF 6
ENDMDL
MODEL 3
REMARK VINA RESULT:      -5.8      2.302      3.569
REMARK  6 active torsions:
REMARK  status: ('A' for Active; 'I' for Inactive)
REMARK    1  A    between atoms: C_3  and  C_4 
REMARK    2  A    between atoms: C_4  and  C_5 
REMARK    3  A    between atoms: C_4  and  N_9 
REMARK    4  A    between atoms: C_5  and  C_8 
REMARK       I    between atoms: C_6  and  N_9 
REMARK    5  A    between atoms: C_6  and  C_15 
REMARK    6  A    between atoms: C_8  and  C_10 
ROOT
HETATM    1  C           1     -20.793  -5.873  -6.577  0.00  0.00     0.251 C 
HETATM    2  O           1     -20.189  -6.646  -7.281  0.00  0.00    -0.271 OA
HETATM    3  N           1     -21.579  -4.905  -7.140  0.00  0.00    -0.345 N 
HETATM    4  H           1     -22.086  -4.257  -6.550  0.00  0.00     0.163 HD
ENDROOT
BRANCH   3   5
HETATM    5  C           1     -21.685  -4.805  -8.582  0.00  0.00     0.186 C 
BRANCH   5   6
HETATM    6  C           1     -20.400  -4.251  -9.144  0.00  0.00     0.196 C 
HETATM    7  O           1     -19.708  -3.462  -8.464  0.00  0.00    -0.646 OA
HETATM    8  O           1     -20.025  -4.580 -10.291  0.00  0.00    -0.646 OA
ENDBRANCH   5   6
BRANCH   5   9
HETATM    9  C           1     -22.838  -3.878  -8.944  0.00  0.00     0.046 C 
BRANCH   9  10
HETATM   10  C           1     -23.440  -4.309 -10.275  0.00  0.00     0.116 C 
BRANCH  10  11
HETATM   11  C           1     -24.637  -3.446 -10.590  0.00  0.00     0.172 C 
HETATM   12  O           1     -25.404  -3.082  -9.672  0.00  0.00    -0.648 OA
HETATM   13  O           1     -24.860  -3.094 -11.768  0.00  0.00    -0.648 OA
ENDBRANCH  10  11
ENDBRANCH   9  10
ENDBRANCH   5   9
ENDBRANCH   3   5
BRANCH   1  14
HETATM   14  C           1     -20.683  -5.978  -5.075  0.00  0.00     0.311 C 
HETATM   15  C           1     -20.193  -7.356  -4.664  0.00  0.00     0.047 C 
HETATM   16  C           1     -21.457  -8.156  -4.373  0.00  0.00     0.033 C 
HETATM   17  C           1     -22.604  -7.192  -4.626  0.00  0.00     0.271 C 
HETATM   18  N           1     -21.998  -5.876  -4.449  0.00  0.00     0.097 N 
HETATM   19  H           1     -21.910  -5.673  -3.453  0.00  0.00     0.317 HD
ENDBRANCH   1  14
TORSDOF 6
ENDMDL
MODEL 4
REMARK VINA RESULT:      -5.8      5.880      8.342
REMARK  6 active torsions:
REMARK  status: ('A' for Active; 'I' for Inactive)
REMARK    1  A    between atoms: C_3  and  C_4 
REMARK    2  A    between atoms: C_4  and  C_5 
REMARK    3  A    between atoms: C_4  and  N_9 
REMARK    4  A    between atoms: C_5  and  C_8 
REMARK       I    between atoms: C_6  and  N_9 
REMARK    5  A    between atoms: C_6  and  C_15 
REMARK    6  A    between atoms: C_8  and  C_10 
ROOT
HETATM    1  C           1     -20.779  -7.610  -5.592  0.00  0.00     0.251 C 
HETATM    2  O           1     -19.680  -8.067  -5.800  0.00  0.00    -0.271 OA
HETATM    3  N           1     -21.565  -8.142  -4.606  0.00  0.00    -0.345 N 
HETATM    4  H           1     -22.486  -7.759  -4.432  0.00  0.00     0.163 HD
ENDROOT
BRANCH   3   5
HETATM    5  C           1     -21.081  -9.253  -3.813  0.00  0.00     0.186 C 
BRANCH   5   6
HETATM    6  C           1     -21.705 -10.534  -4.307  0.00  0.00     0.196 C 
HETATM    7  O           1     -21.206 -11.139  -5.281  0.00  0.00    -0.646 OA
HETATM    8  O           1     -22.724 -10.992  -3.744  0.00  0.00    -0.646 OA
ENDBRANCH   5   6
BRANCH   5   9
HETATM    9  C           1     -21.455  -9.037  -2.353  0.00  0.00     0.046 C 
BRANCH   9  10
HETATM   10  C           1     -20.935  -7.683  -1.889  0.00  0.00     0.116 C 
BRANCH  10  11
HETATM   11  C           1     -22.095  -6.741  -1.684  0.00  0.00     0.172 C 
HETATM   12  O           1     -22.404  -5.926  -2.581  0.00  0.00    -0.648 OA
HETATM   13  O           1     -22.747  -6.775  -0.618  0.00  0.00    -0.648 OA
ENDBRANCH  10  11
ENDBRANCH   9  10
ENDBRANCH   5   9
ENDBRANCH   3   5
BRANCH   1  14
HETATM   14  C           1     -21.283  -6.451  -6.418  0.00  0.00     0.311 C 
HETATM   15  C           1     -20.185  -5.913  -7.321  0.00  0.00     0.047 C 
HETATM   16  C           1     -19.563  -4.760  -6.544  0.00  0.00     0.033 C 
HETATM   17  C           1     -20.341  -4.693  -5.241  0.00  0.00     0.271 C 
HETATM   18  N           1     -21.621  -5.315  -5.568  0.00  0.00     0.097 N 
HETATM   19  H           1     -22.205  -4.647  -6.071  0.00  0.00     0.317 HD
ENDBRANCH   1  14
TORSDOF 6
ENDMDL
MODEL 5
REMARK VINA RESULT:      -5.5      2.571      6.920
REMARK  6 active torsions:
REMARK  status: ('A' for Active; 'I' for Inactive)
REMARK    1  A    between atoms: C_3  and  C_4 
REMARK    2  A    between atoms: C_4  and  C_5 
REMARK    3  A    between atoms: C_4  and  N_9 
REMARK    4  A    between atoms: C_5  and  C_8 
REMARK       I    between atoms: C_6  and  N_9 
REMARK    5  A    between atoms: C_6  and  C_15 
REMARK    6  A    between atoms: C_8  and  C_10 
ROOT
HETATM    1  C           1     -21.966  -4.470  -8.888  0.00  0.00     0.251 C 
HETATM    2  O           1     -22.364  -3.466  -8.349  0.00  0.00    -0.271 OA
HETATM    3  N           1     -21.422  -5.479  -8.139  0.00  0.00    -0.345 N 
HETATM    4  H           1     -21.088  -6.321  -8.591  0.00  0.00     0.163 HD
ENDROOT
BRANCH   3   5
HETATM    5  C           1     -21.325  -5.342  -6.700  0.00  0.00     0.186 C 
BRANCH   5   6
HETATM    6  C           1     -19.987  -4.744  -6.341  0.00  0.00     0.196 C 
HETATM    7  O           1     -19.766  -4.362  -5.171  0.00  0.00    -0.646 OA
HETATM    8  O           1     -19.099  -4.629  -7.214  0.00  0.00    -0.646 OA
ENDBRANCH   5   6
BRANCH   5   9
HETATM    9  C           1     -21.459  -6.712  -6.048  0.00  0.00     0.046 C 
BRANCH   9  10
HETATM   10  C           1     -22.503  -6.650  -4.942  0.00  0.00     0.116 C 
BRANCH  10  11
HETATM   11  C           1     -21.814  -6.668  -3.598  0.00  0.00     0.172 C 
HETATM   12  O           1     -20.833  -7.419  -3.410  0.00  0.00    -0.648 OA
HETATM   13  O           1     -22.225  -5.931  -2.676  0.00  0.00    -0.648 OA
ENDBRANCH  10  11
ENDBRANCH   9  10
ENDBRANCH   5   9
ENDBRANCH   3   5
BRANCH   1  14
HETATM   14  C           1     -22.068  -4.613 -10.387  0.00  0.00     0.311 C 
HETATM   15  C           1     -21.958  -3.259 -11.067  0.00  0.00     0.047 C 
HETATM   16  C           1     -23.397  -2.797 -11.267  0.00  0.00     0.033 C 
HETATM   17  C           1     -24.255  -3.914 -10.697  0.00  0.00     0.271 C 
HETATM   18  N           1     -23.392  -5.090 -10.774  0.00  0.00     0.097 N 
HETATM   19  H           1     -23.384  -5.443 -11.731  0.00  0.00     0.317 HD
ENDBRANCH   1  14
TORSDOF 6
ENDMDL
MODEL 6
REMARK VINA RESULT:      -5.5      4.964      7.904
REMARK  6 active torsions:
REMARK  status: ('A' for Active; 'I' for Inactive)
REMARK    1  A    between atoms: C_3  and  C_4 
REMARK    2  A    between atoms: C_4  and  C_5 
REMARK    3  A    between atoms: C_4  and  N_9 
REMARK    4  A    between atoms: C_5  and  C_8 
REMARK       I    between atoms: C_6  and  N_9 
REMARK    5  A    between atoms: C_6  and  C_15 
REMARK    6  A    between atoms: C_8  and  C_10 
ROOT
HETATM    1  C           1     -20.193  -5.967  -6.298  0.00  0.00     0.251 C 
HETATM    2  O           1     -19.951  -5.225  -5.376  0.00  0.00    -0.271 OA
HETATM    3  N           1     -20.273  -7.317  -6.086  0.00  0.00    -0.345 N 
HETATM    4  H           1     -20.475  -7.939  -6.858  0.00  0.00     0.163 HD
ENDROOT
BRANCH   3   5
HETATM    5  C           1     -20.067  -7.856  -4.756  0.00  0.00     0.186 C 
BRANCH   5   6
HETATM    6  C           1     -19.295  -9.148  -4.852  0.00  0.00     0.196 C 
HETATM    7  O           1     -19.617 -10.009  -5.699  0.00  0.00    -0.646 OA
HETATM    8  O           1     -18.332  -9.359  -4.082  0.00  0.00    -0.646 OA
ENDBRANCH   5   6
BRANCH   5   9
HETATM    9  C           1     -21.416  -8.118  -4.099  0.00  0.00     0.046 C 
BRANCH   9  10
HETATM   10  C           1     -21.280  -7.988  -2.588  0.00  0.00     0.116 C 
BRANCH  10  11
HETATM   11  C           1     -22.049  -6.778  -2.115  0.00  0.00     0.172 C 
HETATM   12  O           1     -22.301  -6.635  -0.900  0.00  0.00    -0.648 OA
HETATM   13  O           1     -22.433  -5.921  -2.940  0.00  0.00    -0.648 OA
ENDBRANCH  10  11
ENDBRANCH   9  10
ENDBRANCH   5   9
ENDBRANCH   3   5
BRANCH   1  14
HETATM   14  C           1     -20.408  -5.406  -7.682  0.00  0.00     0.311 C 
HETATM   15  C           1     -20.146  -3.909  -7.705  0.00  0.00     0.047 C 
HETATM   16  C           1     -21.513  -3.264  -7.506  0.00  0.00     0.033 C 
HETATM   17  C           1     -22.486  -4.425  -7.388  0.00  0.00     0.271 C 
HETATM   18  N           1     -21.808  -5.519  -8.077  0.00  0.00     0.097 N 
HETATM   19  H           1     -21.911  -5.401  -9.085  0.00  0.00     0.317 HD
ENDBRANCH   1  14
TORSDOF 6
ENDMDL
MODEL 7
REMARK VINA RESULT:      -5.5      6.653      9.368
REMARK  6 active torsions:
REMARK  status: ('A' for Active; 'I' for Inactive)
REMARK    1  A    between atoms: C_3  and  C_4 
REMARK    2  A    between atoms: C_4  and  C_5 
REMARK    3  A    between atoms: C_4  and  N_9 
REMARK    4  A    between atoms: C_5  and  C_8 
REMARK       I    between atoms: C_6  and  N_9 
REMARK    5  A    between atoms: C_6  and  C_15 
REMARK    6  A    between atoms: C_8  and  C_10 
ROOT
HETATM    1  C           1     -21.290 -10.199  -1.145  0.00  0.00     0.251 C 
HETATM    2  O           1     -20.427  -9.994  -0.325  0.00  0.00    -0.271 OA
HETATM    3  N           1     -21.753  -9.171  -1.921  0.00  0.00    -0.345 N 
HETATM    4  H           1     -22.477  -9.342  -2.608  0.00  0.00     0.163 HD
ENDROOT
BRANCH   3   5
HETATM    5  C           1     -21.210  -7.837  -1.758  0.00  0.00     0.186 C 
BRANCH   5   6
HETATM    6  C           1     -22.292  -6.911  -1.261  0.00  0.00     0.196 C 
HETATM    7  O           1     -22.993  -7.237  -0.279  0.00  0.00    -0.646 OA
HETATM    8  O           1     -22.488  -5.815  -1.833  0.00  0.00    -0.646 OA
ENDBRANCH   5   6
BRANCH   5   9
HETATM    9  C           1     -20.687  -7.335  -3.097  0.00  0.00     0.046 C 
BRANCH   9  10
HETATM   10  C           1     -21.417  -8.045  -4.229  0.00  0.00     0.116 C 
BRANCH  10  11
HETATM   11  C           1     -21.731  -7.056  -5.325  0.00  0.00     0.172 C 
HETATM   12  O           1     -21.138  -7.132  -6.423  0.00  0.00    -0.648 OA
HETATM   13  O           1     -22.582  -6.161  -5.134  0.00  0.00    -0.648 OA
ENDBRANCH  10  11
ENDBRANCH   9  10
ENDBRANCH   5   9
ENDBRANCH   3   5
BRANCH   1  14
HETATM   14  C           1     -21.855 -11.588  -1.315  0.00  0.00     0.311 C 
HETATM   15  C           1     -23.159 -11.548  -2.094  0.00  0.00     0.047 C 
HETATM   16  C           1     -24.253 -11.507  -1.034  0.00  0.00     0.033 C 
HETATM   17  C           1     -23.519 -11.532   0.295  0.00  0.00     0.271 C 
HETATM   18  N           1     -22.238 -12.154  -0.026  0.00  0.00     0.097 N 
HETATM   19  H           1     -22.359 -13.165  -0.096  0.00  0.00     0.317 HD
ENDBRANCH   1  14
TORSDOF 6
ENDMDL
MODEL 8
REMARK VINA RESULT:      -5.5      4.335      7.924
REMARK  6 active torsions:
REMARK  status: ('A' for Active; 'I' for Inactive)
REMARK    1  A    between atoms: C_3  and  C_4 
REMARK    2  A    between atoms: C_4  and  C_5 
REMARK    3  A    between atoms: C_4  and  N_9 
REMARK    4  A    between atoms: C_5  and  C_8 
REMARK       I    between atoms: C_6  and  N_9 
REMARK    5  A    between atoms: C_6  and  C_15 
REMARK    6  A    between atoms: C_8  and  C_10 
ROOT
HETATM    1  C           1     -21.333  -5.459  -5.525  0.00  0.00     0.251 C 
HETATM    2  O           1     -22.526  -5.494  -5.711  0.00  0.00    -0.271 OA
HETATM    3  N           1     -20.748  -6.352  -4.669  0.00  0.00    -0.345 N 
HETATM    4  H           1     -19.748  -6.323  -4.513  0.00  0.00     0.163 HD
ENDROOT
BRANCH   3   5
HETATM    5  C           1     -21.559  -7.339  -3.985  0.00  0.00     0.186 C 
BRANCH   5   6
HETATM    6  C           1     -21.720  -6.944  -2.538  0.00  0.00     0.196 C 
HETATM    7  O           1     -21.134  -7.591  -1.644  0.00  0.00    -0.646 OA
HETATM    8  O           1     -22.440  -5.967  -2.233  0.00  0.00    -0.646 OA
ENDBRANCH   5   6
BRANCH   5   9
HETATM    9  C           1     -20.880  -8.700  -4.067  0.00  0.00     0.046 C 
BRANCH   9  10
HETATM   10  C           1     -19.549  -8.562  -4.793  0.00  0.00     0.116 C 
BRANCH  10  11
HETATM   11  C           1     -18.465  -9.243  -3.993  0.00  0.00     0.172 C 
HETATM   12  O           1     -18.584  -9.360  -2.755  0.00  0.00    -0.648 OA
HETATM   13  O           1     -17.450  -9.690  -4.570  0.00  0.00    -0.648 OA
ENDBRANCH  10  11
ENDBRANCH   9  10
ENDBRANCH   5   9
ENDBRANCH   3   5
BRANCH   1  14
HETATM   14  C           1     -20.489  -4.431  -6.238  0.00  0.00     0.311 C 
HETATM   15  C           1     -21.329  -3.626  -7.216  0.00  0.00     0.047 C 
HETATM   16  C           1     -21.156  -4.327  -8.557  0.00  0.00     0.033 C 
HETATM   17  C           1     -20.222  -5.492  -8.279  0.00  0.00     0.271 C 
HETATM   18  N           1     -19.491  -5.076  -7.086  0.00  0.00     0.097 N 
HETATM   19  H           1     -18.759  -4.416  -7.349  0.00  0.00     0.317 HD
ENDBRANCH   1  14
TORSDOF 6
ENDMDL
MODEL 9
REMARK VINA RESULT:      -5.4      6.777      8.841
REMARK  6 active torsions:
REMARK  status: ('A' for Active; 'I' for Inactive)
REMARK    1  A    between atoms: C_3  and  C_4 
REMARK    2  A    between atoms: C_4  and  C_5 
REMARK    3  A    between atoms: C_4  and  N_9 
REMARK    4  A    between atoms: C_5  and  C_8 
REMARK       I    between atoms: C_6  and  N_9 
REMARK    5  A    between atoms: C_6  and  C_15 
REMARK    6  A    between atoms: C_8  and  C_10 
ROOT
HETATM    1  C           1     -20.838  -8.751  -1.662  0.00  0.00     0.251 C 
HETATM    2  O           1     -19.753  -8.226  -1.589  0.00  0.00    -0.271 OA
HETATM    3  N           1     -21.616  -8.563  -2.772  0.00  0.00    -0.345 N 
HETATM    4  H           1     -22.526  -9.003  -2.833  0.00  0.00     0.163 HD
ENDROOT
BRANCH   3   5
HETATM    5  C           1     -21.138  -7.734  -3.860  0.00  0.00     0.186 C 
BRANCH   5   6
HETATM    6  C           1     -21.968  -6.477  -3.937  0.00  0.00     0.196 C 
HETATM    7  O           1     -22.213  -5.956  -5.047  0.00  0.00    -0.646 OA
HETATM    8  O           1     -22.411  -5.955  -2.890  0.00  0.00    -0.646 OA
ENDBRANCH   5   6
BRANCH   5   9
HETATM    9  C           1     -21.254  -8.500  -5.172  0.00  0.00     0.046 C 
BRANCH   9  10
HETATM   10  C           1     -20.417  -9.769  -5.096  0.00  0.00     0.116 C 
BRANCH  10  11
HETATM   11  C           1     -18.954  -9.414  -5.199  0.00  0.00     0.172 C 
HETATM   12  O           1     -18.187  -9.644  -4.239  0.00  0.00    -0.648 OA
HETATM   13  O           1     -18.510  -8.891  -6.243  0.00  0.00    -0.648 OA
ENDBRANCH  10  11
ENDBRANCH   9  10
ENDBRANCH   5   9
ENDBRANCH   3   5
BRANCH   1  14
HETATM   14  C           1     -21.335  -9.615  -0.528  0.00  0.00     0.311 C 
HETATM   15  C           1     -22.854  -9.680  -0.525  0.00  0.00     0.047 C 
HETATM   16  C           1     -23.296  -8.593   0.446  0.00  0.00     0.033 C 
HETATM   17  C           1     -22.008  -7.966   0.953  0.00  0.00     0.271 C 
HETATM   18  N           1     -21.011  -9.016   0.763  0.00  0.00     0.097 N 
HETATM   19  H           1     -21.094  -9.703   1.512  0.00  0.00     0.317 HD
ENDBRANCH   1  14
TORSDOF 6
ENDMDL
