MODEL 1
REMARK VINA RESULT:      -7.5      0.000      0.000
REMARK  9 active torsions:
REMARK  status: ('A' for Active; 'I' for Inactive)
REMARK    1  A    between atoms: C_2  and  C_4 
REMARK    2  A    between atoms: C_4  and  C_5 
REMARK    3  A    between atoms: C_4  and  N_19 
REMARK    4  A    between atoms: C_5  and  C_15 
REMARK    5  A    between atoms: N_13  and  C_17 
REMARK    6  A    between atoms: C_16  and  C_17 
REMARK    7  A    between atoms: C_16  and  C_23 
REMARK    8  A    between atoms: C_17  and  C_18 
REMARK       I    between atoms: C_18  and  N_19 
REMARK    9  A    between atoms: C_23  and  C_24 
ROOT
HETATM    1  O           1     -37.613  -0.781 -13.100  0.00  0.00    -0.271 OA
HETATM    2  C           1     -36.589  -0.361 -12.617  0.00  0.00     0.249 C 
HETATM    3  N           1     -36.560   0.026 -11.305  0.00  0.00    -0.344 N 
HETATM    4  H           1     -36.772   0.982 -11.054  0.00  0.00     0.163 HD
ENDROOT
BRANCH   3   5
HETATM    5  C           1     -36.225  -0.937 -10.273  0.00  0.00     0.189 C 
BRANCH   5   6
HETATM    6  C           1     -36.647  -0.399  -8.928  0.00  0.00     0.197 C 
HETATM    7  O           1     -35.828   0.223  -8.218  0.00  0.00    -0.646 OA
HETATM    8  O           1     -37.817  -0.577  -8.523  0.00  0.00    -0.646 OA
ENDBRANCH   5   6
BRANCH   5   9
HETATM    9  C           1     -34.721  -1.179 -10.274  0.00  0.00     0.074 C 
BRANCH   9  10
HETATM   10  C           1     -34.440  -2.574 -10.737  0.00  0.00    -0.056 A 
HETATM   11  C           1     -35.464  -3.521 -10.758  0.00  0.00     0.007 A 
HETATM   12  C           1     -35.201  -4.822 -11.190  0.00  0.00     0.001 A 
HETATM   13  C           1     -33.916  -5.175 -11.600  0.00  0.00     0.000 A 
HETATM   14  C           1     -32.892  -4.227 -11.579  0.00  0.00     0.001 A 
HETATM   15  C           1     -33.155  -2.927 -11.148  0.00  0.00     0.007 A 
ENDBRANCH   9  10
ENDBRANCH   5   9
ENDBRANCH   3   5
BRANCH   2  16
HETATM   16  C           1     -35.342  -0.263 -13.461  0.00  0.00     0.275 C 
BRANCH  16  17
HETATM   17  N           1     -34.974  -1.626 -13.967  0.00  0.00    -0.066 N 
HETATM   18  H           1     -34.884  -2.285 -13.161  0.00  0.00     0.275 HD
HETATM   19  H           1     -35.717  -1.969 -14.617  0.00  0.00     0.275 HD
HETATM   20  H           1     -34.062  -1.574 -14.475  0.00  0.00     0.275 HD
ENDBRANCH  16  17
BRANCH  16  21
HETATM   21  C           1     -35.598   0.664 -14.642  0.00  0.00     0.053 C 
BRANCH  21  22
HETATM   22  C           1     -35.835  -0.165 -15.897  0.00  0.00     0.115 C 
BRANCH  22  23
HETATM   23  C           1     -37.310  -0.184 -16.218  0.00  0.00     0.172 C 
HETATM   24  O           1     -37.862  -1.252 -16.558  0.00  0.00    -0.648 OA
HETATM   25  O           1     -37.979   0.870 -16.145  0.00  0.00    -0.648 OA
ENDBRANCH  22  23
ENDBRANCH  21  22
ENDBRANCH  16  21
ENDBRANCH   2  16
TORSDOF 9
ENDMDL
MODEL 2
REMARK VINA RESULT:      -7.5      2.063      2.563
REMARK  9 active torsions:
REMARK  status: ('A' for Active; 'I' for Inactive)
REMARK    1  A    between atoms: C_2  and  C_4 
REMARK    2  A    between atoms: C_4  and  C_5 
REMARK    3  A    between atoms: C_4  and  N_19 
REMARK    4  A    between atoms: C_5  and  C_15 
REMARK    5  A    between atoms: N_13  and  C_17 
REMARK    6  A    between atoms: C_16  and  C_17 
REMARK    7  A    between atoms: C_16  and  C_23 
REMARK    8  A    between atoms: C_17  and  C_18 
REMARK       I    between atoms: C_18  and  N_19 
REMARK    9  A    between atoms: C_23  and  C_24 
ROOT
HETATM    1  O           1     -35.076   1.060 -13.567  0.00  0.00    -0.271 OA
HETATM    2  C           1     -35.417  -0.068 -13.831  0.00  0.00     0.249 C 
HETATM    3  N           1     -34.967  -1.114 -13.071  0.00  0.00    -0.344 N 
HETATM    4  H           1     -34.109  -1.587 -13.320  0.00  0.00     0.163 HD
ENDROOT
BRANCH   3   5
HETATM    5  C           1     -35.723  -1.544 -11.911  0.00  0.00     0.189 C 
BRANCH   5   6
HETATM    6  C           1     -36.653  -0.437 -11.478  0.00  0.00     0.197 C 
HETATM    7  O           1     -36.266   0.416 -10.650  0.00  0.00    -0.646 OA
HETATM    8  O           1     -37.810  -0.374 -11.946  0.00  0.00    -0.646 OA
ENDBRANCH   5   6
BRANCH   5   9
HETATM    9  C           1     -34.764  -1.877 -10.775  0.00  0.00     0.074 C 
BRANCH   9  10
HETATM   10  C           1     -34.248  -3.270 -10.949  0.00  0.00    -0.056 A 
HETATM   11  C           1     -35.025  -4.357 -10.547  0.00  0.00     0.007 A 
HETATM   12  C           1     -34.543  -5.657 -10.709  0.00  0.00     0.001 A 
HETATM   13  C           1     -33.286  -5.869 -11.274  0.00  0.00     0.000 A 
HETATM   14  C           1     -32.509  -4.783 -11.677  0.00  0.00     0.001 A 
HETATM   15  C           1     -32.991  -3.483 -11.514  0.00  0.00     0.007 A 
ENDBRANCH   9  10
ENDBRANCH   5   9
ENDBRANCH   3   5
BRANCH   2  16
HETATM   16  C           1     -36.339  -0.323 -14.997  0.00  0.00     0.275 C 
BRANCH  16  17
HETATM   17  N           1     -37.412   0.725 -15.024  0.00  0.00    -0.066 N 
HETATM   18  H           1     -38.349   0.266 -14.985  0.00  0.00     0.275 HD
HETATM   19  H           1     -37.299   1.359 -14.202  0.00  0.00     0.275 HD
HETATM   20  H           1     -37.334   1.280 -15.907  0.00  0.00     0.275 HD
ENDBRANCH  16  17
BRANCH  16  21
HETATM   21  C           1     -35.545  -0.271 -16.295  0.00  0.00     0.053 C 
BRANCH  21  22
HETATM   22  C           1     -35.687  -1.596 -17.032  0.00  0.00     0.115 C 
BRANCH  22  23
HETATM   23  C           1     -34.550  -2.510 -16.649  0.00  0.00     0.172 C 
HETATM   24  O           1     -34.592  -3.142 -15.571  0.00  0.00    -0.648 OA
HETATM   25  O           1     -33.565  -2.636 -17.409  0.00  0.00    -0.648 OA
ENDBRANCH  22  23
ENDBRANCH  21  22
ENDBRANCH  16  21
ENDBRANCH   2  16
TORSDOF 9
ENDMDL
MODEL 3
REMARK VINA RESULT:      -6.6     15.663     17.953
REMARK  9 active torsions:
REMARK  status: ('A' for Active; 'I' for Inactive)
REMARK    1  A    between atoms: C_2  and  C_4 
REMARK    2  A    between atoms: C_4  and  C_5 
REMARK    3  A    between atoms: C_4  and  N_19 
REMARK    4  A    between atoms: C_5  and  C_15 
REMARK    5  A    between atoms: N_13  and  C_17 
REMARK    6  A    between atoms: C_16  and  C_17 
REMARK    7  A    between atoms: C_16  and  C_23 
REMARK    8  A    between atoms: C_17  and  C_18 
REMARK       I    between atoms: C_18  and  N_19 
REMARK    9  A    between atoms: C_23  and  C_24 
ROOT
HETATM    1  O           1     -19.585  -6.681  -7.007  0.00  0.00    -0.271 OA
HETATM    2  C           1     -20.475  -6.746  -6.193  0.00  0.00     0.249 C 
HETATM    3  N           1     -20.852  -7.960  -5.686  0.00  0.00    -0.344 N 
HETATM    4  H           1     -21.578  -8.496  -6.144  0.00  0.00     0.163 HD
ENDROOT
BRANCH   3   5
HETATM    5  C           1     -20.213  -8.478  -4.492  0.00  0.00     0.189 C 
BRANCH   5   6
HETATM    6  C           1     -19.000  -9.286  -4.881  0.00  0.00     0.197 C 
HETATM    7  O           1     -18.005  -9.323  -4.126  0.00  0.00    -0.646 OA
HETATM    8  O           1     -18.990  -9.918  -5.960  0.00  0.00    -0.646 OA
ENDBRANCH   5   6
BRANCH   5   9
HETATM    9  C           1     -21.194  -9.364  -3.735  0.00  0.00     0.074 C 
BRANCH   9  10
HETATM   10  C           1     -21.650  -8.661  -2.496  0.00  0.00    -0.056 A 
HETATM   11  C           1     -21.710  -7.267  -2.467  0.00  0.00     0.007 A 
HETATM   12  C           1     -22.136  -6.612  -1.311  0.00  0.00     0.001 A 
HETATM   13  C           1     -22.502  -7.349  -0.185  0.00  0.00     0.000 A 
HETATM   14  C           1     -22.442  -8.742  -0.214  0.00  0.00     0.001 A 
HETATM   15  C           1     -22.016  -9.398  -1.370  0.00  0.00     0.007 A 
ENDBRANCH   9  10
ENDBRANCH   5   9
ENDBRANCH   3   5
BRANCH   2  16
HETATM   16  C           1     -21.169  -5.487  -5.733  0.00  0.00     0.275 C 
BRANCH  16  17
HETATM   17  N           1     -20.148  -4.420  -5.474  0.00  0.00    -0.066 N 
HETATM   18  H           1     -20.309  -3.618  -6.124  0.00  0.00     0.275 HD
HETATM   19  H           1     -20.232  -4.090  -4.486  0.00  0.00     0.275 HD
HETATM   20  H           1     -19.191  -4.808  -5.633  0.00  0.00     0.275 HD
ENDBRANCH  16  17
BRANCH  16  21
HETATM   21  C           1     -22.134  -5.015  -6.813  0.00  0.00     0.053 C 
BRANCH  21  22
HETATM   22  C           1     -21.529  -3.830  -7.552  0.00  0.00     0.115 C 
BRANCH  22  23
HETATM   23  C           1     -21.259  -4.214  -8.987  0.00  0.00     0.172 C 
HETATM   24  O           1     -20.083  -4.345  -9.388  0.00  0.00    -0.648 OA
HETATM   25  O           1     -22.213  -4.402  -9.773  0.00  0.00    -0.648 OA
ENDBRANCH  22  23
ENDBRANCH  21  22
ENDBRANCH  16  21
ENDBRANCH   2  16
TORSDOF 9
ENDMDL
MODEL 4
REMARK VINA RESULT:      -6.5     15.709     18.441
REMARK  9 active torsions:
REMARK  status: ('A' for Active; 'I' for Inactive)
REMARK    1  A    between atoms: C_2  and  C_4 
REMARK    2  A    between atoms: C_4  and  C_5 
REMARK    3  A    between atoms: C_4  and  N_19 
REMARK    4  A    between atoms: C_5  and  C_15 
REMARK    5  A    between atoms: N_13  and  C_17 
REMARK    6  A    between atoms: C_16  and  C_17 
REMARK    7  A    between atoms: C_16  and  C_23 
REMARK    8  A    between atoms: C_17  and  C_18 
REMARK       I    between atoms: C_18  and  N_19 
REMARK    9  A    between atoms: C_23  and  C_24 
ROOT
HETATM    1  O           1     -21.242  -5.284  -2.600  0.00  0.00    -0.271 OA
HETATM    2  C           1     -21.743  -6.325  -2.954  0.00  0.00     0.249 C 
HETATM    3  N           1     -22.365  -6.405  -4.171  0.00  0.00    -0.344 N 
HETATM    4  H           1     -23.352  -6.199  -4.249  0.00  0.00     0.163 HD
ENDROOT
BRANCH   3   5
HETATM    5  C           1     -21.609  -6.789  -5.347  0.00  0.00     0.189 C 
BRANCH   5   6
HETATM    6  C           1     -20.875  -8.079  -5.074  0.00  0.00     0.197 C 
HETATM    7  O           1     -21.500  -9.160  -5.046  0.00  0.00    -0.646 OA
HETATM    8  O           1     -19.640  -8.065  -4.876  0.00  0.00    -0.646 OA
ENDBRANCH   5   6
BRANCH   5   9
HETATM    9  C           1     -20.605  -5.694  -5.685  0.00  0.00     0.074 C 
BRANCH   9  10
HETATM   10  C           1     -20.935  -5.108  -7.022  0.00  0.00    -0.056 A 
HETATM   11  C           1     -19.984  -5.120  -8.043  0.00  0.00     0.007 A 
HETATM   12  C           1     -20.293  -4.574  -9.289  0.00  0.00     0.001 A 
HETATM   13  C           1     -21.552  -4.017  -9.515  0.00  0.00     0.000 A 
HETATM   14  C           1     -22.503  -4.006  -8.494  0.00  0.00     0.001 A 
HETATM   15  C           1     -22.194  -4.552  -7.248  0.00  0.00     0.007 A 
ENDBRANCH   9  10
ENDBRANCH   5   9
ENDBRANCH   3   5
BRANCH   2  16
HETATM   16  C           1     -21.681  -7.535  -2.056  0.00  0.00     0.275 C 
BRANCH  16  17
HETATM   17  N           1     -20.248  -7.858  -1.751  0.00  0.00    -0.066 N 
HETATM   18  H           1     -19.636  -7.083  -2.092  0.00  0.00     0.275 HD
HETATM   19  H           1     -20.128  -7.970  -0.719  0.00  0.00     0.275 HD
HETATM   20  H           1     -19.982  -8.748  -2.232  0.00  0.00     0.275 HD
ENDBRANCH  16  17
BRANCH  16  21
HETATM   21  C           1     -22.422  -7.245  -0.758  0.00  0.00     0.053 C 
BRANCH  21  22
HETATM   22  C           1     -22.028  -8.273   0.294  0.00  0.00     0.115 C 
BRANCH  22  23
HETATM   23  C           1     -22.588  -9.622  -0.086  0.00  0.00     0.172 C 
HETATM   24  O           1     -23.801  -9.867   0.088  0.00  0.00    -0.648 OA
HETATM   25  O           1     -21.837 -10.495  -0.574  0.00  0.00    -0.648 OA
ENDBRANCH  22  23
ENDBRANCH  21  22
ENDBRANCH  16  21
ENDBRANCH   2  16
TORSDOF 9
ENDMDL
MODEL 5
REMARK VINA RESULT:      -6.5     17.878     19.831
REMARK  9 active torsions:
REMARK  status: ('A' for Active; 'I' for Inactive)
REMARK    1  A    between atoms: C_2  and  C_4 
REMARK    2  A    between atoms: C_4  and  C_5 
REMARK    3  A    between atoms: C_4  and  N_19 
REMARK    4  A    between atoms: C_5  and  C_15 
REMARK    5  A    between atoms: N_13  and  C_17 
REMARK    6  A    between atoms: C_16  and  C_17 
REMARK    7  A    between atoms: C_16  and  C_23 
REMARK    8  A    between atoms: C_17  and  C_18 
REMARK       I    between atoms: C_18  and  N_19 
REMARK    9  A    between atoms: C_23  and  C_24 
ROOT
HETATM    1  O           1     -20.788 -12.291  -4.055  0.00  0.00    -0.271 OA
HETATM    2  C           1     -21.325 -11.408  -3.430  0.00  0.00     0.249 C 
HETATM    3  N           1     -22.587 -11.591  -2.932  0.00  0.00    -0.344 N 
HETATM    4  H           1     -23.392 -11.339  -3.490  0.00  0.00     0.163 HD
ENDROOT
BRANCH   3   5
HETATM    5  C           1     -22.769 -12.146  -1.605  0.00  0.00     0.189 C 
BRANCH   5   6
HETATM    6  C           1     -23.401 -13.511  -1.713  0.00  0.00     0.197 C 
HETATM    7  O           1     -24.503 -13.735  -1.168  0.00  0.00    -0.646 OA
HETATM    8  O           1     -22.821 -14.420  -2.346  0.00  0.00    -0.646 OA
ENDBRANCH   5   6
BRANCH   5   9
HETATM    9  C           1     -23.673 -11.229  -0.791  0.00  0.00     0.074 C 
BRANCH   9  10
HETATM   10  C           1     -22.840 -10.229  -0.055  0.00  0.00    -0.056 A 
HETATM   11  C           1     -21.591 -10.597   0.448  0.00  0.00     0.007 A 
HETATM   12  C           1     -20.814  -9.664   1.134  0.00  0.00     0.001 A 
HETATM   13  C           1     -21.284  -8.364   1.319  0.00  0.00     0.000 A 
HETATM   14  C           1     -22.532  -7.996   0.815  0.00  0.00     0.001 A 
HETATM   15  C           1     -23.309  -8.929   0.129  0.00  0.00     0.007 A 
ENDBRANCH   9  10
ENDBRANCH   5   9
ENDBRANCH   3   5
BRANCH   2  16
HETATM   16  C           1     -20.604 -10.103  -3.198  0.00  0.00     0.275 C 
BRANCH  16  17
HETATM   17  N           1     -19.543  -9.926  -4.242  0.00  0.00    -0.066 N 
HETATM   18  H           1     -18.979 -10.802  -4.319  0.00  0.00     0.275 HD
HETATM   19  H           1     -19.992  -9.718  -5.163  0.00  0.00     0.275 HD
HETATM   20  H           1     -18.917  -9.133  -3.973  0.00  0.00     0.275 HD
ENDBRANCH  16  17
BRANCH  16  21
HETATM   21  C           1     -21.597  -8.951  -3.282  0.00  0.00     0.053 C 
BRANCH  21  22
HETATM   22  C           1     -21.034  -7.740  -2.550  0.00  0.00     0.115 C 
BRANCH  22  23
HETATM   23  C           1     -21.849  -6.518  -2.895  0.00  0.00     0.172 C 
HETATM   24  O           1     -21.859  -6.084  -4.068  0.00  0.00    -0.648 OA
HETATM   25  O           1     -22.515  -5.939  -2.009  0.00  0.00    -0.648 OA
ENDBRANCH  22  23
ENDBRANCH  21  22
ENDBRANCH  16  21
ENDBRANCH   2  16
TORSDOF 9
ENDMDL
MODEL 6
REMARK VINA RESULT:      -6.4     14.105     17.037
REMARK  9 active torsions:
REMARK  status: ('A' for Active; 'I' for Inactive)
REMARK    1  A    between atoms: C_2  and  C_4 
REMARK    2  A    between atoms: C_4  and  C_5 
REMARK    3  A    between atoms: C_4  and  N_19 
REMARK    4  A    between atoms: C_5  and  C_15 
REMARK    5  A    between atoms: N_13  and  C_17 
REMARK    6  A    between atoms: C_16  and  C_17 
REMARK    7  A    between atoms: C_16  and  C_23 
REMARK    8  A    between atoms: C_17  and  C_18 
REMARK       I    between atoms: C_18  and  N_19 
REMARK    9  A    between atoms: C_23  and  C_24 
ROOT
HETATM    1  O           1     -23.420  -5.957  -5.251  0.00  0.00    -0.271 OA
HETATM    2  C           1     -22.268  -6.316  -5.321  0.00  0.00     0.249 C 
HETATM    3  N           1     -21.768  -6.785  -6.505  0.00  0.00    -0.344 N 
HETATM    4  H           1     -21.822  -7.772  -6.721  0.00  0.00     0.163 HD
ENDROOT
BRANCH   3   5
HETATM    5  C           1     -21.159  -5.868  -7.448  0.00  0.00     0.189 C 
BRANCH   5   6
HETATM    6  C           1     -19.680  -5.768  -7.167  0.00  0.00     0.197 C 
HETATM    7  O           1     -19.118  -4.651  -7.165  0.00  0.00    -0.646 OA
HETATM    8  O           1     -19.016  -6.802  -6.937  0.00  0.00    -0.646 OA
ENDBRANCH   5   6
BRANCH   5   9
HETATM    9  C           1     -21.798  -4.493  -7.305  0.00  0.00     0.074 C 
BRANCH   9  10
HETATM   10  C           1     -22.406  -4.086  -8.610  0.00  0.00    -0.056 A 
HETATM   11  C           1     -21.598  -3.928  -9.737  0.00  0.00     0.007 A 
HETATM   12  C           1     -22.165  -3.549 -10.954  0.00  0.00     0.001 A 
HETATM   13  C           1     -23.539  -3.328 -11.045  0.00  0.00     0.000 A 
HETATM   14  C           1     -24.347  -3.487  -9.919  0.00  0.00     0.001 A 
HETATM   15  C           1     -23.780  -3.866  -8.702  0.00  0.00     0.007 A 
ENDBRANCH   9  10
ENDBRANCH   5   9
ENDBRANCH   3   5
BRANCH   2  16
HETATM   16  C           1     -21.382  -6.246  -4.101  0.00  0.00     0.275 C 
BRANCH  16  17
HETATM   17  N           1     -22.231  -6.090  -2.875  0.00  0.00    -0.066 N 
HETATM   18  H           1     -22.099  -6.918  -2.252  0.00  0.00     0.275 HD
HETATM   19  H           1     -21.951  -5.222  -2.366  0.00  0.00     0.275 HD
HETATM   20  H           1     -23.236  -6.023  -3.153  0.00  0.00     0.275 HD
ENDBRANCH  16  17
BRANCH  16  21
HETATM   21  C           1     -20.564  -7.526  -3.993  0.00  0.00     0.053 C 
BRANCH  21  22
HETATM   22  C           1     -21.459  -8.663  -3.517  0.00  0.00     0.115 C 
BRANCH  22  23
HETATM   23  C           1     -21.398  -9.800  -4.507  0.00  0.00     0.172 C 
HETATM   24  O           1     -21.850 -10.924  -4.196  0.00  0.00    -0.648 OA
HETATM   25  O           1     -20.896  -9.619  -5.638  0.00  0.00    -0.648 OA
ENDBRANCH  22  23
ENDBRANCH  21  22
ENDBRANCH  16  21
ENDBRANCH   2  16
TORSDOF 9
ENDMDL
MODEL 7
REMARK VINA RESULT:      -6.4     17.225     18.828
REMARK  9 active torsions:
REMARK  status: ('A' for Active; 'I' for Inactive)
REMARK    1  A    between atoms: C_2  and  C_4 
REMARK    2  A    between atoms: C_4  and  C_5 
REMARK    3  A    between atoms: C_4  and  N_19 
REMARK    4  A    between atoms: C_5  and  C_15 
REMARK    5  A    between atoms: N_13  and  C_17 
REMARK    6  A    between atoms: C_16  and  C_17 
REMARK    7  A    between atoms: C_16  and  C_23 
REMARK    8  A    between atoms: C_17  and  C_18 
REMARK       I    between atoms: C_18  and  N_19 
REMARK    9  A    between atoms: C_23  and  C_24 
ROOT
HETATM    1  O           1     -22.211  -5.709  -2.407  0.00  0.00    -0.271 OA
HETATM    2  C           1     -21.761  -6.772  -2.762  0.00  0.00     0.249 C 
HETATM    3  N           1     -21.149  -7.593  -1.855  0.00  0.00    -0.344 N 
HETATM    4  H           1     -20.154  -7.514  -1.693  0.00  0.00     0.163 HD
ENDROOT
BRANCH   3   5
HETATM    5  C           1     -21.927  -8.577  -1.127  0.00  0.00     0.189 C 
BRANCH   5   6
HETATM    6  C           1     -22.315  -8.015   0.218  0.00  0.00     0.197 C 
HETATM    7  O           1     -21.485  -8.000   1.153  0.00  0.00    -0.646 OA
HETATM    8  O           1     -23.468  -7.567   0.399  0.00  0.00    -0.646 OA
ENDBRANCH   5   6
BRANCH   5   9
HETATM    9  C           1     -21.095  -9.838  -0.931  0.00  0.00     0.074 C 
BRANCH   9  10
HETATM   10  C           1     -21.987 -10.965  -0.513  0.00  0.00    -0.056 A 
HETATM   11  C           1     -21.644 -11.754   0.585  0.00  0.00     0.007 A 
HETATM   12  C           1     -22.476 -12.805   0.974  0.00  0.00     0.001 A 
HETATM   13  C           1     -23.649 -13.065   0.266  0.00  0.00     0.000 A 
HETATM   14  C           1     -23.992 -12.275  -0.831  0.00  0.00     0.001 A 
HETATM   15  C           1     -23.160 -11.225  -1.221  0.00  0.00     0.007 A 
ENDBRANCH   9  10
ENDBRANCH   5   9
ENDBRANCH   3   5
BRANCH   2  16
HETATM   16  C           1     -21.876  -7.194  -4.206  0.00  0.00     0.275 C 
BRANCH  16  17
HETATM   17  N           1     -22.787  -6.250  -4.932  0.00  0.00    -0.066 N 
HETATM   18  H           1     -22.556  -6.256  -5.951  0.00  0.00     0.275 HD
HETATM   19  H           1     -23.779  -6.550  -4.797  0.00  0.00     0.275 HD
HETATM   20  H           1     -22.661  -5.284  -4.554  0.00  0.00     0.275 HD
ENDBRANCH  16  17
BRANCH  16  21
HETATM   21  C           1     -20.498  -7.169  -4.854  0.00  0.00     0.053 C 
BRANCH  21  22
HETATM   22  C           1     -20.597  -6.530  -6.233  0.00  0.00     0.115 C 
BRANCH  22  23
HETATM   23  C           1     -19.941  -5.171  -6.207  0.00  0.00     0.172 C 
HETATM   24  O           1     -20.113  -4.412  -5.230  0.00  0.00    -0.648 OA
HETATM   25  O           1     -19.224  -4.805  -7.164  0.00  0.00    -0.648 OA
ENDBRANCH  22  23
ENDBRANCH  21  22
ENDBRANCH  16  21
ENDBRANCH   2  16
TORSDOF 9
ENDMDL
MODEL 8
REMARK VINA RESULT:      -6.3     17.687     20.029
REMARK  9 active torsions:
REMARK  status: ('A' for Active; 'I' for Inactive)
REMARK    1  A    between atoms: C_2  and  C_4 
REMARK    2  A    between atoms: C_4  and  C_5 
REMARK    3  A    between atoms: C_4  and  N_19 
REMARK    4  A    between atoms: C_5  and  C_15 
REMARK    5  A    between atoms: N_13  and  C_17 
REMARK    6  A    between atoms: C_16  and  C_17 
REMARK    7  A    between atoms: C_16  and  C_23 
REMARK    8  A    between atoms: C_17  and  C_18 
REMARK       I    between atoms: C_18  and  N_19 
REMARK    9  A    between atoms: C_23  and  C_24 
ROOT
HETATM    1  O           1     -19.940  -7.945  -5.929  0.00  0.00    -0.271 OA
HETATM    2  C           1     -19.802  -8.541  -4.887  0.00  0.00     0.249 C 
HETATM    3  N           1     -20.004  -7.894  -3.698  0.00  0.00    -0.344 N 
HETATM    4  H           1     -19.233  -7.428  -3.239  0.00  0.00     0.163 HD
ENDROOT
BRANCH   3   5
HETATM    5  C           1     -21.323  -7.879  -3.096  0.00  0.00     0.189 C 
BRANCH   5   6
HETATM    6  C           1     -21.889  -6.482  -3.160  0.00  0.00     0.197 C 
HETATM    7  O           1     -22.277  -5.916  -2.116  0.00  0.00    -0.646 OA
HETATM    8  O           1     -21.971  -5.892  -4.259  0.00  0.00    -0.646 OA
ENDBRANCH   5   6
BRANCH   5   9
HETATM    9  C           1     -21.222  -8.320  -1.641  0.00  0.00     0.074 C 
BRANCH   9  10
HETATM   10  C           1     -22.182  -9.440  -1.390  0.00  0.00    -0.056 A 
HETATM   11  C           1     -22.961  -9.445  -0.232  0.00  0.00     0.007 A 
HETATM   12  C           1     -23.856 -10.489   0.001  0.00  0.00     0.001 A 
HETATM   13  C           1     -23.974 -11.527  -0.923  0.00  0.00     0.000 A 
HETATM   14  C           1     -23.196 -11.522  -2.081  0.00  0.00     0.001 A 
HETATM   15  C           1     -22.300 -10.478  -2.314  0.00  0.00     0.007 A 
ENDBRANCH   9  10
ENDBRANCH   5   9
ENDBRANCH   3   5
BRANCH   2  16
HETATM   16  C           1     -19.410  -9.997  -4.898  0.00  0.00     0.275 C 
BRANCH  16  17
HETATM   17  N           1     -18.561 -10.277  -6.102  0.00  0.00    -0.066 N 
HETATM   18  H           1     -18.224 -11.265  -6.070  0.00  0.00     0.275 HD
HETATM   19  H           1     -19.127 -10.130  -6.969  0.00  0.00     0.275 HD
HETATM   20  H           1     -17.740  -9.630  -6.108  0.00  0.00     0.275 HD
ENDBRANCH  16  17
BRANCH  16  21
HETATM   21  C           1     -18.622 -10.321  -3.636  0.00  0.00     0.053 C 
BRANCH  21  22
HETATM   22  C           1     -17.278 -10.928  -4.017  0.00  0.00     0.115 C 
BRANCH  22  23
HETATM   23  C           1     -16.205  -9.870  -3.935  0.00  0.00     0.172 C 
HETATM   24  O           1     -15.580  -9.532  -4.963  0.00  0.00    -0.648 OA
HETATM   25  O           1     -15.942  -9.330  -2.838  0.00  0.00    -0.648 OA
ENDBRANCH  22  23
ENDBRANCH  21  22
ENDBRANCH  16  21
ENDBRANCH   2  16
TORSDOF 9
ENDMDL
MODEL 9
REMARK VINA RESULT:      -6.2     14.758     17.601
REMARK  9 active torsions:
REMARK  status: ('A' for Active; 'I' for Inactive)
REMARK    1  A    between atoms: C_2  and  C_4 
REMARK    2  A    between atoms: C_4  and  C_5 
REMARK    3  A    between atoms: C_4  and  N_19 
REMARK    4  A    between atoms: C_5  and  C_15 
REMARK    5  A    between atoms: N_13  and  C_17 
REMARK    6  A    between atoms: C_16  and  C_17 
REMARK    7  A    between atoms: C_16  and  C_23 
REMARK    8  A    between atoms: C_17  and  C_18 
REMARK       I    between atoms: C_18  and  N_19 
REMARK    9  A    between atoms: C_23  and  C_24 
ROOT
HETATM    1  O           1     -21.448  -8.259  -6.214  0.00  0.00    -0.271 OA
HETATM    2  C           1     -20.847  -7.357  -5.681  0.00  0.00     0.249 C 
HETATM    3  N           1     -19.856  -6.701  -6.360  0.00  0.00    -0.344 N 
HETATM    4  H           1     -18.901  -7.030  -6.304  0.00  0.00     0.163 HD
ENDROOT
BRANCH   3   5
HETATM    5  C           1     -20.175  -5.532  -7.157  0.00  0.00     0.189 C 
BRANCH   5   6
HETATM    6  C           1     -20.338  -4.336  -6.251  0.00  0.00     0.197 C 
HETATM    7  O           1     -19.645  -4.236  -5.216  0.00  0.00    -0.646 OA
HETATM    8  O           1     -21.168  -3.445  -6.536  0.00  0.00    -0.646 OA
ENDBRANCH   5   6
BRANCH   5   9
HETATM    9  C           1     -21.471  -5.774  -7.918  0.00  0.00     0.074 C 
BRANCH   9  10
HETATM   10  C           1     -21.493  -4.928  -9.151  0.00  0.00    -0.056 A 
HETATM   11  C           1     -20.312  -4.692  -9.856  0.00  0.00     0.007 A 
HETATM   12  C           1     -20.332  -3.903 -11.007  0.00  0.00     0.001 A 
HETATM   13  C           1     -21.533  -3.349 -11.452  0.00  0.00     0.000 A 
HETATM   14  C           1     -22.714  -3.585 -10.748  0.00  0.00     0.001 A 
HETATM   15  C           1     -22.693  -4.375  -9.597  0.00  0.00     0.007 A 
ENDBRANCH   9  10
ENDBRANCH   5   9
ENDBRANCH   3   5
BRANCH   2  16
HETATM   16  C           1     -21.189  -6.954  -4.268  0.00  0.00     0.275 C 
BRANCH  16  17
HETATM   17  N           1     -22.503  -6.231  -4.259  0.00  0.00    -0.066 N 
HETATM   18  H           1     -22.600  -5.695  -3.369  0.00  0.00     0.275 HD
HETATM   19  H           1     -22.544  -5.573  -5.070  0.00  0.00     0.275 HD
HETATM   20  H           1     -23.282  -6.924  -4.334  0.00  0.00     0.275 HD
ENDBRANCH  16  17
BRANCH  16  21
HETATM   21  C           1     -21.288  -8.198  -3.395  0.00  0.00     0.053 C 
BRANCH  21  22
HETATM   22  C           1     -20.810  -7.869  -1.986  0.00  0.00     0.115 C 
BRANCH  22  23
HETATM   23  C           1     -22.002  -7.665  -1.084  0.00  0.00     0.172 C 
HETATM   24  O           1     -22.361  -8.576  -0.307  0.00  0.00    -0.648 OA
HETATM   25  O           1     -22.632  -6.585  -1.113  0.00  0.00    -0.648 OA
ENDBRANCH  22  23
ENDBRANCH  21  22
ENDBRANCH  16  21
ENDBRANCH   2  16
TORSDOF 9
ENDMDL
