MODEL 1
REMARK VINA RESULT:      -6.1      0.000      0.000
REMARK  8 active torsions:
REMARK  status: ('A' for Active; 'I' for Inactive)
REMARK    1  A    between atoms: C_1  and  C_2 
REMARK    2  A    between atoms: C_1  and  C_10 
REMARK    3  A    between atoms: C_1  and  N_16 
REMARK    4  A    between atoms: C_2  and  O_3 
REMARK    5  A    between atoms: N_7  and  C_14 
REMARK    6  A    between atoms: C_13  and  C_14 
REMARK    7  A    between atoms: C_13  and  C_19 
REMARK    8  A    between atoms: C_14  and  C_15 
REMARK       I    between atoms: C_15  and  N_16 
ROOT
HETATM    1  C           1     -21.414  -3.540 -10.630  0.00  0.00     0.280 C 
ENDROOT
BRANCH   1   2
HETATM    2  N           1     -20.323  -2.791 -11.334  0.00  0.00    -0.066 N 
HETATM    3  H           1     -19.812  -2.192 -10.646  0.00  0.00     0.275 HD
HETATM    4  H           1     -20.738  -2.186 -12.078  0.00  0.00     0.275 HD
HETATM    5  H           1     -19.658  -3.470 -11.768  0.00  0.00     0.275 HD
ENDBRANCH   1   2
BRANCH   1   6
HETATM    6  C           1     -22.202  -4.360 -11.644  0.00  0.00     0.101 C 
BRANCH   6   7
HETATM    7  C           1     -22.829  -3.444 -12.648  0.00  0.00     0.028 A 
HETATM    8  C           1     -23.917  -2.640 -12.401  0.00  0.00     0.114 A 
HETATM    9  N           1     -24.148  -1.985 -13.578  0.00  0.00    -0.360 N 
HETATM   10  H           1     -24.908  -1.284 -13.760  0.00  0.00     0.166 HD
HETATM   11  C           1     -23.209  -2.409 -14.475  0.00  0.00     0.180 A 
HETATM   12  N           1     -22.397  -3.291 -13.940  0.00  0.00    -0.355 N 
ATOM     13  HN          1     -21.612  -3.762 -14.389  1.00  0.00     0.166 HD
ENDBRANCH   6   7
ENDBRANCH   1   6
BRANCH   1  14
HETATM   14  C           1     -20.809  -4.461  -9.600  0.00  0.00     0.249 C 
HETATM   15  O           1     -19.813  -5.091  -9.863  0.00  0.00    -0.271 OA
HETATM   16  N           1     -21.389  -4.582  -8.365  0.00  0.00    -0.343 N 
HETATM   17  H           1     -22.223  -4.053  -8.144  0.00  0.00     0.163 HD
BRANCH  16  18
HETATM   18  C           1     -20.807  -5.466  -7.374  0.00  0.00     0.209 C 
BRANCH  18  19
HETATM   19  C           1     -19.642  -4.763  -6.687  0.00  0.00     0.200 C 
BRANCH  19  20
HETATM   20  O           1     -19.992  -4.466  -5.362  0.00  0.00    -0.398 OA
HETATM   21  H           1     -20.736  -3.890  -5.398  0.00  0.00     0.209 HD
ENDBRANCH  19  20
ENDBRANCH  18  19
BRANCH  18  22
HETATM   22  C           1     -21.851  -5.827  -6.348  0.00  0.00     0.198 C 
HETATM   23  O           1     -21.670  -6.805  -5.590  0.00  0.00    -0.646 OA
HETATM   24  O           1     -22.896  -5.149  -6.253  0.00  0.00    -0.646 OA
ENDBRANCH  18  22
ENDBRANCH  16  18
ENDBRANCH   1  14
TORSDOF 8
ENDMDL
MODEL 2
REMARK VINA RESULT:      -6.0      3.033      6.995
REMARK  8 active torsions:
REMARK  status: ('A' for Active; 'I' for Inactive)
REMARK    1  A    between atoms: C_1  and  C_2 
REMARK    2  A    between atoms: C_1  and  C_10 
REMARK    3  A    between atoms: C_1  and  N_16 
REMARK    4  A    between atoms: C_2  and  O_3 
REMARK    5  A    between atoms: N_7  and  C_14 
REMARK    6  A    between atoms: C_13  and  C_14 
REMARK    7  A    between atoms: C_13  and  C_19 
REMARK    8  A    between atoms: C_14  and  C_15 
REMARK       I    between atoms: C_15  and  N_16 
ROOT
HETATM    1  C           1     -21.994  -4.510  -7.146  0.00  0.00     0.280 C 
ENDROOT
BRANCH   1   2
HETATM    2  N           1     -23.444  -4.651  -6.791  0.00  0.00    -0.066 N 
HETATM    3  H           1     -23.529  -5.035  -5.823  0.00  0.00     0.275 HD
HETATM    4  H           1     -23.907  -5.302  -7.465  0.00  0.00     0.275 HD
HETATM    5  H           1     -23.906  -3.715  -6.837  0.00  0.00     0.275 HD
ENDBRANCH   1   2
BRANCH   1   6
HETATM    6  C           1     -21.307  -5.864  -7.020  0.00  0.00     0.101 C 
BRANCH   6   7
HETATM    7  C           1     -21.389  -6.336  -5.602  0.00  0.00     0.028 A 
HETATM    8  C           1     -21.651  -7.631  -5.224  0.00  0.00     0.114 A 
HETATM    9  N           1     -21.633  -7.612  -3.857  0.00  0.00    -0.360 N 
HETATM   10  H           1     -21.796  -8.432  -3.222  0.00  0.00     0.166 HD
HETATM   11  C           1     -21.365  -6.330  -3.469  0.00  0.00     0.180 A 
HETATM   12  N           1     -21.212  -5.536  -4.503  0.00  0.00    -0.355 N 
ATOM     13  HN          1     -21.005  -4.537  -4.492  1.00  0.00     0.166 HD
ENDBRANCH   6   7
ENDBRANCH   1   6
BRANCH   1  14
HETATM   14  C           1     -21.870  -4.014  -8.565  0.00  0.00     0.249 C 
HETATM   15  O           1     -20.787  -3.718  -9.010  0.00  0.00    -0.271 OA
HETATM   16  N           1     -22.986  -3.899  -9.351  0.00  0.00    -0.343 N 
HETATM   17  H           1     -23.894  -4.147  -8.979  0.00  0.00     0.163 HD
BRANCH  16  18
HETATM   18  C           1     -22.867  -3.423 -10.715  0.00  0.00     0.209 C 
BRANCH  18  19
HETATM   19  C           1     -22.170  -4.479 -11.563  0.00  0.00     0.200 C 
BRANCH  19  20
HETATM   20  O           1     -21.662  -3.884 -12.727  0.00  0.00    -0.398 OA
HETATM   21  H           1     -20.730  -4.023 -12.720  0.00  0.00     0.209 HD
ENDBRANCH  19  20
ENDBRANCH  18  19
BRANCH  18  22
HETATM   22  C           1     -24.242  -3.156 -11.276  0.00  0.00     0.198 C 
HETATM   23  O           1     -25.245  -3.240 -10.535  0.00  0.00    -0.646 OA
HETATM   24  O           1     -24.377  -2.849 -12.480  0.00  0.00    -0.646 OA
ENDBRANCH  18  22
ENDBRANCH  16  18
ENDBRANCH   1  14
TORSDOF 8
ENDMDL
MODEL 3
REMARK VINA RESULT:      -5.9      1.683      2.784
REMARK  8 active torsions:
REMARK  status: ('A' for Active; 'I' for Inactive)
REMARK    1  A    between atoms: C_1  and  C_2 
REMARK    2  A    between atoms: C_1  and  C_10 
REMARK    3  A    between atoms: C_1  and  N_16 
REMARK    4  A    between atoms: C_2  and  O_3 
REMARK    5  A    between atoms: N_7  and  C_14 
REMARK    6  A    between atoms: C_13  and  C_14 
REMARK    7  A    between atoms: C_13  and  C_19 
REMARK    8  A    between atoms: C_14  and  C_15 
REMARK       I    between atoms: C_15  and  N_16 
ROOT
HETATM    1  C           1     -23.424  -4.460  -9.611  0.00  0.00     0.280 C 
ENDROOT
BRANCH   1   2
HETATM    2  N           1     -24.912  -4.627  -9.691  0.00  0.00    -0.066 N 
HETATM    3  H           1     -25.366  -4.063  -8.937  0.00  0.00     0.275 HD
HETATM    4  H           1     -25.157  -5.635  -9.566  0.00  0.00     0.275 HD
HETATM    5  H           1     -25.250  -4.300 -10.624  0.00  0.00     0.275 HD
ENDBRANCH   1   2
BRANCH   1   6
HETATM    6  C           1     -23.045  -3.061 -10.080  0.00  0.00     0.101 C 
BRANCH   6   7
HETATM    7  C           1     -22.953  -3.042 -11.574  0.00  0.00     0.028 A 
HETATM    8  C           1     -21.901  -3.550 -12.299  0.00  0.00     0.114 A 
HETATM    9  N           1     -22.230  -3.324 -13.607  0.00  0.00    -0.360 N 
HETATM   10  H           1     -21.653  -3.583 -14.445  0.00  0.00     0.166 HD
HETATM   11  C           1     -23.445  -2.700 -13.622  0.00  0.00     0.180 A 
HETATM   12  N           1     -23.907  -2.518 -12.407  0.00  0.00    -0.355 N 
ATOM     13  HN          1     -24.788  -2.079 -12.139  1.00  0.00     0.166 HD
ENDBRANCH   6   7
ENDBRANCH   1   6
BRANCH   1  14
HETATM   14  C           1     -22.971  -4.652  -8.185  0.00  0.00     0.249 C 
HETATM   15  O           1     -23.688  -4.317  -7.273  0.00  0.00    -0.271 OA
HETATM   16  N           1     -21.747  -5.208  -7.925  0.00  0.00    -0.343 N 
HETATM   17  H           1     -21.146  -5.489  -8.689  0.00  0.00     0.163 HD
BRANCH  16  18
HETATM   18  C           1     -21.312  -5.394  -6.554  0.00  0.00     0.209 C 
BRANCH  18  19
HETATM   19  C           1     -21.175  -6.882  -6.262  0.00  0.00     0.200 C 
BRANCH  19  20
HETATM   20  O           1     -19.818  -7.236  -6.262  0.00  0.00    -0.398 OA
HETATM   21  H           1     -19.563  -7.342  -7.163  0.00  0.00     0.209 HD
ENDBRANCH  19  20
ENDBRANCH  18  19
BRANCH  18  22
HETATM   22  C           1     -19.978  -4.718  -6.354  0.00  0.00     0.198 C 
HETATM   23  O           1     -19.601  -4.409  -5.203  0.00  0.00    -0.646 OA
HETATM   24  O           1     -19.250  -4.469  -7.339  0.00  0.00    -0.646 OA
ENDBRANCH  18  22
ENDBRANCH  16  18
ENDBRANCH   1  14
TORSDOF 8
ENDMDL
MODEL 4
REMARK VINA RESULT:      -5.8      3.397      6.811
REMARK  8 active torsions:
REMARK  status: ('A' for Active; 'I' for Inactive)
REMARK    1  A    between atoms: C_1  and  C_2 
REMARK    2  A    between atoms: C_1  and  C_10 
REMARK    3  A    between atoms: C_1  and  N_16 
REMARK    4  A    between atoms: C_2  and  O_3 
REMARK    5  A    between atoms: N_7  and  C_14 
REMARK    6  A    between atoms: C_13  and  C_14 
REMARK    7  A    between atoms: C_13  and  C_19 
REMARK    8  A    between atoms: C_14  and  C_15 
REMARK       I    between atoms: C_15  and  N_16 
ROOT
HETATM    1  C           1     -23.158  -3.544  -9.175  0.00  0.00     0.280 C 
ENDROOT
BRANCH   1   2
HETATM    2  N           1     -24.087  -4.083  -8.128  0.00  0.00    -0.066 N 
HETATM    3  H           1     -24.544  -4.953  -8.484  0.00  0.00     0.275 HD
HETATM    4  H           1     -24.820  -3.370  -7.911  0.00  0.00     0.275 HD
HETATM    5  H           1     -23.547  -4.301  -7.261  0.00  0.00     0.275 HD
ENDBRANCH   1   2
BRANCH   1   6
HETATM    6  C           1     -21.995  -4.509  -9.366  0.00  0.00     0.101 C 
BRANCH   6   7
HETATM    7  C           1     -21.338  -4.767  -8.047  0.00  0.00     0.028 A 
HETATM    8  C           1     -20.904  -3.788  -7.185  0.00  0.00     0.114 A 
HETATM    9  N           1     -20.375  -4.462  -6.120  0.00  0.00    -0.360 N 
HETATM   10  H           1     -19.945  -4.032  -5.264  0.00  0.00     0.166 HD
HETATM   11  C           1     -20.507  -5.798  -6.373  0.00  0.00     0.180 A 
HETATM   12  N           1     -21.087  -6.012  -7.532  0.00  0.00    -0.355 N 
ATOM     13  HN          1     -21.304  -6.913  -7.958  1.00  0.00     0.166 HD
ENDBRANCH   6   7
ENDBRANCH   1   6
BRANCH   1  14
HETATM   14  C           1     -23.903  -3.389 -10.477  0.00  0.00     0.249 C 
HETATM   15  O           1     -25.101  -3.240 -10.475  0.00  0.00    -0.271 OA
HETATM   16  N           1     -23.219  -3.416 -11.664  0.00  0.00    -0.343 N 
HETATM   17  H           1     -22.215  -3.540 -11.666  0.00  0.00     0.163 HD
BRANCH  16  18
HETATM   18  C           1     -23.934  -3.266 -12.916  0.00  0.00     0.209 C 
BRANCH  18  19
HETATM   19  C           1     -23.098  -2.437 -13.883  0.00  0.00     0.200 C 
BRANCH  19  20
HETATM   20  O           1     -23.870  -2.108 -15.006  0.00  0.00    -0.398 OA
HETATM   21  H           1     -24.753  -1.979 -14.703  0.00  0.00     0.209 HD
ENDBRANCH  19  20
ENDBRANCH  18  19
BRANCH  18  22
HETATM   22  C           1     -24.191  -4.627 -13.514  0.00  0.00     0.198 C 
HETATM   23  O           1     -24.025  -5.654 -12.822  0.00  0.00    -0.646 OA
HETATM   24  O           1     -24.571  -4.727 -14.701  0.00  0.00    -0.646 OA
ENDBRANCH  18  22
ENDBRANCH  16  18
ENDBRANCH   1  14
TORSDOF 8
ENDMDL
MODEL 5
REMARK VINA RESULT:      -5.8      2.844      6.338
REMARK  8 active torsions:
REMARK  status: ('A' for Active; 'I' for Inactive)
REMARK    1  A    between atoms: C_1  and  C_2 
REMARK    2  A    between atoms: C_1  and  C_10 
REMARK    3  A    between atoms: C_1  and  N_16 
REMARK    4  A    between atoms: C_2  and  O_3 
REMARK    5  A    between atoms: N_7  and  C_14 
REMARK    6  A    between atoms: C_13  and  C_14 
REMARK    7  A    between atoms: C_13  and  C_19 
REMARK    8  A    between atoms: C_14  and  C_15 
REMARK       I    between atoms: C_15  and  N_16 
ROOT
HETATM    1  C           1     -20.417  -3.616  -8.101  0.00  0.00     0.280 C 
ENDROOT
BRANCH   1   2
HETATM    2  N           1     -21.488  -3.273  -7.109  0.00  0.00    -0.066 N 
HETATM    3  H           1     -21.289  -3.754  -6.202  0.00  0.00     0.275 HD
HETATM    4  H           1     -22.415  -3.588  -7.473  0.00  0.00     0.275 HD
HETATM    5  H           1     -21.505  -2.239  -6.959  0.00  0.00     0.275 HD
ENDBRANCH   1   2
BRANCH   1   6
HETATM    6  C           1     -19.522  -4.706  -7.526  0.00  0.00     0.101 C 
BRANCH   6   7
HETATM    7  C           1     -20.291  -5.504  -6.519  0.00  0.00     0.028 A 
HETATM    8  C           1     -20.421  -5.170  -5.192  0.00  0.00     0.114 A 
HETATM    9  N           1     -21.192  -6.161  -4.650  0.00  0.00    -0.360 N 
HETATM   10  H           1     -21.496  -6.233  -3.648  0.00  0.00     0.166 HD
HETATM   11  C           1     -21.493  -7.039  -5.652  0.00  0.00     0.180 A 
HETATM   12  N           1     -20.962  -6.666  -6.794  0.00  0.00    -0.355 N 
ATOM     13  HN          1     -21.034  -7.141  -7.694  1.00  0.00     0.166 HD
ENDBRANCH   6   7
ENDBRANCH   1   6
BRANCH   1  14
HETATM   14  C           1     -21.053  -4.109  -9.377  0.00  0.00     0.249 C 
HETATM   15  O           1     -20.403  -4.750 -10.168  0.00  0.00    -0.271 OA
HETATM   16  N           1     -22.368  -3.830  -9.639  0.00  0.00    -0.343 N 
HETATM   17  H           1     -22.912  -3.293  -8.977  0.00  0.00     0.163 HD
BRANCH  16  18
HETATM   18  C           1     -22.980  -4.304 -10.865  0.00  0.00     0.209 C 
BRANCH  18  19
HETATM   19  C           1     -24.076  -5.308 -10.531  0.00  0.00     0.200 C 
BRANCH  19  20
HETATM   20  O           1     -24.970  -4.737  -9.614  0.00  0.00    -0.398 OA
HETATM   21  H           1     -25.836  -4.854  -9.967  0.00  0.00     0.209 HD
ENDBRANCH  19  20
ENDBRANCH  18  19
BRANCH  18  22
HETATM   22  C           1     -23.578  -3.138 -11.612  0.00  0.00     0.198 C 
HETATM   23  O           1     -22.833  -2.258 -12.096  0.00  0.00    -0.646 OA
HETATM   24  O           1     -24.817  -3.052 -11.748  0.00  0.00    -0.646 OA
ENDBRANCH  18  22
ENDBRANCH  16  18
ENDBRANCH   1  14
TORSDOF 8
ENDMDL
MODEL 6
REMARK VINA RESULT:      -5.7      1.934      2.753
REMARK  8 active torsions:
REMARK  status: ('A' for Active; 'I' for Inactive)
REMARK    1  A    between atoms: C_1  and  C_2 
REMARK    2  A    between atoms: C_1  and  C_10 
REMARK    3  A    between atoms: C_1  and  N_16 
REMARK    4  A    between atoms: C_2  and  O_3 
REMARK    5  A    between atoms: N_7  and  C_14 
REMARK    6  A    between atoms: C_13  and  C_14 
REMARK    7  A    between atoms: C_13  and  C_19 
REMARK    8  A    between atoms: C_14  and  C_15 
REMARK       I    between atoms: C_15  and  N_16 
ROOT
HETATM    1  C           1     -22.698  -4.404  -8.702  0.00  0.00     0.280 C 
ENDROOT
BRANCH   1   2
HETATM    2  N           1     -23.992  -3.732  -8.352  0.00  0.00    -0.066 N 
HETATM    3  H           1     -23.803  -2.921  -7.719  0.00  0.00     0.275 HD
HETATM    4  H           1     -24.619  -4.412  -7.866  0.00  0.00     0.275 HD
HETATM    5  H           1     -24.455  -3.393  -9.225  0.00  0.00     0.275 HD
ENDBRANCH   1   2
BRANCH   1   6
HETATM    6  C           1     -21.935  -3.545  -9.702  0.00  0.00     0.101 C 
BRANCH   6   7
HETATM    7  C           1     -22.616  -3.604 -11.034  0.00  0.00     0.028 A 
HETATM    8  C           1     -23.235  -4.719 -11.546  0.00  0.00     0.114 A 
HETATM    9  N           1     -23.715  -4.329 -12.766  0.00  0.00    -0.360 N 
HETATM   10  H           1     -24.247  -4.928 -13.444  0.00  0.00     0.166 HD
HETATM   11  C           1     -23.374  -3.018 -12.940  0.00  0.00     0.180 A 
HETATM   12  N           1     -22.709  -2.553 -11.908  0.00  0.00    -0.355 N 
ATOM     13  HN          1     -22.341  -1.609 -11.783  1.00  0.00     0.166 HD
ENDBRANCH   6   7
ENDBRANCH   1   6
BRANCH   1  14
HETATM   14  C           1     -21.868  -4.580  -7.454  0.00  0.00     0.249 C 
HETATM   15  O           1     -21.081  -3.725  -7.126  0.00  0.00    -0.271 OA
HETATM   16  N           1     -22.010  -5.709  -6.692  0.00  0.00    -0.343 N 
HETATM   17  H           1     -22.670  -6.425  -6.966  0.00  0.00     0.163 HD
BRANCH  16  18
HETATM   18  C           1     -21.214  -5.878  -5.492  0.00  0.00     0.209 C 
BRANCH  18  19
HETATM   19  C           1     -22.106  -6.355  -4.353  0.00  0.00     0.200 C 
BRANCH  19  20
HETATM   20  O           1     -21.500  -6.050  -3.125  0.00  0.00    -0.398 OA
HETATM   21  H           1     -21.923  -5.275  -2.796  0.00  0.00     0.209 HD
ENDBRANCH  19  20
ENDBRANCH  18  19
BRANCH  18  22
HETATM   22  C           1     -20.134  -6.900  -5.745  0.00  0.00     0.198 C 
HETATM   23  O           1     -19.893  -7.779  -4.889  0.00  0.00    -0.646 OA
HETATM   24  O           1     -19.481  -6.870  -6.810  0.00  0.00    -0.646 OA
ENDBRANCH  18  22
ENDBRANCH  16  18
ENDBRANCH   1  14
TORSDOF 8
ENDMDL
MODEL 7
REMARK VINA RESULT:      -5.6      2.710      4.569
REMARK  8 active torsions:
REMARK  status: ('A' for Active; 'I' for Inactive)
REMARK    1  A    between atoms: C_1  and  C_2 
REMARK    2  A    between atoms: C_1  and  C_10 
REMARK    3  A    between atoms: C_1  and  N_16 
REMARK    4  A    between atoms: C_2  and  O_3 
REMARK    5  A    between atoms: N_7  and  C_14 
REMARK    6  A    between atoms: C_13  and  C_14 
REMARK    7  A    between atoms: C_13  and  C_19 
REMARK    8  A    between atoms: C_14  and  C_15 
REMARK       I    between atoms: C_15  and  N_16 
ROOT
HETATM    1  C           1     -22.180  -5.102  -6.804  0.00  0.00     0.280 C 
ENDROOT
BRANCH   1   2
HETATM    2  N           1     -23.619  -4.852  -6.464  0.00  0.00    -0.066 N 
HETATM    3  H           1     -23.995  -5.662  -5.921  0.00  0.00     0.275 HD
HETATM    4  H           1     -24.171  -4.739  -7.344  0.00  0.00     0.275 HD
HETATM    5  H           1     -23.696  -3.981  -5.892  0.00  0.00     0.275 HD
ENDBRANCH   1   2
BRANCH   1   6
HETATM    6  C           1     -21.576  -3.843  -7.412  0.00  0.00     0.101 C 
BRANCH   6   7
HETATM    7  C           1     -21.376  -4.044  -8.882  0.00  0.00     0.028 A 
HETATM    8  C           1     -22.372  -3.958  -9.825  0.00  0.00     0.114 A 
HETATM    9  N           1     -21.753  -4.209 -11.018  0.00  0.00    -0.360 N 
HETATM   10  H           1     -22.211  -4.227 -11.963  0.00  0.00     0.166 HD
HETATM   11  C           1     -20.432  -4.432 -10.756  0.00  0.00     0.180 A 
HETATM   12  N           1     -20.174  -4.338  -9.471  0.00  0.00    -0.355 N 
ATOM     13  HN          1     -19.272  -4.457  -9.011  1.00  0.00     0.166 HD
ENDBRANCH   6   7
ENDBRANCH   1   6
BRANCH   1  14
HETATM   14  C           1     -21.424  -5.468  -5.551  0.00  0.00     0.249 C 
HETATM   15  O           1     -20.254  -5.188  -5.447  0.00  0.00    -0.271 OA
HETATM   16  N           1     -22.065  -6.118  -4.530  0.00  0.00    -0.343 N 
HETATM   17  H           1     -23.045  -6.352  -4.616  0.00  0.00     0.163 HD
BRANCH  16  18
HETATM   18  C           1     -21.339  -6.469  -3.325  0.00  0.00     0.209 C 
BRANCH  18  19
HETATM   19  C           1     -22.190  -6.142  -2.104  0.00  0.00     0.200 C 
BRANCH  19  20
HETATM   20  O           1     -22.238  -7.256  -1.255  0.00  0.00    -0.398 OA
HETATM   21  H           1     -22.031  -8.010  -1.781  0.00  0.00     0.209 HD
ENDBRANCH  19  20
ENDBRANCH  18  19
BRANCH  18  22
HETATM   22  C           1     -21.027  -7.944  -3.338  0.00  0.00     0.198 C 
HETATM   23  O           1     -21.779  -8.736  -3.946  0.00  0.00    -0.646 OA
HETATM   24  O           1     -20.016  -8.375  -2.742  0.00  0.00    -0.646 OA
ENDBRANCH  18  22
ENDBRANCH  16  18
ENDBRANCH   1  14
TORSDOF 8
ENDMDL
MODEL 8
REMARK VINA RESULT:      -5.2      4.877      8.961
REMARK  8 active torsions:
REMARK  status: ('A' for Active; 'I' for Inactive)
REMARK    1  A    between atoms: C_1  and  C_2 
REMARK    2  A    between atoms: C_1  and  C_10 
REMARK    3  A    between atoms: C_1  and  N_16 
REMARK    4  A    between atoms: C_2  and  O_3 
REMARK    5  A    between atoms: N_7  and  C_14 
REMARK    6  A    between atoms: C_13  and  C_14 
REMARK    7  A    between atoms: C_13  and  C_19 
REMARK    8  A    between atoms: C_14  and  C_15 
REMARK       I    between atoms: C_15  and  N_16 
ROOT
HETATM    1  C           1     -21.844  -8.023  -3.905  0.00  0.00     0.280 C 
ENDROOT
BRANCH   1   2
HETATM    2  N           1     -21.756  -9.519  -3.968  0.00  0.00    -0.066 N 
HETATM    3  H           1     -20.950  -9.845  -3.388  0.00  0.00     0.275 HD
HETATM    4  H           1     -21.615  -9.819  -4.959  0.00  0.00     0.275 HD
HETATM    5  H           1     -22.641  -9.935  -3.601  0.00  0.00     0.275 HD
ENDBRANCH   1   2
BRANCH   1   6
HETATM    6  C           1     -20.842  -7.499  -2.884  0.00  0.00     0.101 C 
BRANCH   6   7
HETATM    7  C           1     -21.360  -7.748  -1.502  0.00  0.00     0.028 A 
HETATM    8  C           1     -22.377  -7.038  -0.909  0.00  0.00     0.114 A 
HETATM    9  N           1     -22.520  -7.593   0.332  0.00  0.00    -0.360 N 
HETATM   10  H           1     -23.210  -7.299   1.068  0.00  0.00     0.166 HD
HETATM   11  C           1     -21.601  -8.597   0.441  0.00  0.00     0.180 A 
HETATM   12  N           1     -20.886  -8.714  -0.654  0.00  0.00    -0.355 N 
ATOM     13  HN          1     -20.137  -9.383  -0.836  1.00  0.00     0.166 HD
ENDBRANCH   6   7
ENDBRANCH   1   6
BRANCH   1  14
HETATM   14  C           1     -21.529  -7.443  -5.261  0.00  0.00     0.249 C 
HETATM   15  O           1     -21.084  -8.150  -6.133  0.00  0.00    -0.271 OA
HETATM   16  N           1     -21.751  -6.113  -5.505  0.00  0.00    -0.343 N 
HETATM   17  H           1     -22.124  -5.521  -4.775  0.00  0.00     0.163 HD
BRANCH  16  18
HETATM   18  C           1     -21.450  -5.555  -6.809  0.00  0.00     0.209 C 
BRANCH  18  19
HETATM   19  C           1     -22.511  -4.527  -7.179  0.00  0.00     0.200 C 
BRANCH  19  20
HETATM   20  O           1     -21.912  -3.267  -7.319  0.00  0.00    -0.398 OA
HETATM   21  H           1     -22.533  -2.632  -7.003  0.00  0.00     0.209 HD
ENDBRANCH  19  20
ENDBRANCH  18  19
BRANCH  18  22
HETATM   22  C           1     -20.097  -4.889  -6.771  0.00  0.00     0.198 C 
HETATM   23  O           1     -19.443  -4.743  -7.826  0.00  0.00    -0.646 OA
HETATM   24  O           1     -19.631  -4.483  -5.685  0.00  0.00    -0.646 OA
ENDBRANCH  18  22
ENDBRANCH  16  18
ENDBRANCH   1  14
TORSDOF 8
ENDMDL
MODEL 9
REMARK VINA RESULT:      -5.2      4.575      8.525
REMARK  8 active torsions:
REMARK  status: ('A' for Active; 'I' for Inactive)
REMARK    1  A    between atoms: C_1  and  C_2 
REMARK    2  A    between atoms: C_1  and  C_10 
REMARK    3  A    between atoms: C_1  and  N_16 
REMARK    4  A    between atoms: C_2  and  O_3 
REMARK    5  A    between atoms: N_7  and  C_14 
REMARK    6  A    between atoms: C_13  and  C_14 
REMARK    7  A    between atoms: C_13  and  C_19 
REMARK    8  A    between atoms: C_14  and  C_15 
REMARK       I    between atoms: C_15  and  N_16 
ROOT
HETATM    1  C           1     -21.446  -8.006  -4.530  0.00  0.00     0.280 C 
ENDROOT
BRANCH   1   2
HETATM    2  N           1     -21.053  -8.987  -5.594  0.00  0.00    -0.066 N 
HETATM    3  H           1     -21.902  -9.497  -5.928  0.00  0.00     0.275 HD
HETATM    4  H           1     -20.368  -9.672  -5.202  0.00  0.00     0.275 HD
HETATM    5  H           1     -20.616  -8.476  -6.394  0.00  0.00     0.275 HD
ENDBRANCH   1   2
BRANCH   1   6
HETATM    6  C           1     -20.584  -8.227  -3.293  0.00  0.00     0.101 C 
BRANCH   6   7
HETATM    7  C           1     -21.443  -8.167  -2.069  0.00  0.00     0.028 A 
HETATM    8  C           1     -21.917  -9.266  -1.392  0.00  0.00     0.114 A 
HETATM    9  N           1     -22.645  -8.756  -0.354  0.00  0.00    -0.360 N 
HETATM   10  H           1     -23.157  -9.310   0.377  0.00  0.00     0.166 HD
HETATM   11  C           1     -22.585  -7.394  -0.440  0.00  0.00     0.180 A 
HETATM   12  N           1     -21.864  -7.010  -1.468  0.00  0.00    -0.355 N 
ATOM     13  HN          1     -21.660  -6.053  -1.757  1.00  0.00     0.166 HD
ENDBRANCH   6   7
ENDBRANCH   1   6
BRANCH   1  14
HETATM   14  C           1     -21.242  -6.601  -5.041  0.00  0.00     0.249 C 
HETATM   15  O           1     -21.039  -5.699  -4.264  0.00  0.00    -0.271 OA
HETATM   16  N           1     -21.285  -6.349  -6.386  0.00  0.00    -0.343 N 
HETATM   17  H           1     -21.454  -7.105  -7.037  0.00  0.00     0.163 HD
BRANCH  16  18
HETATM   18  C           1     -21.088  -4.999  -6.878  0.00  0.00     0.209 C 
BRANCH  18  19
HETATM   19  C           1     -20.092  -5.018  -8.030  0.00  0.00     0.200 C 
BRANCH  19  20
HETATM   20  O           1     -19.584  -3.727  -8.231  0.00  0.00    -0.398 OA
HETATM   21  H           1     -19.091  -3.504  -7.459  0.00  0.00     0.209 HD
ENDBRANCH  19  20
ENDBRANCH  18  19
BRANCH  18  22
HETATM   22  C           1     -22.404  -4.443  -7.361  0.00  0.00     0.198 C 
HETATM   23  O           1     -22.455  -3.801  -8.432  0.00  0.00    -0.646 OA
HETATM   24  O           1     -23.443  -4.624  -6.690  0.00  0.00    -0.646 OA
ENDBRANCH  18  22
ENDBRANCH  16  18
ENDBRANCH   1  14
TORSDOF 8
ENDMDL
