MODEL 1
REMARK VINA RESULT:      -6.3      0.000      0.000
REMARK  8 active torsions:
REMARK  status: ('A' for Active; 'I' for Inactive)
REMARK    1  A    between atoms: C_2  and  C_3 
REMARK    2  A    between atoms: C_2  and  C_15 
REMARK    3  A    between atoms: C_6  and  C_7 
REMARK    4  A    between atoms: C_6  and  C_14 
REMARK    5  A    between atoms: C_7  and  C_8 
REMARK    6  A    between atoms: C_7  and  N_11 
REMARK       I    between atoms: C_8  and  N_20 
REMARK    7  A    between atoms: C_15  and  C_16 
REMARK    8  A    between atoms: C_15  and  N_20 
ROOT
HETATM    1  O           1     -33.592  -1.784 -10.626  0.00  0.00    -0.271 OA
HETATM    2  C           1     -34.170  -2.404 -11.488  0.00  0.00     0.249 C 
HETATM    3  N           1     -35.123  -1.785 -12.251  0.00  0.00    -0.344 N 
HETATM    4  H           1     -35.608  -2.304 -12.973  0.00  0.00     0.163 HD
ENDROOT
BRANCH   2   5
HETATM    5  C           1     -33.842  -3.857 -11.721  0.00  0.00     0.275 C 
BRANCH   5   6
HETATM    6  C           1     -34.235  -4.670 -10.495  0.00  0.00     0.046 C 
BRANCH   6   7
HETATM    7  C           1     -34.264  -6.150 -10.854  0.00  0.00    -0.020 C 
HETATM    8  C           1     -35.132  -6.356 -12.088  0.00  0.00     0.009 C 
HETATM    9  C           1     -34.843  -6.944  -9.689  0.00  0.00     0.009 C 
ENDBRANCH   6   7
ENDBRANCH   5   6
BRANCH   5  10
HETATM   10  N           1     -32.370  -4.003 -11.967  0.00  0.00    -0.066 N 
HETATM   11  H           1     -32.064  -4.964 -11.689  0.00  0.00     0.275 HD
HETATM   12  H           1     -32.169  -3.856 -12.982  0.00  0.00     0.275 HD
HETATM   13  H           1     -31.851  -3.296 -11.401  0.00  0.00     0.275 HD
ENDBRANCH   5  10
ENDBRANCH   2   5
BRANCH   3  14
HETATM   14  C           1     -35.438  -0.388 -12.028  0.00  0.00     0.189 C 
BRANCH  14  15
HETATM   15  C           1     -35.761   0.279 -13.358  0.00  0.00     0.014 C 
HETATM   16  C           1     -34.604   1.181 -13.766  0.00  0.00     0.012 C 
BRANCH  15  17
HETATM   17  C           1     -35.972  -0.790 -14.422  0.00  0.00     0.002 C 
HETATM   18  C           1     -35.669  -0.207 -15.796  0.00  0.00     0.005 C 
ENDBRANCH  15  17
ENDBRANCH  14  15
BRANCH  14  19
HETATM   19  C           1     -36.632  -0.284 -11.110  0.00  0.00     0.197 C 
HETATM   20  O           1     -36.631   0.545 -10.174  0.00  0.00    -0.646 OA
HETATM   21  O           1     -37.623  -1.024 -11.287  0.00  0.00    -0.646 OA
ENDBRANCH  14  19
ENDBRANCH   3  14
TORSDOF 8
ENDMDL
MODEL 2
REMARK VINA RESULT:      -6.2      2.447      3.309
REMARK  8 active torsions:
REMARK  status: ('A' for Active; 'I' for Inactive)
REMARK    1  A    between atoms: C_2  and  C_3 
REMARK    2  A    between atoms: C_2  and  C_15 
REMARK    3  A    between atoms: C_6  and  C_7 
REMARK    4  A    between atoms: C_6  and  C_14 
REMARK    5  A    between atoms: C_7  and  C_8 
REMARK    6  A    between atoms: C_7  and  N_11 
REMARK       I    between atoms: C_8  and  N_20 
REMARK    7  A    between atoms: C_15  and  C_16 
REMARK    8  A    between atoms: C_15  and  N_20 
ROOT
HETATM    1  O           1     -36.461  -1.518 -12.293  0.00  0.00    -0.271 OA
HETATM    2  C           1     -35.331  -1.659 -12.699  0.00  0.00     0.249 C 
HETATM    3  N           1     -34.990  -1.200 -13.943  0.00  0.00    -0.344 N 
HETATM    4  H           1     -34.043  -1.317 -14.283  0.00  0.00     0.163 HD
ENDROOT
BRANCH   2   5
HETATM    5  C           1     -34.298  -2.340 -11.836  0.00  0.00     0.275 C 
BRANCH   5   6
HETATM    6  C           1     -34.817  -3.706 -11.405  0.00  0.00     0.046 C 
BRANCH   6   7
HETATM    7  C           1     -33.652  -4.566 -10.933  0.00  0.00    -0.020 C 
HETATM    8  C           1     -32.539  -4.528 -11.971  0.00  0.00     0.009 C 
HETATM    9  C           1     -34.123  -6.002 -10.747  0.00  0.00     0.009 C 
ENDBRANCH   6   7
ENDBRANCH   5   6
BRANCH   5  10
HETATM   10  N           1     -34.031  -1.501 -10.621  0.00  0.00    -0.066 N 
HETATM   11  H           1     -33.849  -2.124  -9.802  0.00  0.00     0.275 HD
HETATM   12  H           1     -33.195  -0.898 -10.792  0.00  0.00     0.275 HD
HETATM   13  H           1     -34.862  -0.900 -10.424  0.00  0.00     0.275 HD
ENDBRANCH   5  10
ENDBRANCH   2   5
BRANCH   3  14
HETATM   14  C           1     -35.982  -0.544 -14.772  0.00  0.00     0.189 C 
BRANCH  14  15
HETATM   15  C           1     -35.786   0.964 -14.703  0.00  0.00     0.014 C 
HETATM   16  C           1     -34.574   1.279 -13.837  0.00  0.00     0.012 C 
BRANCH  15  17
HETATM   17  C           1     -35.562   1.510 -16.108  0.00  0.00     0.002 C 
HETATM   18  C           1     -36.384   2.777 -16.298  0.00  0.00     0.005 C 
ENDBRANCH  15  17
ENDBRANCH  14  15
BRANCH  14  19
HETATM   19  C           1     -35.827  -1.007 -16.200  0.00  0.00     0.197 C 
HETATM   20  O           1     -34.758  -1.539 -16.573  0.00  0.00    -0.646 OA
HETATM   21  O           1     -36.767  -0.860 -17.010  0.00  0.00    -0.646 OA
ENDBRANCH  14  19
ENDBRANCH   3  14
TORSDOF 8
ENDMDL
MODEL 3
REMARK VINA RESULT:      -6.1      4.108      5.594
REMARK  8 active torsions:
REMARK  status: ('A' for Active; 'I' for Inactive)
REMARK    1  A    between atoms: C_2  and  C_3 
REMARK    2  A    between atoms: C_2  and  C_15 
REMARK    3  A    between atoms: C_6  and  C_7 
REMARK    4  A    between atoms: C_6  and  C_14 
REMARK    5  A    between atoms: C_7  and  C_8 
REMARK    6  A    between atoms: C_7  and  N_11 
REMARK       I    between atoms: C_8  and  N_20 
REMARK    7  A    between atoms: C_15  and  C_16 
REMARK    8  A    between atoms: C_15  and  N_20 
ROOT
HETATM    1  O           1     -35.034  -5.036 -15.404  0.00  0.00    -0.271 OA
HETATM    2  C           1     -33.943  -4.517 -15.375  0.00  0.00     0.249 C 
HETATM    3  N           1     -33.486  -3.950 -14.216  0.00  0.00    -0.344 N 
HETATM    4  H           1     -32.572  -3.516 -14.190  0.00  0.00     0.163 HD
ENDROOT
BRANCH   2   5
HETATM    5  C           1     -33.086  -4.492 -16.616  0.00  0.00     0.275 C 
BRANCH   5   6
HETATM    6  C           1     -31.627  -4.696 -16.229  0.00  0.00     0.046 C 
BRANCH   6   7
HETATM    7  C           1     -30.980  -5.686 -17.189  0.00  0.00    -0.020 C 
HETATM    8  C           1     -31.985  -6.770 -17.554  0.00  0.00     0.009 C 
HETATM    9  C           1     -29.767  -6.322 -16.522  0.00  0.00     0.009 C 
ENDBRANCH   6   7
ENDBRANCH   5   6
BRANCH   5  10
HETATM   10  N           1     -33.240  -3.168 -17.303  0.00  0.00    -0.066 N 
HETATM   11  H           1     -32.790  -3.210 -18.246  0.00  0.00     0.275 HD
HETATM   12  H           1     -34.256  -2.948 -17.412  0.00  0.00     0.275 HD
HETATM   13  H           1     -32.781  -2.424 -16.731  0.00  0.00     0.275 HD
ENDBRANCH   5  10
ENDBRANCH   2   5
BRANCH   3  14
HETATM   14  C           1     -34.310  -3.974 -13.023  0.00  0.00     0.189 C 
BRANCH  14  15
HETATM   15  C           1     -33.434  -4.239 -11.806  0.00  0.00     0.014 C 
HETATM   16  C           1     -32.913  -2.918 -11.258  0.00  0.00     0.012 C 
BRANCH  15  17
HETATM   17  C           1     -34.256  -4.944 -10.734  0.00  0.00     0.002 C 
HETATM   18  C           1     -34.033  -6.447 -10.828  0.00  0.00     0.005 C 
ENDBRANCH  15  17
ENDBRANCH  14  15
BRANCH  14  19
HETATM   19  C           1     -35.002  -2.642 -12.864  0.00  0.00     0.197 C 
HETATM   20  O           1     -34.761  -1.713 -13.665  0.00  0.00    -0.646 OA
HETATM   21  O           1     -35.817  -2.468 -11.932  0.00  0.00    -0.646 OA
ENDBRANCH  14  19
ENDBRANCH   3  14
TORSDOF 8
ENDMDL
MODEL 4
REMARK VINA RESULT:      -5.9     14.071     16.650
REMARK  8 active torsions:
REMARK  status: ('A' for Active; 'I' for Inactive)
REMARK    1  A    between atoms: C_2  and  C_3 
REMARK    2  A    between atoms: C_2  and  C_15 
REMARK    3  A    between atoms: C_6  and  C_7 
REMARK    4  A    between atoms: C_6  and  C_14 
REMARK    5  A    between atoms: C_7  and  C_8 
REMARK    6  A    between atoms: C_7  and  N_11 
REMARK       I    between atoms: C_8  and  N_20 
REMARK    7  A    between atoms: C_15  and  C_16 
REMARK    8  A    between atoms: C_15  and  N_20 
ROOT
HETATM    1  O           1     -19.820  -5.263  -6.375  0.00  0.00    -0.271 OA
HETATM    2  C           1     -21.013  -5.460  -6.350  0.00  0.00     0.249 C 
HETATM    3  N           1     -21.530  -6.417  -5.520  0.00  0.00    -0.344 N 
HETATM    4  H           1     -22.528  -6.583  -5.498  0.00  0.00     0.163 HD
ENDROOT
BRANCH   2   5
HETATM    5  C           1     -21.930  -4.652  -7.234  0.00  0.00     0.275 C 
BRANCH   5   6
HETATM    6  C           1     -21.735  -5.070  -8.686  0.00  0.00     0.046 C 
BRANCH   6   7
HETATM    7  C           1     -21.988  -3.876  -9.596  0.00  0.00    -0.020 C 
HETATM    8  C           1     -23.381  -3.986 -10.203  0.00  0.00     0.009 C 
HETATM    9  C           1     -20.950  -3.858 -10.711  0.00  0.00     0.009 C 
ENDBRANCH   6   7
ENDBRANCH   5   6
BRANCH   5  10
HETATM   10  N           1     -21.610  -3.194  -7.086  0.00  0.00    -0.066 N 
HETATM   11  H           1     -22.211  -2.780  -6.338  0.00  0.00     0.275 HD
HETATM   12  H           1     -20.604  -3.084  -6.824  0.00  0.00     0.275 HD
HETATM   13  H           1     -21.792  -2.705  -7.990  0.00  0.00     0.275 HD
ENDBRANCH   5  10
ENDBRANCH   2   5
BRANCH   3  14
HETATM   14  C           1     -20.648  -7.194  -4.670  0.00  0.00     0.189 C 
BRANCH  14  15
HETATM   15  C           1     -21.365  -7.532  -3.370  0.00  0.00     0.014 C 
HETATM   16  C           1     -20.401  -8.243  -2.429  0.00  0.00     0.012 C 
BRANCH  15  17
HETATM   17  C           1     -21.859  -6.248  -2.715  0.00  0.00     0.002 C 
HETATM   18  C           1     -22.286  -6.539  -1.282  0.00  0.00     0.005 C 
ENDBRANCH  15  17
ENDBRANCH  14  15
BRANCH  14  19
HETATM   19  C           1     -20.263  -8.469  -5.378  0.00  0.00     0.197 C 
HETATM   20  O           1     -21.141  -9.307  -5.680  0.00  0.00    -0.646 OA
HETATM   21  O           1     -19.066  -8.688  -5.665  0.00  0.00    -0.646 OA
ENDBRANCH  14  19
ENDBRANCH   3  14
TORSDOF 8
ENDMDL
MODEL 5
REMARK VINA RESULT:      -5.6     14.403     16.951
REMARK  8 active torsions:
REMARK  status: ('A' for Active; 'I' for Inactive)
REMARK    1  A    between atoms: C_2  and  C_3 
REMARK    2  A    between atoms: C_2  and  C_15 
REMARK    3  A    between atoms: C_6  and  C_7 
REMARK    4  A    between atoms: C_6  and  C_14 
REMARK    5  A    between atoms: C_7  and  C_8 
REMARK    6  A    between atoms: C_7  and  N_11 
REMARK       I    between atoms: C_8  and  N_20 
REMARK    7  A    between atoms: C_15  and  C_16 
REMARK    8  A    between atoms: C_15  and  N_20 
ROOT
HETATM    1  O           1     -22.917  -5.916  -5.459  0.00  0.00    -0.271 OA
HETATM    2  C           1     -21.712  -5.814  -5.485  0.00  0.00     0.249 C 
HETATM    3  N           1     -20.944  -6.580  -4.650  0.00  0.00    -0.344 N 
HETATM    4  H           1     -19.936  -6.496  -4.670  0.00  0.00     0.163 HD
ENDROOT
BRANCH   2   5
HETATM    5  C           1     -21.056  -4.843  -6.434  0.00  0.00     0.275 C 
BRANCH   5   6
HETATM    6  C           1     -21.233  -5.335  -7.865  0.00  0.00     0.046 C 
BRANCH   6   7
HETATM    7  C           1     -21.397  -4.140  -8.796  0.00  0.00    -0.020 C 
HETATM    8  C           1     -22.851  -4.039  -9.240  0.00  0.00     0.009 C 
HETATM    9  C           1     -20.506  -4.322 -10.018  0.00  0.00     0.009 C 
ENDBRANCH   6   7
ENDBRANCH   5   6
BRANCH   5  10
HETATM   10  N           1     -19.593  -4.746  -6.117  0.00  0.00    -0.066 N 
HETATM   11  H           1     -19.312  -3.740  -6.077  0.00  0.00     0.275 HD
HETATM   12  H           1     -19.407  -5.195  -5.191  0.00  0.00     0.275 HD
HETATM   13  H           1     -19.043  -5.233  -6.859  0.00  0.00     0.275 HD
ENDBRANCH   5  10
ENDBRANCH   2   5
BRANCH   3  14
HETATM   14  C           1     -21.575  -7.514  -3.737  0.00  0.00     0.189 C 
BRANCH  14  15
HETATM   15  C           1     -20.781  -8.813  -3.711  0.00  0.00     0.014 C 
HETATM   16  C           1     -21.631  -9.938  -4.288  0.00  0.00     0.012 C 
BRANCH  15  17
HETATM   17  C           1     -19.518  -8.652  -4.548  0.00  0.00     0.002 C 
HETATM   18  C           1     -18.350  -9.325  -3.840  0.00  0.00     0.005 C 
ENDBRANCH  15  17
ENDBRANCH  14  15
BRANCH  14  19
HETATM   19  C           1     -21.607  -6.917  -2.351  0.00  0.00     0.197 C 
HETATM   20  O           1     -22.283  -5.889  -2.128  0.00  0.00    -0.646 OA
HETATM   21  O           1     -20.958  -7.451  -1.425  0.00  0.00    -0.646 OA
ENDBRANCH  14  19
ENDBRANCH   3  14
TORSDOF 8
ENDMDL
MODEL 6
REMARK VINA RESULT:      -5.4     15.438     17.668
REMARK  8 active torsions:
REMARK  status: ('A' for Active; 'I' for Inactive)
REMARK    1  A    between atoms: C_2  and  C_3 
REMARK    2  A    between atoms: C_2  and  C_15 
REMARK    3  A    between atoms: C_6  and  C_7 
REMARK    4  A    between atoms: C_6  and  C_14 
REMARK    5  A    between atoms: C_7  and  C_8 
REMARK    6  A    between atoms: C_7  and  N_11 
REMARK       I    between atoms: C_8  and  N_20 
REMARK    7  A    between atoms: C_15  and  C_16 
REMARK    8  A    between atoms: C_15  and  N_20 
ROOT
HETATM    1  O           1     -19.969  -8.123  -5.523  0.00  0.00    -0.271 OA
HETATM    2  C           1     -20.979  -7.591  -5.124  0.00  0.00     0.249 C 
HETATM    3  N           1     -21.658  -8.125  -4.062  0.00  0.00    -0.344 N 
HETATM    4  H           1     -22.503  -7.680  -3.727  0.00  0.00     0.163 HD
ENDROOT
BRANCH   2   5
HETATM    5  C           1     -21.491  -6.341  -5.796  0.00  0.00     0.275 C 
BRANCH   5   6
HETATM    6  C           1     -20.542  -5.185  -5.508  0.00  0.00     0.046 C 
BRANCH   6   7
HETATM    7  C           1     -20.199  -4.474  -6.810  0.00  0.00    -0.020 C 
HETATM    8  C           1     -21.326  -3.519  -7.179  0.00  0.00     0.009 C 
HETATM    9  C           1     -20.023  -5.503  -7.920  0.00  0.00     0.009 C 
ENDBRANCH   6   7
ENDBRANCH   5   6
BRANCH   5  10
HETATM   10  N           1     -22.854  -6.013  -5.265  0.00  0.00    -0.066 N 
HETATM   11  H           1     -23.380  -6.898  -5.083  0.00  0.00     0.275 HD
HETATM   12  H           1     -22.761  -5.476  -4.373  0.00  0.00     0.275 HD
HETATM   13  H           1     -23.372  -5.438  -5.966  0.00  0.00     0.275 HD
ENDBRANCH   5  10
ENDBRANCH   2   5
BRANCH   3  14
HETATM   14  C           1     -21.166  -9.326  -3.416  0.00  0.00     0.189 C 
BRANCH  14  15
HETATM   15  C           1     -21.413  -9.233  -1.916  0.00  0.00     0.014 C 
HETATM   16  C           1     -20.383 -10.079  -1.179  0.00  0.00     0.012 C 
BRANCH  15  17
HETATM   17  C           1     -21.288  -7.781  -1.471  0.00  0.00     0.002 C 
HETATM   18  C           1     -22.339  -7.482  -0.410  0.00  0.00     0.005 C 
ENDBRANCH  15  17
ENDBRANCH  14  15
BRANCH  14  19
HETATM   19  C           1     -21.891 -10.528  -3.971  0.00  0.00     0.197 C 
HETATM   20  O           1     -21.439 -11.123  -4.973  0.00  0.00    -0.646 OA
HETATM   21  O           1     -22.944 -10.928  -3.429  0.00  0.00    -0.646 OA
ENDBRANCH  14  19
ENDBRANCH   3  14
TORSDOF 8
ENDMDL
MODEL 7
REMARK VINA RESULT:      -5.3     17.412     19.150
REMARK  8 active torsions:
REMARK  status: ('A' for Active; 'I' for Inactive)
REMARK    1  A    between atoms: C_2  and  C_3 
REMARK    2  A    between atoms: C_2  and  C_15 
REMARK    3  A    between atoms: C_6  and  C_7 
REMARK    4  A    between atoms: C_6  and  C_14 
REMARK    5  A    between atoms: C_7  and  C_8 
REMARK    6  A    between atoms: C_7  and  N_11 
REMARK       I    between atoms: C_8  and  N_20 
REMARK    7  A    between atoms: C_15  and  C_16 
REMARK    8  A    between atoms: C_15  and  N_20 
ROOT
HETATM    1  O           1     -21.371 -11.513  -2.839  0.00  0.00    -0.271 OA
HETATM    2  C           1     -20.890 -10.893  -1.920  0.00  0.00     0.249 C 
HETATM    3  N           1     -20.173  -9.752  -2.166  0.00  0.00    -0.344 N 
HETATM    4  H           1     -19.770  -9.232  -1.397  0.00  0.00     0.163 HD
ENDROOT
BRANCH   2   5
HETATM    5  C           1     -21.077 -11.375  -0.503  0.00  0.00     0.275 C 
BRANCH   5   6
HETATM    6  C           1     -21.597 -10.231   0.358  0.00  0.00     0.046 C 
BRANCH   6   7
HETATM    7  C           1     -22.902  -9.708  -0.226  0.00  0.00    -0.020 C 
HETATM    8  C           1     -23.263  -8.387   0.440  0.00  0.00     0.009 C 
HETATM    9  C           1     -24.012 -10.721   0.025  0.00  0.00     0.009 C 
ENDBRANCH   6   7
ENDBRANCH   5   6
BRANCH   5  10
HETATM   10  N           1     -19.763 -11.852   0.039  0.00  0.00    -0.066 N 
HETATM   11  H           1     -18.998 -11.600  -0.628  0.00  0.00     0.275 HD
HETATM   12  H           1     -19.581 -11.397   0.963  0.00  0.00     0.275 HD
HETATM   13  H           1     -19.792 -12.889   0.160  0.00  0.00     0.275 HD
ENDBRANCH   5  10
ENDBRANCH   2   5
BRANCH   3  14
HETATM   14  C           1     -19.993  -9.288  -3.528  0.00  0.00     0.189 C 
BRANCH  14  15
HETATM   15  C           1     -20.515  -7.863  -3.651  0.00  0.00     0.014 C 
HETATM   16  C           1     -21.743  -7.848  -4.551  0.00  0.00     0.012 C 
BRANCH  15  17
HETATM   17  C           1     -20.891  -7.340  -2.271  0.00  0.00     0.002 C 
HETATM   18  C           1     -21.948  -6.252  -2.409  0.00  0.00     0.005 C 
ENDBRANCH  15  17
ENDBRANCH  14  15
BRANCH  14  19
HETATM   19  C           1     -18.526  -9.319  -3.878  0.00  0.00     0.197 C 
HETATM   20  O           1     -18.170  -9.420  -5.072  0.00  0.00    -0.646 OA
HETATM   21  O           1     -17.665  -9.241  -2.975  0.00  0.00    -0.646 OA
ENDBRANCH  14  19
ENDBRANCH   3  14
TORSDOF 8
ENDMDL
MODEL 8
REMARK VINA RESULT:      -5.3     17.293     19.275
REMARK  8 active torsions:
REMARK  status: ('A' for Active; 'I' for Inactive)
REMARK    1  A    between atoms: C_2  and  C_3 
REMARK    2  A    between atoms: C_2  and  C_15 
REMARK    3  A    between atoms: C_6  and  C_7 
REMARK    4  A    between atoms: C_6  and  C_14 
REMARK    5  A    between atoms: C_7  and  C_8 
REMARK    6  A    between atoms: C_7  and  N_11 
REMARK       I    between atoms: C_8  and  N_20 
REMARK    7  A    between atoms: C_15  and  C_16 
REMARK    8  A    between atoms: C_15  and  N_20 
ROOT
HETATM    1  O           1     -18.706  -9.112  -2.473  0.00  0.00    -0.271 OA
HETATM    2  C           1     -19.856  -9.041  -2.837  0.00  0.00     0.249 C 
HETATM    3  N           1     -20.847  -9.623  -2.092  0.00  0.00    -0.344 N 
HETATM    4  H           1     -21.810  -9.563  -2.396  0.00  0.00     0.163 HD
ENDROOT
BRANCH   2   5
HETATM    5  C           1     -20.201  -8.313  -4.112  0.00  0.00     0.275 C 
BRANCH   5   6
HETATM    6  C           1     -21.700  -8.045  -4.155  0.00  0.00     0.046 C 
BRANCH   6   7
HETATM    7  C           1     -21.955  -6.553  -3.989  0.00  0.00    -0.020 C 
HETATM    8  C           1     -20.911  -5.769  -4.773  0.00  0.00     0.009 C 
HETATM    9  C           1     -21.863  -6.184  -2.514  0.00  0.00     0.009 C 
ENDBRANCH   6   7
ENDBRANCH   5   6
BRANCH   5  10
HETATM   10  N           1     -19.810  -9.156  -5.290  0.00  0.00    -0.066 N 
HETATM   11  H           1     -19.254  -9.978  -4.960  0.00  0.00     0.275 HD
HETATM   12  H           1     -20.671  -9.492  -5.778  0.00  0.00     0.275 HD
HETATM   13  H           1     -19.233  -8.587  -5.949  0.00  0.00     0.275 HD
ENDBRANCH   5  10
ENDBRANCH   2   5
BRANCH   3  14
HETATM   14  C           1     -20.516 -10.322  -0.866  0.00  0.00     0.189 C 
BRANCH  14  15
HETATM   15  C           1     -21.531  -9.966   0.212  0.00  0.00     0.014 C 
HETATM   16  C           1     -20.882  -9.044   1.235  0.00  0.00     0.012 C 
BRANCH  15  17
HETATM   17  C           1     -22.720  -9.260  -0.427  0.00  0.00     0.002 C 
HETATM   18  C           1     -23.154  -8.096   0.455  0.00  0.00     0.005 C 
ENDBRANCH  15  17
ENDBRANCH  14  15
BRANCH  14  19
HETATM   19  C           1     -20.547 -11.811  -1.113  0.00  0.00     0.197 C 
HETATM   20  O           1     -19.891 -12.301  -2.058  0.00  0.00    -0.646 OA
HETATM   21  O           1     -21.227 -12.554  -0.373  0.00  0.00    -0.646 OA
ENDBRANCH  14  19
ENDBRANCH   3  14
TORSDOF 8
ENDMDL
MODEL 9
REMARK VINA RESULT:      -5.2     17.599     19.883
REMARK  8 active torsions:
REMARK  status: ('A' for Active; 'I' for Inactive)
REMARK    1  A    between atoms: C_2  and  C_3 
REMARK    2  A    between atoms: C_2  and  C_15 
REMARK    3  A    between atoms: C_6  and  C_7 
REMARK    4  A    between atoms: C_6  and  C_14 
REMARK    5  A    between atoms: C_7  and  C_8 
REMARK    6  A    between atoms: C_7  and  N_11 
REMARK       I    between atoms: C_8  and  N_20 
REMARK    7  A    between atoms: C_15  and  C_16 
REMARK    8  A    between atoms: C_15  and  N_20 
ROOT
HETATM    1  O           1     -19.481 -11.231  -0.455  0.00  0.00    -0.271 OA
HETATM    2  C           1     -19.662 -10.681  -1.516  0.00  0.00     0.249 C 
HETATM    3  N           1     -20.800  -9.949  -1.721  0.00  0.00    -0.344 N 
HETATM    4  H           1     -20.952  -9.488  -2.610  0.00  0.00     0.163 HD
ENDROOT
BRANCH   2   5
HETATM    5  C           1     -18.635 -10.802  -2.614  0.00  0.00     0.275 C 
BRANCH   5   6
HETATM    6  C           1     -17.984  -9.446  -2.852  0.00  0.00     0.046 C 
BRANCH   6   7
HETATM    7  C           1     -16.469  -9.605  -2.869  0.00  0.00    -0.020 C 
HETATM    8  C           1     -15.996  -9.817  -4.301  0.00  0.00     0.009 C 
HETATM    9  C           1     -16.076 -10.809  -2.022  0.00  0.00     0.009 C 
ENDBRANCH   6   7
ENDBRANCH   5   6
BRANCH   5  10
HETATM   10  N           1     -19.304 -11.264  -3.875  0.00  0.00    -0.066 N 
HETATM   11  H           1     -18.577 -11.497  -4.589  0.00  0.00     0.275 HD
HETATM   12  H           1     -19.878 -12.113  -3.674  0.00  0.00     0.275 HD
HETATM   13  H           1     -19.920 -10.503  -4.240  0.00  0.00     0.275 HD
ENDBRANCH   5  10
ENDBRANCH   2   5
BRANCH   3  14
HETATM   14  C           1     -21.788  -9.832  -0.666  0.00  0.00     0.189 C 
BRANCH  14  15
HETATM   15  C           1     -22.309  -8.402  -0.615  0.00  0.00     0.014 C 
HETATM   16  C           1     -22.287  -7.905   0.824  0.00  0.00     0.012 C 
BRANCH  15  17
HETATM   17  C           1     -21.423  -7.509  -1.475  0.00  0.00     0.002 C 
HETATM   18  C           1     -22.187  -6.247  -1.852  0.00  0.00     0.005 C 
ENDBRANCH  15  17
ENDBRANCH  14  15
BRANCH  14  19
HETATM   19  C           1     -22.932 -10.775  -0.943  0.00  0.00     0.197 C 
HETATM   20  O           1     -23.539 -11.319   0.005  0.00  0.00    -0.646 OA
HETATM   21  O           1     -23.275 -11.013  -2.122  0.00  0.00    -0.646 OA
ENDBRANCH  14  19
ENDBRANCH   3  14
TORSDOF 8
ENDMDL
