MODEL 1
REMARK VINA RESULT:      -7.3      0.000      0.000
REMARK  9 active torsions:
REMARK  status: ('A' for Active; 'I' for Inactive)
REMARK    1  A    between atoms: N_3  and  C_11 
REMARK       I    between atoms: N_3  and  C_23 
REMARK    2  A    between atoms: C_6  and  C_18 
REMARK    3  A    between atoms: C_6  and  C_26 
REMARK    4  A    between atoms: C_11  and  C_12 
REMARK    5  A    between atoms: C_11  and  C_15 
REMARK    6  A    between atoms: C_12  and  C_13 
REMARK    7  A    between atoms: C_13  and  C_22 
REMARK       I    between atoms: N_17  and  C_22 
REMARK    8  A    between atoms: C_18  and  C_23 
REMARK    9  A    between atoms: C_18  and  N_19 
ROOT
HETATM    1  N           1     -34.935  -1.650 -13.086  0.00  0.00    -0.345 N 
HETATM    2  H           1     -35.277  -1.998 -13.973  0.00  0.00     0.163 HD
HETATM    3  C           1     -34.316  -2.501 -12.212  0.00  0.00     0.249 C 
HETATM    4  O           1     -33.908  -2.088 -11.153  0.00  0.00    -0.271 OA
ENDROOT
BRANCH   3   5
HETATM    5  C           1     -34.142  -3.958 -12.569  0.00  0.00     0.280 C 
BRANCH   5   6
HETATM    6  C           1     -33.102  -4.587 -11.651  0.00  0.00     0.101 C 
BRANCH   6   7
HETATM    7  C           1     -33.708  -5.753 -10.935  0.00  0.00     0.028 A 
HETATM    8  N           1     -33.186  -7.022 -10.932  0.00  0.00    -0.355 N 
HETATM    9  C           1     -34.011  -7.733 -10.197  0.00  0.00     0.180 A 
ATOM     10  HN          1     -32.339  -7.344 -11.401  1.00  0.00     0.166 HD
HETATM   11  N           1     -35.044  -6.973  -9.726  0.00  0.00    -0.360 N 
HETATM   12  H           1     -35.832  -7.306  -9.118  0.00  0.00     0.166 HD
HETATM   13  C           1     -34.863  -5.700 -10.192  0.00  0.00     0.114 A 
ENDBRANCH   6   7
ENDBRANCH   5   6
BRANCH   5  14
HETATM   14  N           1     -33.686  -4.071 -13.993  0.00  0.00    -0.066 N 
HETATM   15  H           1     -32.760  -4.556 -14.024  0.00  0.00     0.275 HD
HETATM   16  H           1     -33.592  -3.115 -14.406  0.00  0.00     0.275 HD
HETATM   17  H           1     -34.385  -4.619 -14.542  0.00  0.00     0.275 HD
ENDBRANCH   5  14
ENDBRANCH   3   5
BRANCH   1  18
HETATM   18  C           1     -35.102  -0.252 -12.742  0.00  0.00     0.186 C 
BRANCH  18  19
HETATM   19  C           1     -35.272   0.567 -14.014  0.00  0.00     0.045 C 
BRANCH  19  20
HETATM   20  C           1     -35.437  -0.370 -15.204  0.00  0.00     0.105 C 
BRANCH  20  21
HETATM   21  C           1     -36.792  -0.153 -15.832  0.00  0.00     0.215 C 
HETATM   22  O           1     -37.057  -0.670 -16.892  0.00  0.00    -0.274 OA
HETATM   23  N           1     -37.721   0.629 -15.201  0.00  0.00    -0.370 N 
HETATM   24  H           1     -37.500   1.062 -14.313  0.00  0.00     0.159 HD
HETATM   25  H           1     -38.631   0.775 -15.622  0.00  0.00     0.159 HD
ENDBRANCH  20  21
ENDBRANCH  19  20
ENDBRANCH  18  19
BRANCH  18  26
HETATM   26  C           1     -36.325  -0.090 -11.873  0.00  0.00     0.196 C 
HETATM   27  O           1     -36.214   0.378 -10.719  0.00  0.00    -0.646 OA
HETATM   28  O           1     -37.448  -0.424 -12.308  0.00  0.00    -0.646 OA
ENDBRANCH  18  26
ENDBRANCH   1  18
TORSDOF 9
ENDMDL
MODEL 2
REMARK VINA RESULT:      -6.7      2.253      6.858
REMARK  9 active torsions:
REMARK  status: ('A' for Active; 'I' for Inactive)
REMARK    1  A    between atoms: N_3  and  C_11 
REMARK       I    between atoms: N_3  and  C_23 
REMARK    2  A    between atoms: C_6  and  C_18 
REMARK    3  A    between atoms: C_6  and  C_26 
REMARK    4  A    between atoms: C_11  and  C_12 
REMARK    5  A    between atoms: C_11  and  C_15 
REMARK    6  A    between atoms: C_12  and  C_13 
REMARK    7  A    between atoms: C_13  and  C_22 
REMARK       I    between atoms: N_17  and  C_22 
REMARK    8  A    between atoms: C_18  and  C_23 
REMARK    9  A    between atoms: C_18  and  N_19 
ROOT
HETATM    1  N           1     -35.417  -2.531 -12.187  0.00  0.00    -0.345 N 
HETATM    2  H           1     -36.334  -2.686 -12.587  0.00  0.00     0.163 HD
HETATM    3  C           1     -35.008  -1.260 -11.887  0.00  0.00     0.249 C 
HETATM    4  O           1     -33.914  -1.075 -11.409  0.00  0.00    -0.271 OA
ENDROOT
BRANCH   3   5
HETATM    5  C           1     -35.922  -0.089 -12.153  0.00  0.00     0.280 C 
BRANCH   5   6
HETATM    6  C           1     -35.368   0.739 -13.304  0.00  0.00     0.101 C 
BRANCH   6   7
HETATM    7  C           1     -35.808   0.144 -14.606  0.00  0.00     0.028 A 
HETATM    8  N           1     -35.009  -0.605 -15.430  0.00  0.00    -0.355 N 
HETATM    9  C           1     -35.771  -0.927 -16.451  0.00  0.00     0.180 A 
ATOM     10  HN          1     -34.032  -0.858 -15.283  1.00  0.00     0.166 HD
HETATM   11  N           1     -37.030  -0.415 -16.317  0.00  0.00    -0.360 N 
HETATM   12  H           1     -37.823  -0.530 -16.995  0.00  0.00     0.166 HD
HETATM   13  C           1     -37.069   0.275 -15.137  0.00  0.00     0.114 A 
ENDBRANCH   6   7
ENDBRANCH   5   6
BRANCH   5  14
HETATM   14  N           1     -36.012   0.763 -10.922  0.00  0.00    -0.066 N 
HETATM   15  H           1     -36.552   1.631 -11.139  0.00  0.00     0.275 HD
HETATM   16  H           1     -35.050   1.022 -10.607  0.00  0.00     0.275 HD
HETATM   17  H           1     -36.495   0.232 -10.164  0.00  0.00     0.275 HD
ENDBRANCH   5  14
ENDBRANCH   3   5
BRANCH   1  18
HETATM   18  C           1     -34.538  -3.656 -11.931  0.00  0.00     0.186 C 
BRANCH  18  19
HETATM   19  C           1     -35.164  -4.561 -10.879  0.00  0.00     0.045 C 
BRANCH  19  20
HETATM   20  C           1     -34.099  -5.489 -10.309  0.00  0.00     0.105 C 
BRANCH  20  21
HETATM   21  C           1     -34.646  -6.893 -10.229  0.00  0.00     0.215 C 
HETATM   22  O           1     -34.744  -7.444  -9.157  0.00  0.00    -0.274 OA
HETATM   23  N           1     -35.031  -7.544 -11.370  0.00  0.00    -0.370 N 
HETATM   24  H           1     -34.949  -7.083 -12.268  0.00  0.00     0.159 HD
HETATM   25  H           1     -35.398  -8.486 -11.317  0.00  0.00     0.159 HD
ENDBRANCH  20  21
ENDBRANCH  19  20
ENDBRANCH  18  19
BRANCH  18  26
HETATM   26  C           1     -34.335  -4.435 -13.208  0.00  0.00     0.196 C 
HETATM   27  O           1     -35.096  -5.387 -13.487  0.00  0.00    -0.646 OA
HETATM   28  O           1     -33.406  -4.127 -13.985  0.00  0.00    -0.646 OA
ENDBRANCH  18  26
ENDBRANCH   1  18
TORSDOF 9
ENDMDL
MODEL 3
REMARK VINA RESULT:      -6.4      9.063     11.425
REMARK  9 active torsions:
REMARK  status: ('A' for Active; 'I' for Inactive)
REMARK    1  A    between atoms: N_3  and  C_11 
REMARK       I    between atoms: N_3  and  C_23 
REMARK    2  A    between atoms: C_6  and  C_18 
REMARK    3  A    between atoms: C_6  and  C_26 
REMARK    4  A    between atoms: C_11  and  C_12 
REMARK    5  A    between atoms: C_11  and  C_15 
REMARK    6  A    between atoms: C_12  and  C_13 
REMARK    7  A    between atoms: C_13  and  C_22 
REMARK       I    between atoms: N_17  and  C_22 
REMARK    8  A    between atoms: C_18  and  C_23 
REMARK    9  A    between atoms: C_18  and  N_19 
ROOT
HETATM    1  N           1     -27.824  -7.161 -19.094  0.00  0.00    -0.345 N 
HETATM    2  H           1     -27.942  -8.135 -18.842  0.00  0.00     0.163 HD
HETATM    3  C           1     -28.792  -6.250 -18.770  0.00  0.00     0.249 C 
HETATM    4  O           1     -28.653  -5.088 -19.069  0.00  0.00    -0.271 OA
ENDROOT
BRANCH   3   5
HETATM    5  C           1     -30.035  -6.696 -18.038  0.00  0.00     0.280 C 
BRANCH   5   6
HETATM    6  C           1     -30.214  -5.857 -16.780  0.00  0.00     0.101 C 
BRANCH   6   7
HETATM    7  C           1     -31.385  -4.940 -16.952  0.00  0.00     0.028 A 
HETATM    8  N           1     -32.671  -5.244 -16.587  0.00  0.00    -0.355 N 
HETATM    9  C           1     -33.380  -4.185 -16.905  0.00  0.00     0.180 A 
ATOM     10  HN          1     -33.006  -6.107 -16.159  1.00  0.00     0.166 HD
HETATM   11  N           1     -32.601  -3.210 -17.462  0.00  0.00    -0.360 N 
HETATM   12  H           1     -32.928  -2.271 -17.799  0.00  0.00     0.166 HD
HETATM   13  C           1     -31.318  -3.681 -17.498  0.00  0.00     0.114 A 
ENDBRANCH   6   7
ENDBRANCH   5   6
BRANCH   5  14
HETATM   14  N           1     -29.900  -8.141 -17.659  0.00  0.00    -0.066 N 
HETATM   15  H           1     -30.749  -8.442 -17.129  0.00  0.00     0.275 HD
HETATM   16  H           1     -29.052  -8.266 -17.061  0.00  0.00     0.275 HD
HETATM   17  H           1     -29.804  -8.721 -18.523  0.00  0.00     0.275 HD
ENDBRANCH   5  14
ENDBRANCH   3   5
BRANCH   1  18
HETATM   18  C           1     -26.630  -6.732 -19.796  0.00  0.00     0.186 C 
BRANCH  18  19
HETATM   19  C           1     -25.466  -6.656 -18.819  0.00  0.00     0.045 C 
BRANCH  19  20
HETATM   20  C           1     -25.998  -6.426 -17.410  0.00  0.00     0.105 C 
BRANCH  20  21
HETATM   21  C           1     -25.139  -7.171 -16.419  0.00  0.00     0.215 C 
HETATM   22  O           1     -25.425  -7.162 -15.244  0.00  0.00    -0.274 OA
HETATM   23  N           1     -24.036  -7.857 -16.849  0.00  0.00    -0.370 N 
HETATM   24  H           1     -23.796  -7.866 -17.832  0.00  0.00     0.159 HD
HETATM   25  H           1     -23.460  -8.358 -16.183  0.00  0.00     0.159 HD
ENDBRANCH  20  21
ENDBRANCH  19  20
ENDBRANCH  18  19
BRANCH  18  26
HETATM   26  C           1     -26.307  -7.723 -20.888  0.00  0.00     0.196 C 
HETATM   27  O           1     -25.134  -7.833 -21.305  0.00  0.00    -0.646 OA
HETATM   28  O           1     -27.213  -8.434 -21.373  0.00  0.00    -0.646 OA
ENDBRANCH  18  26
ENDBRANCH   1  18
TORSDOF 9
ENDMDL
MODEL 4
REMARK VINA RESULT:      -6.3     13.445     16.503
REMARK  9 active torsions:
REMARK  status: ('A' for Active; 'I' for Inactive)
REMARK    1  A    between atoms: N_3  and  C_11 
REMARK       I    between atoms: N_3  and  C_23 
REMARK    2  A    between atoms: C_6  and  C_18 
REMARK    3  A    between atoms: C_6  and  C_26 
REMARK    4  A    between atoms: C_11  and  C_12 
REMARK    5  A    between atoms: C_11  and  C_15 
REMARK    6  A    between atoms: C_12  and  C_13 
REMARK    7  A    between atoms: C_13  and  C_22 
REMARK       I    between atoms: N_17  and  C_22 
REMARK    8  A    between atoms: C_18  and  C_23 
REMARK    9  A    between atoms: C_18  and  N_19 
ROOT
HETATM    1  N           1     -21.912  -5.992  -6.283  0.00  0.00    -0.345 N 
HETATM    2  H           1     -22.600  -6.660  -6.604  0.00  0.00     0.163 HD
HETATM    3  C           1     -21.682  -4.850  -7.001  0.00  0.00     0.249 C 
HETATM    4  O           1     -20.861  -4.051  -6.620  0.00  0.00    -0.271 OA
ENDROOT
BRANCH   3   5
HETATM    5  C           1     -22.456  -4.587  -8.271  0.00  0.00     0.280 C 
BRANCH   5   6
HETATM    6  C           1     -21.661  -3.645  -9.166  0.00  0.00     0.101 C 
BRANCH   6   7
HETATM    7  C           1     -22.190  -3.718 -10.564  0.00  0.00     0.028 A 
HETATM    8  N           1     -21.994  -2.757 -11.522  0.00  0.00    -0.355 N 
HETATM    9  C           1     -22.615  -3.202 -12.590  0.00  0.00     0.180 A 
ATOM     10  HN          1     -21.477  -1.883 -11.426  1.00  0.00     0.166 HD
HETATM   11  N           1     -23.205  -4.412 -12.359  0.00  0.00    -0.360 N 
HETATM   12  H           1     -23.759  -4.976 -13.050  0.00  0.00     0.166 HD
HETATM   13  C           1     -22.940  -4.756 -11.062  0.00  0.00     0.114 A 
ENDBRANCH   6   7
ENDBRANCH   5   6
BRANCH   5  14
HETATM   14  N           1     -23.774  -3.958  -7.931  0.00  0.00    -0.066 N 
HETATM   15  H           1     -23.702  -3.477  -7.006  0.00  0.00     0.275 HD
HETATM   16  H           1     -24.511  -4.698  -7.882  0.00  0.00     0.275 HD
HETATM   17  H           1     -24.030  -3.262  -8.667  0.00  0.00     0.275 HD
ENDBRANCH   5  14
ENDBRANCH   3   5
BRANCH   1  18
HETATM   18  C           1     -21.169  -6.243  -5.064  0.00  0.00     0.186 C 
BRANCH  18  19
HETATM   19  C           1     -22.128  -6.679  -3.965  0.00  0.00     0.045 C 
BRANCH  19  20
HETATM   20  C           1     -21.715  -6.038  -2.646  0.00  0.00     0.105 C 
BRANCH  20  21
HETATM   21  C           1     -21.855  -7.044  -1.531  0.00  0.00     0.215 C 
HETATM   22  O           1     -22.726  -6.913  -0.703  0.00  0.00    -0.274 OA
HETATM   23  N           1     -20.996  -8.107  -1.457  0.00  0.00    -0.370 N 
HETATM   24  H           1     -20.267  -8.219  -2.150  0.00  0.00     0.159 HD
HETATM   25  H           1     -21.090  -8.783  -0.709  0.00  0.00     0.159 HD
ENDBRANCH  20  21
ENDBRANCH  19  20
ENDBRANCH  18  19
BRANCH  18  26
HETATM   26  C           1     -20.156  -7.336  -5.309  0.00  0.00     0.196 C 
HETATM   27  O           1     -19.529  -7.375  -6.390  0.00  0.00    -0.646 OA
HETATM   28  O           1     -19.946  -8.199  -4.431  0.00  0.00    -0.646 OA
ENDBRANCH  18  26
ENDBRANCH   1  18
TORSDOF 9
ENDMDL
MODEL 5
REMARK VINA RESULT:      -6.3      3.991      6.370
REMARK  9 active torsions:
REMARK  status: ('A' for Active; 'I' for Inactive)
REMARK    1  A    between atoms: N_3  and  C_11 
REMARK       I    between atoms: N_3  and  C_23 
REMARK    2  A    between atoms: C_6  and  C_18 
REMARK    3  A    between atoms: C_6  and  C_26 
REMARK    4  A    between atoms: C_11  and  C_12 
REMARK    5  A    between atoms: C_11  and  C_15 
REMARK    6  A    between atoms: C_12  and  C_13 
REMARK    7  A    between atoms: C_13  and  C_22 
REMARK       I    between atoms: N_17  and  C_22 
REMARK    8  A    between atoms: C_18  and  C_23 
REMARK    9  A    between atoms: C_18  and  N_19 
ROOT
HETATM    1  N           1     -33.295  -4.066 -14.227  0.00  0.00    -0.345 N 
HETATM    2  H           1     -32.315  -3.830 -14.133  0.00  0.00     0.163 HD
HETATM    3  C           1     -33.787  -4.474 -15.437  0.00  0.00     0.249 C 
HETATM    4  O           1     -34.956  -4.756 -15.550  0.00  0.00    -0.271 OA
ENDROOT
BRANCH   3   5
HETATM    5  C           1     -32.868  -4.573 -16.631  0.00  0.00     0.280 C 
BRANCH   5   6
HETATM    6  C           1     -31.428  -4.713 -16.155  0.00  0.00     0.101 C 
BRANCH   6   7
HETATM    7  C           1     -30.813  -5.930 -16.772  0.00  0.00     0.028 A 
HETATM    8  N           1     -29.529  -6.355 -16.543  0.00  0.00    -0.355 N 
HETATM    9  C           1     -29.392  -7.443 -17.267  0.00  0.00     0.180 A 
ATOM     10  HN          1     -28.831  -5.920 -15.940  1.00  0.00     0.166 HD
HETATM   11  N           1     -30.536  -7.736 -17.953  0.00  0.00    -0.360 N 
HETATM   12  H           1     -30.682  -8.551 -18.598  0.00  0.00     0.166 HD
HETATM   13  C           1     -31.457  -6.773 -17.645  0.00  0.00     0.114 A 
ENDBRANCH   6   7
ENDBRANCH   5   6
BRANCH   5  14
HETATM   14  N           1     -33.000  -3.335 -17.467  0.00  0.00    -0.066 N 
HETATM   15  H           1     -33.824  -3.431 -18.103  0.00  0.00     0.275 HD
HETATM   16  H           1     -32.133  -3.206 -18.036  0.00  0.00     0.275 HD
HETATM   17  H           1     -33.134  -2.507 -16.845  0.00  0.00     0.275 HD
ENDBRANCH   5  14
ENDBRANCH   3   5
BRANCH   1  18
HETATM   18  C           1     -34.177  -3.971 -13.080  0.00  0.00     0.186 C 
BRANCH  18  19
HETATM   19  C           1     -33.475  -4.531 -11.851  0.00  0.00     0.045 C 
BRANCH  19  20
HETATM   20  C           1     -34.514  -5.019 -10.850  0.00  0.00     0.105 C 
BRANCH  20  21
HETATM   21  C           1     -34.236  -6.460 -10.497  0.00  0.00     0.215 C 
HETATM   22  O           1     -35.029  -7.082  -9.829  0.00  0.00    -0.274 OA
HETATM   23  N           1     -33.087  -7.062 -10.933  0.00  0.00    -0.370 N 
HETATM   24  H           1     -32.424  -6.541 -11.492  0.00  0.00     0.159 HD
HETATM   25  H           1     -32.900  -8.028 -10.696  0.00  0.00     0.159 HD
ENDBRANCH  20  21
ENDBRANCH  19  20
ENDBRANCH  18  19
BRANCH  18  26
HETATM   26  C           1     -34.535  -2.524 -12.839  0.00  0.00     0.196 C 
HETATM   27  O           1     -34.219  -1.974 -11.763  0.00  0.00    -0.646 OA
HETATM   28  O           1     -35.145  -1.878 -13.718  0.00  0.00    -0.646 OA
ENDBRANCH  18  26
ENDBRANCH   1  18
TORSDOF 9
ENDMDL
MODEL 6
REMARK VINA RESULT:      -6.1     14.450     17.305
REMARK  9 active torsions:
REMARK  status: ('A' for Active; 'I' for Inactive)
REMARK    1  A    between atoms: N_3  and  C_11 
REMARK       I    between atoms: N_3  and  C_23 
REMARK    2  A    between atoms: C_6  and  C_18 
REMARK    3  A    between atoms: C_6  and  C_26 
REMARK    4  A    between atoms: C_11  and  C_12 
REMARK    5  A    between atoms: C_11  and  C_15 
REMARK    6  A    between atoms: C_12  and  C_13 
REMARK    7  A    between atoms: C_13  and  C_22 
REMARK       I    between atoms: N_17  and  C_22 
REMARK    8  A    between atoms: C_18  and  C_23 
REMARK    9  A    between atoms: C_18  and  N_19 
ROOT
HETATM    1  N           1     -21.204  -7.248  -5.490  0.00  0.00    -0.345 N 
HETATM    2  H           1     -21.665  -7.860  -6.152  0.00  0.00     0.163 HD
HETATM    3  C           1     -21.295  -5.890  -5.638  0.00  0.00     0.249 C 
HETATM    4  O           1     -20.745  -5.159  -4.849  0.00  0.00    -0.271 OA
ENDROOT
BRANCH   3   5
HETATM    5  C           1     -22.082  -5.306  -6.786  0.00  0.00     0.280 C 
BRANCH   5   6
HETATM    6  C           1     -21.387  -4.048  -7.291  0.00  0.00     0.101 C 
BRANCH   6   7
HETATM    7  C           1     -21.272  -4.105  -8.782  0.00  0.00     0.028 A 
HETATM    8  N           1     -20.136  -4.463  -9.463  0.00  0.00    -0.355 N 
HETATM    9  C           1     -20.456  -4.382 -10.734  0.00  0.00     0.180 A 
ATOM     10  HN          1     -19.236  -4.733  -9.066  1.00  0.00     0.166 HD
HETATM   11  N           1     -21.752  -3.986 -10.901  0.00  0.00    -0.360 N 
HETATM   12  H           1     -22.247  -3.847 -11.816  0.00  0.00     0.166 HD
HETATM   13  C           1     -22.289  -3.804  -9.656  0.00  0.00     0.114 A 
ENDBRANCH   6   7
ENDBRANCH   5   6
BRANCH   5  14
HETATM   14  N           1     -23.464  -4.960  -6.319  0.00  0.00    -0.066 N 
HETATM   15  H           1     -23.586  -3.922  -6.334  0.00  0.00     0.275 HD
HETATM   16  H           1     -23.600  -5.312  -5.344  0.00  0.00     0.275 HD
HETATM   17  H           1     -24.168  -5.403  -6.951  0.00  0.00     0.275 HD
ENDBRANCH   5  14
ENDBRANCH   3   5
BRANCH   1  18
HETATM   18  C           1     -20.449  -7.809  -4.387  0.00  0.00     0.186 C 
BRANCH  18  19
HETATM   19  C           1     -21.408  -8.355  -3.340  0.00  0.00     0.045 C 
BRANCH  19  20
HETATM   20  C           1     -21.039  -7.798  -1.971  0.00  0.00     0.105 C 
BRANCH  20  21
HETATM   21  C           1     -22.106  -6.833  -1.515  0.00  0.00     0.215 C 
HETATM   22  O           1     -22.787  -7.097  -0.552  0.00  0.00    -0.274 OA
HETATM   23  N           1     -22.303  -5.660  -2.192  0.00  0.00    -0.370 N 
HETATM   24  H           1     -21.733  -5.438  -2.998  0.00  0.00     0.159 HD
HETATM   25  H           1     -23.019  -5.013  -1.885  0.00  0.00     0.159 HD
ENDBRANCH  20  21
ENDBRANCH  19  20
ENDBRANCH  18  19
BRANCH  18  26
HETATM   26  C           1     -19.571  -8.926  -4.897  0.00  0.00     0.196 C 
HETATM   27  O           1     -19.491  -9.998  -4.259  0.00  0.00    -0.646 OA
HETATM   28  O           1     -18.925  -8.778  -5.956  0.00  0.00    -0.646 OA
ENDBRANCH  18  26
ENDBRANCH   1  18
TORSDOF 9
ENDMDL
MODEL 7
REMARK VINA RESULT:      -6.0      1.849      3.281
REMARK  9 active torsions:
REMARK  status: ('A' for Active; 'I' for Inactive)
REMARK    1  A    between atoms: N_3  and  C_11 
REMARK       I    between atoms: N_3  and  C_23 
REMARK    2  A    between atoms: C_6  and  C_18 
REMARK    3  A    between atoms: C_6  and  C_26 
REMARK    4  A    between atoms: C_11  and  C_12 
REMARK    5  A    between atoms: C_11  and  C_15 
REMARK    6  A    between atoms: C_12  and  C_13 
REMARK    7  A    between atoms: C_13  and  C_22 
REMARK       I    between atoms: N_17  and  C_22 
REMARK    8  A    between atoms: C_18  and  C_23 
REMARK    9  A    between atoms: C_18  and  N_19 
ROOT
HETATM    1  N           1     -34.896  -2.215 -13.109  0.00  0.00    -0.345 N 
HETATM    2  H           1     -34.112  -2.198 -13.749  0.00  0.00     0.163 HD
HETATM    3  C           1     -35.078  -3.287 -12.278  0.00  0.00     0.249 C 
HETATM    4  O           1     -36.013  -3.308 -11.515  0.00  0.00    -0.271 OA
ENDROOT
BRANCH   3   5
HETATM    5  C           1     -34.108  -4.444 -12.315  0.00  0.00     0.280 C 
BRANCH   5   6
HETATM    6  C           1     -33.598  -4.725 -10.907  0.00  0.00     0.101 C 
BRANCH   6   7
HETATM    7  C           1     -34.035  -6.092 -10.481  0.00  0.00     0.028 A 
HETATM    8  N           1     -33.373  -7.253 -10.790  0.00  0.00    -0.355 N 
HETATM    9  C           1     -34.077  -8.211 -10.233  0.00  0.00     0.180 A 
ATOM     10  HN          1     -32.516  -7.350 -11.335  1.00  0.00     0.166 HD
HETATM   11  N           1     -35.168  -7.715  -9.578  0.00  0.00    -0.360 N 
HETATM   12  H           1     -35.886  -8.274  -9.055  0.00  0.00     0.166 HD
HETATM   13  C           1     -35.155  -6.356  -9.729  0.00  0.00     0.114 A 
ENDBRANCH   6   7
ENDBRANCH   5   6
BRANCH   5  14
HETATM   14  N           1     -32.952  -4.098 -13.205  0.00  0.00    -0.066 N 
HETATM   15  H           1     -32.445  -4.972 -13.472  0.00  0.00     0.275 HD
HETATM   16  H           1     -32.301  -3.458 -12.697  0.00  0.00     0.275 HD
HETATM   17  H           1     -33.305  -3.623 -14.067  0.00  0.00     0.275 HD
ENDBRANCH   5  14
ENDBRANCH   3   5
BRANCH   1  18
HETATM   18  C           1     -35.827  -1.103 -13.073  0.00  0.00     0.186 C 
BRANCH  18  19
HETATM   19  C           1     -35.476  -0.184 -11.912  0.00  0.00     0.045 C 
BRANCH  19  20
HETATM   20  C           1     -36.745   0.185 -11.154  0.00  0.00     0.105 C 
BRANCH  20  21
HETATM   21  C           1     -36.439   0.292  -9.681  0.00  0.00     0.215 C 
HETATM   22  O           1     -35.990  -0.660  -9.086  0.00  0.00    -0.274 OA
HETATM   23  N           1     -36.669   1.467  -9.017  0.00  0.00    -0.370 N 
HETATM   24  H           1     -37.045   2.264  -9.515  0.00  0.00     0.159 HD
HETATM   25  H           1     -36.464   1.539  -8.028  0.00  0.00     0.159 HD
ENDBRANCH  20  21
ENDBRANCH  19  20
ENDBRANCH  18  19
BRANCH  18  26
HETATM   26  C           1     -35.740  -0.333 -14.368  0.00  0.00     0.196 C 
HETATM   27  O           1     -36.712   0.351 -14.755  0.00  0.00    -0.646 OA
HETATM   28  O           1     -34.695  -0.380 -15.053  0.00  0.00    -0.646 OA
ENDBRANCH  18  26
ENDBRANCH   1  18
TORSDOF 9
ENDMDL
MODEL 8
REMARK VINA RESULT:      -5.9      3.297      6.801
REMARK  9 active torsions:
REMARK  status: ('A' for Active; 'I' for Inactive)
REMARK    1  A    between atoms: N_3  and  C_11 
REMARK       I    between atoms: N_3  and  C_23 
REMARK    2  A    between atoms: C_6  and  C_18 
REMARK    3  A    between atoms: C_6  and  C_26 
REMARK    4  A    between atoms: C_11  and  C_12 
REMARK    5  A    between atoms: C_11  and  C_15 
REMARK    6  A    between atoms: C_12  and  C_13 
REMARK    7  A    between atoms: C_13  and  C_22 
REMARK       I    between atoms: N_17  and  C_22 
REMARK    8  A    between atoms: C_18  and  C_23 
REMARK    9  A    between atoms: C_18  and  N_19 
ROOT
HETATM    1  N           1     -35.351  -2.739 -11.988  0.00  0.00    -0.345 N 
HETATM    2  H           1     -36.302  -2.885 -12.303  0.00  0.00     0.163 HD
HETATM    3  C           1     -35.031  -1.609 -11.286  0.00  0.00     0.249 C 
HETATM    4  O           1     -33.896  -1.432 -10.910  0.00  0.00    -0.271 OA
ENDROOT
BRANCH   3   5
HETATM    5  C           1     -36.094  -0.582 -10.981  0.00  0.00     0.280 C 
BRANCH   5   6
HETATM    6  C           1     -36.941  -1.060  -9.808  0.00  0.00     0.101 C 
BRANCH   6   7
HETATM    7  C           1     -37.104   0.054  -8.822  0.00  0.00     0.028 A 
HETATM    8  N           1     -37.150  -0.110  -7.461  0.00  0.00    -0.355 N 
HETATM    9  C           1     -37.300   1.100  -6.972  0.00  0.00     0.180 A 
ATOM     10  HN          1     -37.081  -0.984  -6.941  1.00  0.00     0.166 HD
HETATM   11  N           1     -37.354   2.038  -7.963  0.00  0.00    -0.360 N 
HETATM   12  H           1     -37.470   3.073  -7.834  0.00  0.00     0.166 HD
HETATM   13  C           1     -37.230   1.382  -9.157  0.00  0.00     0.114 A 
ENDBRANCH   6   7
ENDBRANCH   5   6
BRANCH   5  14
HETATM   14  N           1     -36.968  -0.395 -12.184  0.00  0.00    -0.066 N 
HETATM   15  H           1     -36.402   0.005 -12.967  0.00  0.00     0.275 HD
HETATM   16  H           1     -37.749   0.259 -11.950  0.00  0.00     0.275 HD
HETATM   17  H           1     -37.364  -1.317 -12.476  0.00  0.00     0.275 HD
ENDBRANCH   5  14
ENDBRANCH   3   5
BRANCH   1  18
HETATM   18  C           1     -34.330  -3.725 -12.281  0.00  0.00     0.186 C 
BRANCH  18  19
HETATM   19  C           1     -34.844  -5.112 -11.920  0.00  0.00     0.045 C 
BRANCH  19  20
HETATM   20  C           1     -34.615  -5.369 -10.436  0.00  0.00     0.105 C 
BRANCH  20  21
HETATM   21  C           1     -34.700  -6.850 -10.162  0.00  0.00     0.215 C 
HETATM   22  O           1     -34.555  -7.266  -9.037  0.00  0.00    -0.274 OA
HETATM   23  N           1     -34.942  -7.723 -11.188  0.00  0.00    -0.370 N 
HETATM   24  H           1     -35.064  -7.375 -12.131  0.00  0.00     0.159 HD
HETATM   25  H           1     -34.999  -8.717 -11.004  0.00  0.00     0.159 HD
ENDBRANCH  20  21
ENDBRANCH  19  20
ENDBRANCH  18  19
BRANCH  18  26
HETATM   26  C           1     -33.995  -3.680 -13.752  0.00  0.00     0.196 C 
HETATM   27  O           1     -34.689  -2.989 -14.530  0.00  0.00    -0.646 OA
HETATM   28  O           1     -33.024  -4.333 -14.191  0.00  0.00    -0.646 OA
ENDBRANCH  18  26
ENDBRANCH   1  18
TORSDOF 9
ENDMDL
MODEL 9
REMARK VINA RESULT:      -5.9     13.749     17.035
REMARK  9 active torsions:
REMARK  status: ('A' for Active; 'I' for Inactive)
REMARK    1  A    between atoms: N_3  and  C_11 
REMARK       I    between atoms: N_3  and  C_23 
REMARK    2  A    between atoms: C_6  and  C_18 
REMARK    3  A    between atoms: C_6  and  C_26 
REMARK    4  A    between atoms: C_11  and  C_12 
REMARK    5  A    between atoms: C_11  and  C_15 
REMARK    6  A    between atoms: C_12  and  C_13 
REMARK    7  A    between atoms: C_13  and  C_22 
REMARK       I    between atoms: N_17  and  C_22 
REMARK    8  A    between atoms: C_18  and  C_23 
REMARK    9  A    between atoms: C_18  and  N_19 
ROOT
HETATM    1  N           1     -20.736  -6.347  -6.015  0.00  0.00    -0.345 N 
HETATM    2  H           1     -21.093  -6.884  -6.795  0.00  0.00     0.163 HD
HETATM    3  C           1     -20.534  -5.000  -6.148  0.00  0.00     0.249 C 
HETATM    4  O           1     -20.108  -4.358  -5.217  0.00  0.00    -0.271 OA
ENDROOT
BRANCH   3   5
HETATM    5  C           1     -20.842  -4.315  -7.458  0.00  0.00     0.280 C 
BRANCH   5   6
HETATM    6  C           1     -21.703  -5.230  -8.319  0.00  0.00     0.101 C 
BRANCH   6   7
HETATM    7  C           1     -22.738  -4.416  -9.033  0.00  0.00     0.028 A 
HETATM    8  N           1     -23.896  -3.955  -8.462  0.00  0.00    -0.355 N 
HETATM    9  C           1     -24.513  -3.296  -9.416  0.00  0.00     0.180 A 
ATOM     10  HN          1     -24.211  -4.094  -7.501  1.00  0.00     0.166 HD
HETATM   11  N           1     -23.799  -3.314 -10.580  0.00  0.00    -0.360 N 
HETATM   12  H           1     -24.076  -2.862 -11.486  0.00  0.00     0.166 HD
HETATM   13  C           1     -22.657  -4.029 -10.349  0.00  0.00     0.114 A 
ENDBRANCH   6   7
ENDBRANCH   5   6
BRANCH   5  14
HETATM   14  N           1     -19.561  -4.013  -8.176  0.00  0.00    -0.066 N 
HETATM   15  H           1     -19.687  -3.161  -8.768  0.00  0.00     0.275 HD
HETATM   16  H           1     -19.303  -4.824  -8.783  0.00  0.00     0.275 HD
HETATM   17  H           1     -18.801  -3.845  -7.479  0.00  0.00     0.275 HD
ENDBRANCH   5  14
ENDBRANCH   3   5
BRANCH   1  18
HETATM   18  C           1     -20.441  -7.004  -4.757  0.00  0.00     0.186 C 
BRANCH  18  19
HETATM   19  C           1     -21.742  -7.335  -4.039  0.00  0.00     0.045 C 
BRANCH  19  20
HETATM   20  C           1     -21.732  -6.704  -2.652  0.00  0.00     0.105 C 
BRANCH  20  21
HETATM   21  C           1     -21.779  -7.788  -1.604  0.00  0.00     0.215 C 
HETATM   22  O           1     -21.745  -7.497  -0.431  0.00  0.00    -0.274 OA
HETATM   23  N           1     -21.860  -9.101  -1.981  0.00  0.00    -0.370 N 
HETATM   24  H           1     -21.890  -9.345  -2.963  0.00  0.00     0.159 HD
HETATM   25  H           1     -21.892  -9.829  -1.278  0.00  0.00     0.159 HD
ENDBRANCH  20  21
ENDBRANCH  19  20
ENDBRANCH  18  19
BRANCH  18  26
HETATM   26  C           1     -19.675  -8.277  -5.023  0.00  0.00     0.196 C 
HETATM   27  O           1     -19.074  -8.430  -6.108  0.00  0.00    -0.646 OA
HETATM   28  O           1     -19.641  -9.177  -4.157  0.00  0.00    -0.646 OA
ENDBRANCH  18  26
ENDBRANCH   1  18
TORSDOF 9
ENDMDL
