MODEL 1
REMARK VINA RESULT:      -6.3      0.000      0.000
REMARK  9 active torsions:
REMARK  status: ('A' for Active; 'I' for Inactive)
REMARK    1  A    between atoms: C_1  and  C_7 
REMARK    2  A    between atoms: C_1  and  C_11 
REMARK    3  A    between atoms: N_5  and  C_17 
REMARK       I    between atoms: N_5  and  C_6 
REMARK    4  A    between atoms: C_6  and  C_7 
REMARK    5  A    between atoms: C_7  and  N_14 
REMARK    6  A    between atoms: C_9  and  C_18 
REMARK    7  A    between atoms: C_11  and  S_12 
REMARK    8  A    between atoms: C_17  and  C_23 
REMARK    9  A    between atoms: C_17  and  C_18 
ROOT
HETATM    1  N           1     -33.317  -2.874 -11.737  0.00  0.00    -0.344 N 
HETATM    2  C           1     -34.081  -2.045 -10.961  0.00  0.00     0.249 C 
HETATM    3  O           1     -33.814  -1.893  -9.793  0.00  0.00    -0.271 OA
HETATM    4  H           1     -32.513  -2.508 -12.230  0.00  0.00     0.163 HD
ENDROOT
BRANCH   1   5
HETATM    5  C           1     -33.660  -4.279 -11.851  0.00  0.00     0.191 C 
BRANCH   5   6
HETATM    6  C           1     -34.425  -4.507 -13.133  0.00  0.00     0.197 C 
HETATM    7  O           1     -34.265  -3.732 -14.102  0.00  0.00    -0.646 OA
HETATM    8  O           1     -35.217  -5.468 -13.225  0.00  0.00    -0.646 OA
ENDBRANCH   5   6
BRANCH   5   9
HETATM    9  C           1     -34.523  -4.689 -10.665  0.00  0.00     0.094 C 
BRANCH   9  10
HETATM   10  C           1     -34.336  -6.149 -10.393  0.00  0.00     0.028 A 
HETATM   11  N           1     -33.336  -6.919 -10.928  0.00  0.00    -0.354 N 
HETATM   12  C           1     -33.528  -8.124 -10.442  0.00  0.00     0.180 A 
ATOM     13  HN          1     -32.599  -6.620 -11.567  1.00  0.00     0.166 HD
HETATM   14  N           1     -34.613  -8.161  -9.614  0.00  0.00    -0.360 N 
HETATM   15  C           1     -35.142  -6.901  -9.572  0.00  0.00     0.114 A 
HETATM   16  H           1     -34.974  -9.003  -9.103  0.00  0.00     0.166 HD
ENDBRANCH   9  10
ENDBRANCH   5   9
ENDBRANCH   1   5
BRANCH   2  17
HETATM   17  C           1     -35.258  -1.318 -11.566  0.00  0.00     0.275 C 
BRANCH  17  18
HETATM   18  C           1     -34.759  -0.316 -12.600  0.00  0.00     0.053 C 
BRANCH  18  19
HETATM   19  C           1     -35.938   0.218 -13.400  0.00  0.00     0.076 C 
BRANCH  19  20
HETATM   20  S           1     -35.816  -0.357 -15.117  0.00  0.00    -0.173 SA
HETATM   21  C           1     -37.472   0.184 -15.628  0.00  0.00     0.089 C 
ENDBRANCH  19  20
ENDBRANCH  18  19
ENDBRANCH  17  18
BRANCH  17  22
HETATM   22  N           1     -36.005  -0.593 -10.488  0.00  0.00    -0.066 N 
HETATM   23  H           1     -35.545  -0.768  -9.565  0.00  0.00     0.275 HD
HETATM   24  H           1     -35.998   0.434 -10.689  0.00  0.00     0.275 HD
HETATM   25  H           1     -36.992  -0.935 -10.456  0.00  0.00     0.275 HD
ENDBRANCH  17  22
ENDBRANCH   2  17
TORSDOF 9
ENDMDL
MODEL 2
REMARK VINA RESULT:      -6.3     12.162     14.002
REMARK  9 active torsions:
REMARK  status: ('A' for Active; 'I' for Inactive)
REMARK    1  A    between atoms: C_1  and  C_7 
REMARK    2  A    between atoms: C_1  and  C_11 
REMARK    3  A    between atoms: N_5  and  C_17 
REMARK       I    between atoms: N_5  and  C_6 
REMARK    4  A    between atoms: C_6  and  C_7 
REMARK    5  A    between atoms: C_7  and  N_14 
REMARK    6  A    between atoms: C_9  and  C_18 
REMARK    7  A    between atoms: C_11  and  S_12 
REMARK    8  A    between atoms: C_17  and  C_23 
REMARK    9  A    between atoms: C_17  and  C_18 
ROOT
HETATM    1  N           1     -22.898  -4.063  -8.014  0.00  0.00    -0.344 N 
HETATM    2  C           1     -21.617  -3.947  -7.547  0.00  0.00     0.249 C 
HETATM    3  O           1     -21.296  -2.982  -6.896  0.00  0.00    -0.271 OA
HETATM    4  H           1     -23.602  -4.527  -7.452  0.00  0.00     0.163 HD
ENDROOT
BRANCH   1   5
HETATM    5  C           1     -23.249  -3.524  -9.313  0.00  0.00     0.191 C 
BRANCH   5   6
HETATM    6  C           1     -24.691  -3.849  -9.620  0.00  0.00     0.197 C 
HETATM    7  O           1     -25.047  -5.040  -9.756  0.00  0.00    -0.646 OA
HETATM    8  O           1     -25.528  -2.929  -9.739  0.00  0.00    -0.646 OA
ENDBRANCH   5   6
BRANCH   5   9
HETATM    9  C           1     -22.352  -4.141 -10.378  0.00  0.00     0.094 C 
BRANCH   9  10
HETATM   10  C           1     -22.816  -3.709 -11.733  0.00  0.00     0.028 A 
HETATM   11  N           1     -23.549  -4.489 -12.591  0.00  0.00    -0.354 N 
HETATM   12  C           1     -23.746  -3.744 -13.655  0.00  0.00     0.180 A 
ATOM     13  HN          1     -23.874  -5.443 -12.436  1.00  0.00     0.166 HD
HETATM   14  N           1     -23.168  -2.514 -13.517  0.00  0.00    -0.360 N 
HETATM   15  C           1     -22.569  -2.476 -12.289  0.00  0.00     0.114 A 
HETATM   16  H           1     -23.184  -1.739 -14.225  0.00  0.00     0.166 HD
ENDBRANCH   9  10
ENDBRANCH   5   9
ENDBRANCH   1   5
BRANCH   2  17
HETATM   17  C           1     -20.604  -5.026  -7.847  0.00  0.00     0.275 C 
BRANCH  17  18
HETATM   18  C           1     -20.944  -6.277  -7.048  0.00  0.00     0.053 C 
BRANCH  18  19
HETATM   19  C           1     -20.676  -6.025  -5.571  0.00  0.00     0.076 C 
BRANCH  19  20
HETATM   20  S           1     -21.957  -6.838  -4.575  0.00  0.00    -0.173 SA
HETATM   21  C           1     -21.431  -6.155  -2.978  0.00  0.00     0.089 C 
ENDBRANCH  19  20
ENDBRANCH  18  19
ENDBRANCH  17  18
BRANCH  17  22
HETATM   22  N           1     -19.236  -4.545  -7.466  0.00  0.00    -0.066 N 
HETATM   23  H           1     -19.087  -4.693  -6.442  0.00  0.00     0.275 HD
HETATM   24  H           1     -18.516  -5.082  -8.002  0.00  0.00     0.275 HD
HETATM   25  H           1     -19.149  -3.528  -7.687  0.00  0.00     0.275 HD
ENDBRANCH  17  22
ENDBRANCH   2  17
TORSDOF 9
ENDMDL
MODEL 3
REMARK VINA RESULT:      -6.2      3.051      6.789
REMARK  9 active torsions:
REMARK  status: ('A' for Active; 'I' for Inactive)
REMARK    1  A    between atoms: C_1  and  C_7 
REMARK    2  A    between atoms: C_1  and  C_11 
REMARK    3  A    between atoms: N_5  and  C_17 
REMARK       I    between atoms: N_5  and  C_6 
REMARK    4  A    between atoms: C_6  and  C_7 
REMARK    5  A    between atoms: C_7  and  N_14 
REMARK    6  A    between atoms: C_9  and  C_18 
REMARK    7  A    between atoms: C_11  and  S_12 
REMARK    8  A    between atoms: C_17  and  C_23 
REMARK    9  A    between atoms: C_17  and  C_18 
ROOT
HETATM    1  N           1     -35.320  -1.496 -10.346  0.00  0.00    -0.344 N 
HETATM    2  C           1     -34.155  -2.121 -10.700  0.00  0.00     0.249 C 
HETATM    3  O           1     -33.095  -1.689 -10.314  0.00  0.00    -0.271 OA
HETATM    4  H           1     -35.805  -1.770  -9.501  0.00  0.00     0.163 HD
ENDROOT
BRANCH   1   5
HETATM    5  C           1     -35.860  -0.440 -11.181  0.00  0.00     0.191 C 
BRANCH   5   6
HETATM    6  C           1     -36.863   0.363 -10.390  0.00  0.00     0.197 C 
HETATM    7  O           1     -36.515   0.926  -9.329  0.00  0.00    -0.646 OA
HETATM    8  O           1     -38.041   0.466 -10.795  0.00  0.00    -0.646 OA
ENDBRANCH   5   6
BRANCH   5   9
HETATM    9  C           1     -36.545  -1.055 -12.395  0.00  0.00     0.094 C 
BRANCH   9  10
HETATM   10  C           1     -36.194  -0.266 -13.618  0.00  0.00     0.028 A 
HETATM   11  N           1     -34.918   0.085 -13.978  0.00  0.00    -0.354 N 
HETATM   12  C           1     -35.048   0.760 -15.098  0.00  0.00     0.180 A 
ATOM     13  HN          1     -34.053  -0.132 -13.484  1.00  0.00     0.166 HD
HETATM   14  N           1     -36.357   0.857 -15.473  0.00  0.00    -0.360 N 
HETATM   15  C           1     -37.104   0.203 -14.534  0.00  0.00     0.114 A 
HETATM   16  H           1     -36.722   1.345 -16.328  0.00  0.00     0.166 HD
ENDBRANCH   9  10
ENDBRANCH   5   9
ENDBRANCH   1   5
BRANCH   2  17
HETATM   17  C           1     -34.195  -3.352 -11.573  0.00  0.00     0.275 C 
BRANCH  17  18
HETATM   18  C           1     -34.975  -4.452 -10.865  0.00  0.00     0.053 C 
BRANCH  18  19
HETATM   19  C           1     -34.118  -5.708 -10.780  0.00  0.00     0.076 C 
BRANCH  19  20
HETATM   20  S           1     -34.991  -6.973  -9.815  0.00  0.00    -0.173 SA
HETATM   21  C           1     -33.844  -8.331 -10.183  0.00  0.00     0.089 C 
ENDBRANCH  19  20
ENDBRANCH  18  19
ENDBRANCH  17  18
BRANCH  17  22
HETATM   22  N           1     -32.796  -3.822 -11.837  0.00  0.00    -0.066 N 
HETATM   23  H           1     -32.516  -4.514 -11.105  0.00  0.00     0.275 HD
HETATM   24  H           1     -32.752  -4.275 -12.779  0.00  0.00     0.275 HD
HETATM   25  H           1     -32.143  -3.006 -11.813  0.00  0.00     0.275 HD
ENDBRANCH  17  22
ENDBRANCH   2  17
TORSDOF 9
ENDMDL
MODEL 4
REMARK VINA RESULT:      -6.0     13.500     15.439
REMARK  9 active torsions:
REMARK  status: ('A' for Active; 'I' for Inactive)
REMARK    1  A    between atoms: C_1  and  C_7 
REMARK    2  A    between atoms: C_1  and  C_11 
REMARK    3  A    between atoms: N_5  and  C_17 
REMARK       I    between atoms: N_5  and  C_6 
REMARK    4  A    between atoms: C_6  and  C_7 
REMARK    5  A    between atoms: C_7  and  N_14 
REMARK    6  A    between atoms: C_9  and  C_18 
REMARK    7  A    between atoms: C_11  and  S_12 
REMARK    8  A    between atoms: C_17  and  C_23 
REMARK    9  A    between atoms: C_17  and  C_18 
ROOT
HETATM    1  N           1     -22.143  -4.693  -6.359  0.00  0.00    -0.344 N 
HETATM    2  C           1     -21.342  -5.369  -5.478  0.00  0.00     0.249 C 
HETATM    3  O           1     -20.317  -4.868  -5.085  0.00  0.00    -0.271 OA
HETATM    4  H           1     -22.873  -4.083  -6.013  0.00  0.00     0.163 HD
ENDROOT
BRANCH   1   5
HETATM    5  C           1     -21.946  -4.850  -7.786  0.00  0.00     0.191 C 
BRANCH   5   6
HETATM    6  C           1     -20.468  -4.885  -8.089  0.00  0.00     0.197 C 
HETATM    7  O           1     -19.836  -3.816  -8.245  0.00  0.00    -0.646 OA
HETATM    8  O           1     -19.875  -5.981  -8.185  0.00  0.00    -0.646 OA
ENDBRANCH   5   6
BRANCH   5   9
HETATM    9  C           1     -22.586  -3.678  -8.518  0.00  0.00     0.094 C 
BRANCH   9  10
HETATM   10  C           1     -22.590  -3.951  -9.990  0.00  0.00     0.028 A 
HETATM   11  N           1     -21.742  -3.364 -10.894  0.00  0.00    -0.354 N 
HETATM   12  C           1     -22.072  -3.872 -12.059  0.00  0.00     0.180 A 
ATOM     13  HN          1     -21.011  -2.679 -10.702  1.00  0.00     0.166 HD
HETATM   14  N           1     -23.099  -4.764 -11.943  0.00  0.00    -0.360 N 
HETATM   15  C           1     -23.442  -4.827 -10.621  0.00  0.00     0.114 A 
HETATM   16  H           1     -23.543  -5.304 -12.726  0.00  0.00     0.166 HD
ENDBRANCH   9  10
ENDBRANCH   5   9
ENDBRANCH   1   5
BRANCH   2  17
HETATM   17  C           1     -21.741  -6.744  -4.999  0.00  0.00     0.275 C 
BRANCH  17  18
HETATM   18  C           1     -21.210  -6.964  -3.588  0.00  0.00     0.053 C 
BRANCH  18  19
HETATM   19  C           1     -22.112  -6.253  -2.589  0.00  0.00     0.076 C 
BRANCH  19  20
HETATM   20  S           1     -22.162  -7.195  -1.039  0.00  0.00    -0.173 SA
HETATM   21  C           1     -20.648  -8.151  -1.338  0.00  0.00     0.089 C 
ENDBRANCH  19  20
ENDBRANCH  18  19
ENDBRANCH  17  18
BRANCH  17  22
HETATM   22  N           1     -21.164  -7.780  -5.917  0.00  0.00    -0.066 N 
HETATM   23  H           1     -21.249  -7.456  -6.907  0.00  0.00     0.275 HD
HETATM   24  H           1     -20.155  -7.927  -5.685  0.00  0.00     0.275 HD
HETATM   25  H           1     -21.683  -8.679  -5.799  0.00  0.00     0.275 HD
ENDBRANCH  17  22
ENDBRANCH   2  17
TORSDOF 9
ENDMDL
MODEL 5
REMARK VINA RESULT:      -6.0     11.835     13.603
REMARK  9 active torsions:
REMARK  status: ('A' for Active; 'I' for Inactive)
REMARK    1  A    between atoms: C_1  and  C_7 
REMARK    2  A    between atoms: C_1  and  C_11 
REMARK    3  A    between atoms: N_5  and  C_17 
REMARK       I    between atoms: N_5  and  C_6 
REMARK    4  A    between atoms: C_6  and  C_7 
REMARK    5  A    between atoms: C_7  and  N_14 
REMARK    6  A    between atoms: C_9  and  C_18 
REMARK    7  A    between atoms: C_11  and  S_12 
REMARK    8  A    between atoms: C_17  and  C_23 
REMARK    9  A    between atoms: C_17  and  C_18 
ROOT
HETATM    1  N           1     -22.358  -2.708 -10.575  0.00  0.00    -0.344 N 
HETATM    2  C           1     -21.435  -3.717 -10.513  0.00  0.00     0.249 C 
HETATM    3  O           1     -20.663  -3.887 -11.426  0.00  0.00    -0.271 OA
HETATM    4  H           1     -22.128  -1.789 -10.217  0.00  0.00     0.163 HD
ENDROOT
BRANCH   1   5
HETATM    5  C           1     -23.665  -2.955 -11.152  0.00  0.00     0.191 C 
BRANCH   5   6
HETATM    6  C           1     -24.545  -3.634 -10.132  0.00  0.00     0.197 C 
HETATM    7  O           1     -24.612  -4.883 -10.097  0.00  0.00    -0.646 OA
HETATM    8  O           1     -25.207  -2.950  -9.322  0.00  0.00    -0.646 OA
ENDBRANCH   5   6
BRANCH   5   9
HETATM    9  C           1     -23.518  -3.852 -12.374  0.00  0.00     0.094 C 
BRANCH   9  10
HETATM   10  C           1     -23.358  -3.005 -13.598  0.00  0.00     0.028 A 
HETATM   11  N           1     -22.415  -3.213 -14.572  0.00  0.00    -0.354 N 
HETATM   12  C           1     -22.614  -2.263 -15.456  0.00  0.00     0.180 A 
ATOM     13  HN          1     -21.709  -3.949 -14.603  1.00  0.00     0.166 HD
HETATM   14  N           1     -23.649  -1.450 -15.092  0.00  0.00    -0.360 N 
HETATM   15  C           1     -24.137  -1.915 -13.902  0.00  0.00     0.114 A 
HETATM   16  H           1     -24.005  -0.622 -15.628  0.00  0.00     0.166 HD
ENDBRANCH   9  10
ENDBRANCH   5   9
ENDBRANCH   1   5
BRANCH   2  17
HETATM   17  C           1     -21.381  -4.617  -9.302  0.00  0.00     0.275 C 
BRANCH  17  18
HETATM   18  C           1     -21.603  -3.788  -8.044  0.00  0.00     0.053 C 
BRANCH  18  19
HETATM   19  C           1     -22.580  -4.510  -7.126  0.00  0.00     0.076 C 
BRANCH  19  20
HETATM   20  S           1     -21.681  -5.714  -6.109  0.00  0.00    -0.173 SA
HETATM   21  C           1     -20.284  -4.628  -5.703  0.00  0.00     0.089 C 
ENDBRANCH  19  20
ENDBRANCH  18  19
ENDBRANCH  17  18
BRANCH  17  22
HETATM   22  N           1     -20.038  -5.280  -9.233  0.00  0.00    -0.066 N 
HETATM   23  H           1     -19.908  -5.895 -10.068  0.00  0.00     0.275 HD
HETATM   24  H           1     -19.289  -4.550  -9.220  0.00  0.00     0.275 HD
HETATM   25  H           1     -19.978  -5.856  -8.363  0.00  0.00     0.275 HD
ENDBRANCH  17  22
ENDBRANCH   2  17
TORSDOF 9
ENDMDL
MODEL 6
REMARK VINA RESULT:      -5.9     12.912     14.719
REMARK  9 active torsions:
REMARK  status: ('A' for Active; 'I' for Inactive)
REMARK    1  A    between atoms: C_1  and  C_7 
REMARK    2  A    between atoms: C_1  and  C_11 
REMARK    3  A    between atoms: N_5  and  C_17 
REMARK       I    between atoms: N_5  and  C_6 
REMARK    4  A    between atoms: C_6  and  C_7 
REMARK    5  A    between atoms: C_7  and  N_14 
REMARK    6  A    between atoms: C_9  and  C_18 
REMARK    7  A    between atoms: C_11  and  S_12 
REMARK    8  A    between atoms: C_17  and  C_23 
REMARK    9  A    between atoms: C_17  and  C_18 
ROOT
HETATM    1  N           1     -21.783  -3.808  -8.260  0.00  0.00    -0.344 N 
HETATM    2  C           1     -20.705  -4.407  -7.667  0.00  0.00     0.249 C 
HETATM    3  O           1     -19.615  -3.892  -7.733  0.00  0.00    -0.271 OA
HETATM    4  H           1     -22.345  -3.147  -7.739  0.00  0.00     0.163 HD
ENDROOT
BRANCH   1   5
HETATM    5  C           1     -22.121  -4.121  -9.635  0.00  0.00     0.191 C 
BRANCH   5   6
HETATM    6  C           1     -20.930  -3.847 -10.521  0.00  0.00     0.197 C 
HETATM    7  O           1     -20.244  -4.797 -10.957  0.00  0.00    -0.646 OA
HETATM    8  O           1     -20.629  -2.671 -10.817  0.00  0.00    -0.646 OA
ENDBRANCH   5   6
BRANCH   5   9
HETATM    9  C           1     -23.293  -3.256 -10.079  0.00  0.00     0.094 C 
BRANCH   9  10
HETATM   10  C           1     -23.453  -3.356 -11.564  0.00  0.00     0.028 A 
HETATM   11  N           1     -23.254  -2.321 -12.441  0.00  0.00    -0.354 N 
HETATM   12  C           1     -23.495  -2.823 -13.630  0.00  0.00     0.180 A 
ATOM     13  HN          1     -22.977  -1.365 -12.217  1.00  0.00     0.166 HD
HETATM   14  N           1     -23.842  -4.141 -13.555  0.00  0.00    -0.360 N 
HETATM   15  C           1     -23.819  -4.498 -12.235  0.00  0.00     0.114 A 
HETATM   16  H           1     -24.081  -4.766 -14.363  0.00  0.00     0.166 HD
ENDBRANCH   9  10
ENDBRANCH   5   9
ENDBRANCH   1   5
BRANCH   2  17
HETATM   17  C           1     -20.879  -5.713  -6.929  0.00  0.00     0.275 C 
BRANCH  17  18
HETATM   18  C           1     -20.982  -5.441  -5.434  0.00  0.00     0.053 C 
BRANCH  18  19
HETATM   19  C           1     -21.989  -6.398  -4.812  0.00  0.00     0.076 C 
BRANCH  19  20
HETATM   20  S           1     -21.262  -7.172  -3.340  0.00  0.00    -0.173 SA
HETATM   21  C           1     -22.121  -6.134  -2.123  0.00  0.00     0.089 C 
ENDBRANCH  19  20
ENDBRANCH  18  19
ENDBRANCH  17  18
BRANCH  17  22
HETATM   22  N           1     -19.698  -6.597  -7.195  0.00  0.00    -0.066 N 
HETATM   23  H           1     -19.840  -7.521  -6.726  0.00  0.00     0.275 HD
HETATM   24  H           1     -19.597  -6.743  -8.226  0.00  0.00     0.275 HD
HETATM   25  H           1     -18.833  -6.146  -6.820  0.00  0.00     0.275 HD
ENDBRANCH  17  22
ENDBRANCH   2  17
TORSDOF 9
ENDMDL
MODEL 7
REMARK VINA RESULT:      -5.8     14.356     15.750
REMARK  9 active torsions:
REMARK  status: ('A' for Active; 'I' for Inactive)
REMARK    1  A    between atoms: C_1  and  C_7 
REMARK    2  A    between atoms: C_1  and  C_11 
REMARK    3  A    between atoms: N_5  and  C_17 
REMARK       I    between atoms: N_5  and  C_6 
REMARK    4  A    between atoms: C_6  and  C_7 
REMARK    5  A    between atoms: C_7  and  N_14 
REMARK    6  A    between atoms: C_9  and  C_18 
REMARK    7  A    between atoms: C_11  and  S_12 
REMARK    8  A    between atoms: C_17  and  C_23 
REMARK    9  A    between atoms: C_17  and  C_18 
ROOT
HETATM    1  N           1     -20.840  -7.636  -5.918  0.00  0.00    -0.344 N 
HETATM    2  C           1     -20.397  -6.504  -6.549  0.00  0.00     0.249 C 
HETATM    3  O           1     -19.506  -6.573  -7.360  0.00  0.00    -0.271 OA
HETATM    4  H           1     -21.593  -8.178  -6.322  0.00  0.00     0.163 HD
ENDROOT
BRANCH   1   5
HETATM    5  C           1     -20.230  -8.057  -4.672  0.00  0.00     0.191 C 
BRANCH   5   6
HETATM    6  C           1     -19.140  -9.061  -4.960  0.00  0.00     0.197 C 
HETATM    7  O           1     -18.195  -9.205  -4.154  0.00  0.00    -0.646 OA
HETATM    8  O           1     -19.182  -9.748  -6.003  0.00  0.00    -0.646 OA
ENDBRANCH   5   6
BRANCH   5   9
HETATM    9  C           1     -21.287  -8.697  -3.782  0.00  0.00     0.094 C 
BRANCH   9  10
HETATM   10  C           1     -21.709  -7.721  -2.728  0.00  0.00     0.028 A 
HETATM   11  N           1     -21.942  -8.043  -1.416  0.00  0.00    -0.354 N 
HETATM   12  C           1     -22.285  -6.915  -0.838  0.00  0.00     0.180 A 
ATOM     13  HN          1     -21.864  -8.962  -0.981  1.00  0.00     0.166 HD
HETATM   14  N           1     -22.283  -5.877  -1.726  0.00  0.00    -0.360 N 
HETATM   15  C           1     -21.915  -6.379  -2.943  0.00  0.00     0.114 A 
HETATM   16  H           1     -22.520  -4.877  -1.511  0.00  0.00     0.166 HD
ENDBRANCH   9  10
ENDBRANCH   5   9
ENDBRANCH   1   5
BRANCH   2  17
HETATM   17  C           1     -21.025  -5.168  -6.229  0.00  0.00     0.275 C 
BRANCH  17  18
HETATM   18  C           1     -21.205  -4.372  -7.515  0.00  0.00     0.053 C 
BRANCH  18  19
HETATM   19  C           1     -22.683  -4.319  -7.877  0.00  0.00     0.076 C 
BRANCH  19  20
HETATM   20  S           1     -22.861  -4.112  -9.671  0.00  0.00    -0.173 SA
HETATM   21  C           1     -24.521  -3.378  -9.623  0.00  0.00     0.089 C 
ENDBRANCH  19  20
ENDBRANCH  18  19
ENDBRANCH  17  18
BRANCH  17  22
HETATM   22  N           1     -20.133  -4.410  -5.293  0.00  0.00    -0.066 N 
HETATM   23  H           1     -19.781  -3.547  -5.767  0.00  0.00     0.275 HD
HETATM   24  H           1     -20.673  -4.141  -4.439  0.00  0.00     0.275 HD
HETATM   25  H           1     -19.323  -5.010  -5.018  0.00  0.00     0.275 HD
ENDBRANCH  17  22
ENDBRANCH   2  17
TORSDOF 9
ENDMDL
MODEL 8
REMARK VINA RESULT:      -5.8     12.961     14.347
REMARK  9 active torsions:
REMARK  status: ('A' for Active; 'I' for Inactive)
REMARK    1  A    between atoms: C_1  and  C_7 
REMARK    2  A    between atoms: C_1  and  C_11 
REMARK    3  A    between atoms: N_5  and  C_17 
REMARK       I    between atoms: N_5  and  C_6 
REMARK    4  A    between atoms: C_6  and  C_7 
REMARK    5  A    between atoms: C_7  and  N_14 
REMARK    6  A    between atoms: C_9  and  C_18 
REMARK    7  A    between atoms: C_11  and  S_12 
REMARK    8  A    between atoms: C_17  and  C_23 
REMARK    9  A    between atoms: C_17  and  C_18 
ROOT
HETATM    1  N           1     -20.707  -6.280  -6.873  0.00  0.00    -0.344 N 
HETATM    2  C           1     -21.193  -5.029  -7.144  0.00  0.00     0.249 C 
HETATM    3  O           1     -20.842  -4.087  -6.476  0.00  0.00    -0.271 OA
HETATM    4  H           1     -19.859  -6.602  -7.322  0.00  0.00     0.163 HD
ENDROOT
BRANCH   1   5
HETATM    5  C           1     -21.407  -7.144  -5.943  0.00  0.00     0.191 C 
BRANCH   5   6
HETATM    6  C           1     -22.169  -6.301  -4.949  0.00  0.00     0.197 C 
HETATM    7  O           1     -23.365  -6.009  -5.165  0.00  0.00    -0.646 OA
HETATM    8  O           1     -21.603  -5.894  -3.912  0.00  0.00    -0.646 OA
ENDBRANCH   5   6
BRANCH   5   9
HETATM    9  C           1     -20.400  -8.015  -5.204  0.00  0.00     0.094 C 
BRANCH   9  10
HETATM   10  C           1     -20.943  -9.403  -5.071  0.00  0.00     0.028 A 
HETATM   11  N           1     -20.813 -10.385  -6.019  0.00  0.00    -0.354 N 
HETATM   12  C           1     -21.422 -11.435  -5.517  0.00  0.00     0.180 A 
ATOM     13  HN          1     -20.343 -10.316  -6.921  1.00  0.00     0.166 HD
HETATM   14  N           1     -21.939 -11.169  -4.282  0.00  0.00    -0.360 N 
HETATM   15  C           1     -21.640  -9.869  -3.981  0.00  0.00     0.114 A 
HETATM   16  H           1     -22.470 -11.841  -3.674  0.00  0.00     0.166 HD
ENDBRANCH   9  10
ENDBRANCH   5   9
ENDBRANCH   1   5
BRANCH   2  17
HETATM   17  C           1     -22.167  -4.829  -8.280  0.00  0.00     0.275 C 
BRANCH  17  18
HETATM   18  C           1     -21.549  -3.906  -9.322  0.00  0.00     0.053 C 
BRANCH  18  19
HETATM   19  C           1     -21.877  -4.421 -10.717  0.00  0.00     0.076 C 
BRANCH  19  20
HETATM   20  S           1     -22.497  -3.055 -11.738  0.00  0.00    -0.173 SA
HETATM   21  C           1     -24.252  -3.283 -11.333  0.00  0.00     0.089 C 
ENDBRANCH  19  20
ENDBRANCH  18  19
ENDBRANCH  17  18
BRANCH  17  22
HETATM   22  N           1     -23.428  -4.212  -7.753  0.00  0.00    -0.066 N 
HETATM   23  H           1     -24.159  -4.951  -7.644  0.00  0.00     0.275 HD
HETATM   24  H           1     -23.238  -3.773  -6.823  0.00  0.00     0.275 HD
HETATM   25  H           1     -23.765  -3.483  -8.420  0.00  0.00     0.275 HD
ENDBRANCH  17  22
ENDBRANCH   2  17
TORSDOF 9
ENDMDL
MODEL 9
REMARK VINA RESULT:      -5.7      9.693     11.117
REMARK  9 active torsions:
REMARK  status: ('A' for Active; 'I' for Inactive)
REMARK    1  A    between atoms: C_1  and  C_7 
REMARK    2  A    between atoms: C_1  and  C_11 
REMARK    3  A    between atoms: N_5  and  C_17 
REMARK       I    between atoms: N_5  and  C_6 
REMARK    4  A    between atoms: C_6  and  C_7 
REMARK    5  A    between atoms: C_7  and  N_14 
REMARK    6  A    between atoms: C_9  and  C_18 
REMARK    7  A    between atoms: C_11  and  S_12 
REMARK    8  A    between atoms: C_17  and  C_23 
REMARK    9  A    between atoms: C_17  and  C_18 
ROOT
HETATM    1  N           1     -26.760  -5.958 -17.634  0.00  0.00    -0.344 N 
HETATM    2  C           1     -27.994  -6.250 -17.119  0.00  0.00     0.249 C 
HETATM    3  O           1     -28.268  -5.929 -15.987  0.00  0.00    -0.271 OA
HETATM    4  H           1     -26.608  -5.081 -18.117  0.00  0.00     0.163 HD
ENDROOT
BRANCH   1   5
HETATM    5  C           1     -25.672  -6.905 -17.490  0.00  0.00     0.191 C 
BRANCH   5   6
HETATM    6  C           1     -25.066  -6.768 -16.114  0.00  0.00     0.197 C 
HETATM    7  O           1     -24.984  -5.642 -15.576  0.00  0.00    -0.646 OA
HETATM    8  O           1     -24.644  -7.780 -15.514  0.00  0.00    -0.646 OA
ENDBRANCH   5   6
BRANCH   5   9
HETATM    9  C           1     -24.609  -6.620 -18.543  0.00  0.00     0.094 C 
BRANCH   9  10
HETATM   10  C           1     -24.941  -7.362 -19.800  0.00  0.00     0.028 A 
HETATM   11  N           1     -26.213  -7.582 -20.262  0.00  0.00    -0.354 N 
HETATM   12  C           1     -26.064  -8.261 -21.377  0.00  0.00     0.180 A 
ATOM     13  HN          1     -27.088  -7.282 -19.833  1.00  0.00     0.166 HD
HETATM   14  N           1     -24.746  -8.487 -21.652  0.00  0.00    -0.360 N 
HETATM   15  C           1     -24.012  -7.916 -20.649  0.00  0.00     0.114 A 
HETATM   16  H           1     -24.366  -9.004 -22.482  0.00  0.00     0.166 HD
ENDBRANCH   9  10
ENDBRANCH   5   9
ENDBRANCH   1   5
BRANCH   2  17
HETATM   17  C           1     -29.014  -6.973 -17.966  0.00  0.00     0.275 C 
BRANCH  17  18
HETATM   18  C           1     -30.205  -6.057 -18.218  0.00  0.00     0.053 C 
BRANCH  18  19
HETATM   19  C           1     -31.336  -6.423 -17.267  0.00  0.00     0.076 C 
BRANCH  19  20
HETATM   20  S           1     -31.997  -4.915 -16.504  0.00  0.00    -0.173 SA
HETATM   21  C           1     -31.331  -3.759 -17.735  0.00  0.00     0.089 C 
ENDBRANCH  19  20
ENDBRANCH  18  19
ENDBRANCH  17  18
BRANCH  17  22
HETATM   22  N           1     -29.474  -8.206 -17.248  0.00  0.00    -0.066 N 
HETATM   23  H           1     -30.482  -8.380 -17.464  0.00  0.00     0.275 HD
HETATM   24  H           1     -28.905  -9.025 -17.563  0.00  0.00     0.275 HD
HETATM   25  H           1     -29.357  -8.074 -16.219  0.00  0.00     0.275 HD
ENDBRANCH  17  22
ENDBRANCH   2  17
TORSDOF 9
ENDMDL
