MODEL 1
REMARK VINA RESULT:      -7.0      0.000      0.000
REMARK  11 active torsions:
REMARK  status: ('A' for Active; 'I' for Inactive)
REMARK    1  A    between atoms: C_2  and  C_13 
REMARK    2  A    between atoms: C_2  and  C_18 
REMARK    3  A    between atoms: C_2  and  N_7 
REMARK       I    between atoms: N_5  and  C_15 
REMARK    4  A    between atoms: C_6  and  C_18 
REMARK    5  A    between atoms: C_6  and  S_19 
REMARK    6  A    between atoms: C_8  and  C_9 
REMARK    7  A    between atoms: C_8  and  C_17 
REMARK    8  A    between atoms: C_8  and  N_11 
REMARK    9  A    between atoms: C_9  and  C_14 
REMARK       I    between atoms: N_11  and  C_13 
REMARK   10  A    between atoms: C_14  and  C_26 
REMARK       I    between atoms: C_15  and  N_24 
REMARK   11  A    between atoms: N_24  and  C_26 
ROOT
HETATM    1  C           1     -22.654  -3.732  -9.658  0.00  0.00     0.185 C 
ENDROOT
BRANCH   1   2
HETATM    2  C           1     -22.071  -3.950 -11.048  0.00  0.00     0.038 C 
BRANCH   2   3
HETATM    3  C           1     -22.292  -2.703 -11.894  0.00  0.00     0.023 C 
BRANCH   3   4
HETATM    4  C           1     -23.123  -3.060 -13.119  0.00  0.00     0.138 C 
BRANCH   4   5
HETATM    5  N           1     -23.934  -1.901 -13.518  0.00  0.00    -0.227 N 
HETATM    6  H           1     -24.661  -1.519 -12.864  0.00  0.00     0.177 HD
HETATM    7  C           1     -23.755  -1.363 -14.651  0.00  0.00     0.665 C 
HETATM    8  N           1     -24.472  -0.338 -15.003  0.00  0.00    -0.235 N 
HETATM    9  N           1     -22.879  -1.824 -15.439  0.00  0.00    -0.235 N 
HETATM   10  H           1     -25.195   0.042 -14.352  0.00  0.00     0.174 HD
HETATM   11  H           1     -24.325   0.106 -15.938  0.00  0.00     0.174 HD
HETATM   12  H           1     -22.731  -1.378 -16.378  0.00  0.00     0.174 HD
HETATM   13  H           1     -22.299  -2.652 -15.154  0.00  0.00     0.174 HD
ENDBRANCH   4   5
ENDBRANCH   3   4
ENDBRANCH   2   3
ENDBRANCH   1   2
BRANCH   1  14
HETATM   14  C           1     -24.157  -3.841  -9.719  0.00  0.00     0.196 C 
HETATM   15  O           1     -24.695  -4.942  -9.965  0.00  0.00    -0.646 OA
HETATM   16  O           1     -24.865  -2.830  -9.524  0.00  0.00    -0.646 OA
ENDBRANCH   1  14
BRANCH   1  17
HETATM   17  N           1     -22.133  -4.738  -8.753  0.00  0.00    -0.345 N 
HETATM   18  H           1     -22.187  -5.718  -9.000  0.00  0.00     0.163 HD
HETATM   19  C           1     -21.566  -4.363  -7.564  0.00  0.00     0.249 C 
HETATM   20  O           1     -21.501  -3.194  -7.270  0.00  0.00    -0.271 OA
BRANCH  19  21
HETATM   21  C           1     -21.024  -5.410  -6.622  0.00  0.00     0.275 C 
BRANCH  21  22
HETATM   22  C           1     -22.142  -5.910  -5.720  0.00  0.00     0.053 C 
BRANCH  22  23
HETATM   23  C           1     -21.569  -6.285  -4.359  0.00  0.00     0.076 C 
BRANCH  23  24
HETATM   24  S           1     -21.331  -8.083  -4.277  0.00  0.00    -0.173 SA
HETATM   25  C           1     -20.779  -8.131  -2.549  0.00  0.00     0.089 C 
ENDBRANCH  23  24
ENDBRANCH  22  23
ENDBRANCH  21  22
BRANCH  21  26
HETATM   26  N           1     -19.935  -4.810  -5.783  0.00  0.00    -0.066 N 
HETATM   27  H           1     -19.323  -4.211  -6.382  0.00  0.00     0.275 HD
HETATM   28  H           1     -20.359  -4.227  -5.027  0.00  0.00     0.275 HD
HETATM   29  H           1     -19.363  -5.574  -5.356  0.00  0.00     0.275 HD
ENDBRANCH  21  26
ENDBRANCH  19  21
ENDBRANCH   1  17
TORSDOF 11
ENDMDL
MODEL 2
REMARK VINA RESULT:      -6.6     10.349     12.289
REMARK  11 active torsions:
REMARK  status: ('A' for Active; 'I' for Inactive)
REMARK    1  A    between atoms: C_2  and  C_13 
REMARK    2  A    between atoms: C_2  and  C_18 
REMARK    3  A    between atoms: C_2  and  N_7 
REMARK       I    between atoms: N_5  and  C_15 
REMARK    4  A    between atoms: C_6  and  C_18 
REMARK    5  A    between atoms: C_6  and  S_19 
REMARK    6  A    between atoms: C_8  and  C_9 
REMARK    7  A    between atoms: C_8  and  C_17 
REMARK    8  A    between atoms: C_8  and  N_11 
REMARK    9  A    between atoms: C_9  and  C_14 
REMARK       I    between atoms: N_11  and  C_13 
REMARK   10  A    between atoms: C_14  and  C_26 
REMARK       I    between atoms: C_15  and  N_24 
REMARK   11  A    between atoms: N_24  and  C_26 
ROOT
HETATM    1  C           1     -28.333  -6.555 -17.104  0.00  0.00     0.185 C 
ENDROOT
BRANCH   1   2
HETATM    2  C           1     -29.151  -7.749 -17.578  0.00  0.00     0.038 C 
BRANCH   2   3
HETATM    3  C           1     -30.524  -7.277 -18.035  0.00  0.00     0.023 C 
BRANCH   3   4
HETATM    4  C           1     -30.652  -5.778 -17.796  0.00  0.00     0.138 C 
BRANCH   4   5
HETATM    5  N           1     -31.693  -5.528 -16.789  0.00  0.00    -0.227 N 
HETATM    6  H           1     -31.988  -6.296 -16.137  0.00  0.00     0.177 HD
HETATM    7  C           1     -32.235  -4.386 -16.708  0.00  0.00     0.665 C 
HETATM    8  N           1     -33.156  -4.165 -15.818  0.00  0.00    -0.235 N 
HETATM    9  N           1     -31.880  -3.460 -17.495  0.00  0.00    -0.235 N 
HETATM   10  H           1     -33.449  -4.930 -15.169  0.00  0.00     0.174 HD
HETATM   11  H           1     -33.603  -3.223 -15.751  0.00  0.00     0.174 HD
HETATM   12  H           1     -32.329  -2.514 -17.427  0.00  0.00     0.174 HD
HETATM   13  H           1     -31.136  -3.639 -18.214  0.00  0.00     0.174 HD
ENDBRANCH   4   5
ENDBRANCH   3   4
ENDBRANCH   2   3
ENDBRANCH   1   2
BRANCH   1  14
HETATM   14  C           1     -28.338  -6.507 -15.596  0.00  0.00     0.196 C 
HETATM   15  O           1     -28.803  -5.510 -15.003  0.00  0.00    -0.646 OA
HETATM   16  O           1     -27.876  -7.465 -14.939  0.00  0.00    -0.646 OA
ENDBRANCH   1  14
BRANCH   1  17
HETATM   17  N           1     -26.969  -6.685 -17.579  0.00  0.00    -0.345 N 
HETATM   18  H           1     -26.238  -6.976 -16.943  0.00  0.00     0.163 HD
HETATM   19  C           1     -26.671  -6.413 -18.888  0.00  0.00     0.249 C 
HETATM   20  O           1     -27.544  -6.066 -19.645  0.00  0.00    -0.271 OA
BRANCH  19  21
HETATM   21  C           1     -25.252  -6.548 -19.382  0.00  0.00     0.275 C 
BRANCH  21  22
HETATM   22  C           1     -25.257  -7.124 -20.791  0.00  0.00     0.053 C 
BRANCH  22  23
HETATM   23  C           1     -24.079  -8.077 -20.955  0.00  0.00     0.076 C 
BRANCH  23  24
HETATM   24  S           1     -23.523  -8.059 -22.683  0.00  0.00    -0.173 SA
HETATM   25  C           1     -21.996  -9.000 -22.410  0.00  0.00     0.089 C 
ENDBRANCH  23  24
ENDBRANCH  22  23
ENDBRANCH  21  22
BRANCH  21  26
HETATM   26  N           1     -24.491  -7.465 -18.470  0.00  0.00    -0.066 N 
HETATM   27  H           1     -23.465  -7.317 -18.604  0.00  0.00     0.275 HD
HETATM   28  H           1     -24.744  -7.258 -17.478  0.00  0.00     0.275 HD
HETATM   29  H           1     -24.731  -8.457 -18.694  0.00  0.00     0.275 HD
ENDBRANCH  21  26
ENDBRANCH  19  21
ENDBRANCH   1  17
TORSDOF 11
ENDMDL
MODEL 3
REMARK VINA RESULT:      -6.2      2.741      3.625
REMARK  11 active torsions:
REMARK  status: ('A' for Active; 'I' for Inactive)
REMARK    1  A    between atoms: C_2  and  C_13 
REMARK    2  A    between atoms: C_2  and  C_18 
REMARK    3  A    between atoms: C_2  and  N_7 
REMARK       I    between atoms: N_5  and  C_15 
REMARK    4  A    between atoms: C_6  and  C_18 
REMARK    5  A    between atoms: C_6  and  S_19 
REMARK    6  A    between atoms: C_8  and  C_9 
REMARK    7  A    between atoms: C_8  and  C_17 
REMARK    8  A    between atoms: C_8  and  N_11 
REMARK    9  A    between atoms: C_9  and  C_14 
REMARK       I    between atoms: N_11  and  C_13 
REMARK   10  A    between atoms: C_14  and  C_26 
REMARK       I    between atoms: C_15  and  N_24 
REMARK   11  A    between atoms: N_24  and  C_26 
ROOT
HETATM    1  C           1     -21.425  -4.856  -7.933  0.00  0.00     0.185 C 
ENDROOT
BRANCH   1   2
HETATM    2  C           1     -22.374  -3.694  -8.199  0.00  0.00     0.038 C 
BRANCH   2   3
HETATM    3  C           1     -23.685  -4.225  -8.763  0.00  0.00     0.023 C 
BRANCH   3   4
HETATM    4  C           1     -24.008  -3.503 -10.064  0.00  0.00     0.138 C 
BRANCH   4   5
HETATM    5  N           1     -22.773  -3.306 -10.837  0.00  0.00    -0.227 N 
HETATM    6  H           1     -22.042  -2.634 -10.496  0.00  0.00     0.177 HD
HETATM    7  C           1     -22.591  -3.947 -11.914  0.00  0.00     0.665 C 
HETATM    8  N           1     -21.499  -3.773 -12.597  0.00  0.00    -0.235 N 
HETATM    9  N           1     -23.472  -4.757 -12.325  0.00  0.00    -0.235 N 
HETATM   10  H           1     -20.772  -3.104 -12.257  0.00  0.00     0.174 HD
HETATM   11  H           1     -21.349  -4.301 -13.485  0.00  0.00     0.174 HD
HETATM   12  H           1     -23.321  -5.288 -13.218  0.00  0.00     0.174 HD
HETATM   13  H           1     -24.355  -4.898 -11.773  0.00  0.00     0.174 HD
ENDBRANCH   4   5
ENDBRANCH   3   4
ENDBRANCH   2   3
ENDBRANCH   1   2
BRANCH   1  14
HETATM   14  C           1     -20.098  -4.585  -8.596  0.00  0.00     0.196 C 
HETATM   15  O           1     -19.991  -4.668  -9.839  0.00  0.00    -0.646 OA
HETATM   16  O           1     -19.105  -4.278  -7.903  0.00  0.00    -0.646 OA
ENDBRANCH   1  14
BRANCH   1  17
HETATM   17  N           1     -21.231  -5.002  -6.504  0.00  0.00    -0.345 N 
HETATM   18  H           1     -21.150  -4.182  -5.918  0.00  0.00     0.163 HD
HETATM   19  C           1     -21.157  -6.252  -5.947  0.00  0.00     0.249 C 
HETATM   20  O           1     -21.254  -7.230  -6.647  0.00  0.00    -0.271 OA
BRANCH  19  21
HETATM   21  C           1     -20.954  -6.404  -4.460  0.00  0.00     0.275 C 
BRANCH  21  22
HETATM   22  C           1     -20.505  -7.825  -4.151  0.00  0.00     0.053 C 
BRANCH  22  23
HETATM   23  C           1     -21.445  -8.444  -3.122  0.00  0.00     0.076 C 
BRANCH  23  24
HETATM   24  S           1     -20.612  -8.521  -1.511  0.00  0.00    -0.173 SA
HETATM   25  C           1     -21.979  -7.819  -0.547  0.00  0.00     0.089 C 
ENDBRANCH  23  24
ENDBRANCH  22  23
ENDBRANCH  21  22
BRANCH  21  26
HETATM   26  N           1     -22.244  -6.122  -3.749  0.00  0.00    -0.066 N 
HETATM   27  H           1     -23.024  -6.627  -4.228  0.00  0.00     0.275 HD
HETATM   28  H           1     -22.175  -6.449  -2.759  0.00  0.00     0.275 HD
HETATM   29  H           1     -22.433  -5.094  -3.765  0.00  0.00     0.275 HD
ENDBRANCH  21  26
ENDBRANCH  19  21
ENDBRANCH   1  17
TORSDOF 11
ENDMDL
MODEL 4
REMARK VINA RESULT:      -6.1      3.730      8.169
REMARK  11 active torsions:
REMARK  status: ('A' for Active; 'I' for Inactive)
REMARK    1  A    between atoms: C_2  and  C_13 
REMARK    2  A    between atoms: C_2  and  C_18 
REMARK    3  A    between atoms: C_2  and  N_7 
REMARK       I    between atoms: N_5  and  C_15 
REMARK    4  A    between atoms: C_6  and  C_18 
REMARK    5  A    between atoms: C_6  and  S_19 
REMARK    6  A    between atoms: C_8  and  C_9 
REMARK    7  A    between atoms: C_8  and  C_17 
REMARK    8  A    between atoms: C_8  and  N_11 
REMARK    9  A    between atoms: C_9  and  C_14 
REMARK       I    between atoms: N_11  and  C_13 
REMARK   10  A    between atoms: C_14  and  C_26 
REMARK       I    between atoms: C_15  and  N_24 
REMARK   11  A    between atoms: N_24  and  C_26 
ROOT
HETATM    1  C           1     -20.891  -4.804  -6.322  0.00  0.00     0.185 C 
ENDROOT
BRANCH   1   2
HETATM    2  C           1     -21.010  -5.527  -4.986  0.00  0.00     0.038 C 
BRANCH   2   3
HETATM    3  C           1     -22.156  -6.528  -5.050  0.00  0.00     0.023 C 
BRANCH   3   4
HETATM    4  C           1     -21.671  -7.888  -4.567  0.00  0.00     0.138 C 
BRANCH   4   5
HETATM    5  N           1     -20.675  -8.418  -5.510  0.00  0.00    -0.227 N 
HETATM    6  H           1     -20.876  -8.417  -6.540  0.00  0.00     0.177 HD
HETATM    7  C           1     -19.575  -8.874  -5.079  0.00  0.00     0.665 C 
HETATM    8  N           1     -18.695  -9.343  -5.913  0.00  0.00    -0.235 N 
HETATM    9  N           1     -19.333  -8.875  -3.837  0.00  0.00    -0.235 N 
HETATM   10  H           1     -18.895  -9.342  -6.939  0.00  0.00     0.174 HD
HETATM   11  H           1     -17.787  -9.719  -5.558  0.00  0.00     0.174 HD
HETATM   12  H           1     -18.421  -9.254  -3.480  0.00  0.00     0.174 HD
HETATM   13  H           1     -20.044  -8.497  -3.163  0.00  0.00     0.174 HD
ENDBRANCH   4   5
ENDBRANCH   3   4
ENDBRANCH   2   3
ENDBRANCH   1   2
BRANCH   1  14
HETATM   14  C           1     -19.663  -5.291  -7.050  0.00  0.00     0.196 C 
HETATM   15  O           1     -18.760  -4.486  -7.362  0.00  0.00    -0.646 OA
HETATM   16  O           1     -19.550  -6.501  -7.343  0.00  0.00    -0.646 OA
ENDBRANCH   1  14
BRANCH   1  17
HETATM   17  N           1     -22.068  -5.074  -7.123  0.00  0.00    -0.345 N 
HETATM   18  H           1     -22.583  -5.936  -6.993  0.00  0.00     0.163 HD
HETATM   19  C           1     -22.484  -4.163  -8.058  0.00  0.00     0.249 C 
HETATM   20  O           1     -21.870  -3.136  -8.213  0.00  0.00    -0.271 OA
BRANCH  19  21
HETATM   21  C           1     -23.709  -4.444  -8.893  0.00  0.00     0.275 C 
BRANCH  21  22
HETATM   22  C           1     -23.288  -4.796 -10.312  0.00  0.00     0.053 C 
BRANCH  22  23
HETATM   23  C           1     -23.878  -3.782 -11.285  0.00  0.00     0.076 C 
BRANCH  23  24
HETATM   24  S           1     -22.535  -2.865 -12.091  0.00  0.00    -0.173 SA
HETATM   25  C           1     -21.199  -3.984 -11.587  0.00  0.00     0.089 C 
ENDBRANCH  23  24
ENDBRANCH  22  23
ENDBRANCH  21  22
BRANCH  21  26
HETATM   26  N           1     -24.585  -3.227  -8.919  0.00  0.00    -0.066 N 
HETATM   27  H           1     -23.989  -2.369  -8.948  0.00  0.00     0.275 HD
HETATM   28  H           1     -25.196  -3.255  -9.767  0.00  0.00     0.275 HD
HETATM   29  H           1     -25.181  -3.208  -8.060  0.00  0.00     0.275 HD
ENDBRANCH  21  26
ENDBRANCH  19  21
ENDBRANCH   1  17
TORSDOF 11
ENDMDL
MODEL 5
REMARK VINA RESULT:      -6.1      3.716      4.977
REMARK  11 active torsions:
REMARK  status: ('A' for Active; 'I' for Inactive)
REMARK    1  A    between atoms: C_2  and  C_13 
REMARK    2  A    between atoms: C_2  and  C_18 
REMARK    3  A    between atoms: C_2  and  N_7 
REMARK       I    between atoms: N_5  and  C_15 
REMARK    4  A    between atoms: C_6  and  C_18 
REMARK    5  A    between atoms: C_6  and  S_19 
REMARK    6  A    between atoms: C_8  and  C_9 
REMARK    7  A    between atoms: C_8  and  C_17 
REMARK    8  A    between atoms: C_8  and  N_11 
REMARK    9  A    between atoms: C_9  and  C_14 
REMARK       I    between atoms: N_11  and  C_13 
REMARK   10  A    between atoms: C_14  and  C_26 
REMARK       I    between atoms: C_15  and  N_24 
REMARK   11  A    between atoms: N_24  and  C_26 
ROOT
HETATM    1  C           1     -20.962  -5.319  -6.375  0.00  0.00     0.185 C 
ENDROOT
BRANCH   1   2
HETATM    2  C           1     -20.727  -3.860  -6.744  0.00  0.00     0.038 C 
BRANCH   2   3
HETATM    3  C           1     -21.792  -3.408  -7.735  0.00  0.00     0.023 C 
BRANCH   3   4
HETATM    4  C           1     -22.890  -4.460  -7.816  0.00  0.00     0.138 C 
BRANCH   4   5
HETATM    5  N           1     -24.132  -3.838  -8.297  0.00  0.00    -0.227 N 
HETATM    6  H           1     -24.684  -3.210  -7.662  0.00  0.00     0.177 HD
HETATM    7  C           1     -24.536  -4.059  -9.476  0.00  0.00     0.665 C 
HETATM    8  N           1     -25.634  -3.509  -9.901  0.00  0.00    -0.235 N 
HETATM    9  N           1     -23.870  -4.816 -10.242  0.00  0.00    -0.235 N 
HETATM   10  H           1     -26.183  -2.884  -9.269  0.00  0.00     0.174 HD
HETATM   11  H           1     -25.967  -3.691 -10.875  0.00  0.00     0.174 HD
HETATM   12  H           1     -24.204  -4.999 -11.220  0.00  0.00     0.174 HD
HETATM   13  H           1     -22.982  -5.260  -9.899  0.00  0.00     0.174 HD
ENDBRANCH   4   5
ENDBRANCH   3   4
ENDBRANCH   2   3
ENDBRANCH   1   2
BRANCH   1  14
HETATM   14  C           1     -20.007  -6.194  -7.149  0.00  0.00     0.196 C 
HETATM   15  O           1     -19.712  -5.905  -8.329  0.00  0.00    -0.646 OA
HETATM   16  O           1     -19.513  -7.207  -6.612  0.00  0.00    -0.646 OA
ENDBRANCH   1  14
BRANCH   1  17
HETATM   17  N           1     -20.737  -5.499  -4.954  0.00  0.00    -0.345 N 
HETATM   18  H           1     -19.979  -5.011  -4.495  0.00  0.00     0.163 HD
HETATM   19  C           1     -21.553  -6.330  -4.232  0.00  0.00     0.249 C 
HETATM   20  O           1     -22.457  -6.912  -4.780  0.00  0.00    -0.271 OA
BRANCH  19  21
HETATM   21  C           1     -21.320  -6.519  -2.753  0.00  0.00     0.275 C 
BRANCH  21  22
HETATM   22  C           1     -21.386  -8.000  -2.413  0.00  0.00     0.053 C 
BRANCH  22  23
HETATM   23  C           1     -20.951  -8.210  -0.967  0.00  0.00     0.076 C 
BRANCH  23  24
HETATM   24  S           1     -22.061  -9.403  -0.168  0.00  0.00    -0.173 SA
HETATM   25  C           1     -23.171  -8.174   0.574  0.00  0.00     0.089 C 
ENDBRANCH  23  24
ENDBRANCH  22  23
ENDBRANCH  21  22
BRANCH  21  26
HETATM   26  N           1     -22.375  -5.781  -1.984  0.00  0.00    -0.066 N 
HETATM   27  H           1     -23.083  -5.393  -2.648  0.00  0.00     0.275 HD
HETATM   28  H           1     -22.845  -6.437  -1.320  0.00  0.00     0.275 HD
HETATM   29  H           1     -21.934  -4.999  -1.449  0.00  0.00     0.275 HD
ENDBRANCH  21  26
ENDBRANCH  19  21
ENDBRANCH   1  17
TORSDOF 11
ENDMDL
MODEL 6
REMARK VINA RESULT:      -5.9      4.236      9.744
REMARK  11 active torsions:
REMARK  status: ('A' for Active; 'I' for Inactive)
REMARK    1  A    between atoms: C_2  and  C_13 
REMARK    2  A    between atoms: C_2  and  C_18 
REMARK    3  A    between atoms: C_2  and  N_7 
REMARK       I    between atoms: N_5  and  C_15 
REMARK    4  A    between atoms: C_6  and  C_18 
REMARK    5  A    between atoms: C_6  and  S_19 
REMARK    6  A    between atoms: C_8  and  C_9 
REMARK    7  A    between atoms: C_8  and  C_17 
REMARK    8  A    between atoms: C_8  and  N_11 
REMARK    9  A    between atoms: C_9  and  C_14 
REMARK       I    between atoms: N_11  and  C_13 
REMARK   10  A    between atoms: C_14  and  C_26 
REMARK       I    between atoms: C_15  and  N_24 
REMARK   11  A    between atoms: N_24  and  C_26 
ROOT
HETATM    1  C           1     -20.825  -6.787  -4.990  0.00  0.00     0.185 C 
ENDROOT
BRANCH   1   2
HETATM    2  C           1     -21.980  -6.687  -4.003  0.00  0.00     0.038 C 
BRANCH   2   3
HETATM    3  C           1     -21.471  -6.135  -2.678  0.00  0.00     0.023 C 
BRANCH   3   4
HETATM    4  C           1     -22.350  -6.646  -1.543  0.00  0.00     0.138 C 
BRANCH   4   5
HETATM    5  N           1     -21.568  -7.547  -0.685  0.00  0.00    -0.227 N 
HETATM    6  H           1     -20.549  -7.704  -0.879  0.00  0.00     0.177 HD
HETATM    7  C           1     -22.125  -8.135   0.289  0.00  0.00     0.665 C 
HETATM    8  N           1     -21.434  -8.932   1.049  0.00  0.00    -0.235 N 
HETATM    9  N           1     -23.355  -7.946   0.523  0.00  0.00    -0.235 N 
HETATM   10  H           1     -20.420  -9.088   0.855  0.00  0.00     0.174 HD
HETATM   11  H           1     -21.894  -9.416   1.852  0.00  0.00     0.174 HD
HETATM   12  H           1     -23.816  -8.433   1.330  0.00  0.00     0.174 HD
HETATM   13  H           1     -23.913  -7.302  -0.090  0.00  0.00     0.174 HD
ENDBRANCH   4   5
ENDBRANCH   3   4
ENDBRANCH   2   3
ENDBRANCH   1   2
BRANCH   1  14
HETATM   14  C           1     -20.344  -8.215  -5.060  0.00  0.00     0.196 C 
HETATM   15  O           1     -19.336  -8.568  -4.410  0.00  0.00    -0.646 OA
HETATM   16  O           1     -20.952  -9.045  -5.768  0.00  0.00    -0.646 OA
ENDBRANCH   1  14
BRANCH   1  17
HETATM   17  N           1     -21.274  -6.364  -6.302  0.00  0.00    -0.345 N 
HETATM   18  H           1     -21.765  -7.013  -6.903  0.00  0.00     0.163 HD
HETATM   19  C           1     -21.033  -5.084  -6.729  0.00  0.00     0.249 C 
HETATM   20  O           1     -20.447  -4.310  -6.012  0.00  0.00    -0.271 OA
BRANCH  19  21
HETATM   21  C           1     -21.500  -4.644  -8.095  0.00  0.00     0.275 C 
BRANCH  21  22
HETATM   22  C           1     -20.322  -4.081  -8.877  0.00  0.00     0.053 C 
BRANCH  22  23
HETATM   23  C           1     -20.377  -4.588 -10.314  0.00  0.00     0.076 C 
BRANCH  23  24
HETATM   24  S           1     -21.255  -3.382 -11.348  0.00  0.00    -0.173 SA
HETATM   25  C           1     -22.751  -4.380 -11.590  0.00  0.00     0.089 C 
ENDBRANCH  23  24
ENDBRANCH  22  23
ENDBRANCH  21  22
BRANCH  21  26
HETATM   26  N           1     -22.552  -3.586  -7.945  0.00  0.00    -0.066 N 
HETATM   27  H           1     -22.747  -3.429  -6.930  0.00  0.00     0.275 HD
HETATM   28  H           1     -22.215  -2.695  -8.375  0.00  0.00     0.275 HD
HETATM   29  H           1     -23.428  -3.896  -8.423  0.00  0.00     0.275 HD
ENDBRANCH  21  26
ENDBRANCH  19  21
ENDBRANCH   1  17
TORSDOF 11
ENDMDL
MODEL 7
REMARK VINA RESULT:      -5.9      3.734      9.372
REMARK  11 active torsions:
REMARK  status: ('A' for Active; 'I' for Inactive)
REMARK    1  A    between atoms: C_2  and  C_13 
REMARK    2  A    between atoms: C_2  and  C_18 
REMARK    3  A    between atoms: C_2  and  N_7 
REMARK       I    between atoms: N_5  and  C_15 
REMARK    4  A    between atoms: C_6  and  C_18 
REMARK    5  A    between atoms: C_6  and  S_19 
REMARK    6  A    between atoms: C_8  and  C_9 
REMARK    7  A    between atoms: C_8  and  C_17 
REMARK    8  A    between atoms: C_8  and  N_11 
REMARK    9  A    between atoms: C_9  and  C_14 
REMARK       I    between atoms: N_11  and  C_13 
REMARK   10  A    between atoms: C_14  and  C_26 
REMARK       I    between atoms: C_15  and  N_24 
REMARK   11  A    between atoms: N_24  and  C_26 
ROOT
HETATM    1  C           1     -21.401  -5.329  -6.052  0.00  0.00     0.185 C 
ENDROOT
BRANCH   1   2
HETATM    2  C           1     -21.883  -6.360  -5.039  0.00  0.00     0.038 C 
BRANCH   2   3
HETATM    3  C           1     -21.284  -6.051  -3.674  0.00  0.00     0.023 C 
BRANCH   3   4
HETATM    4  C           1     -21.303  -7.308  -2.814  0.00  0.00     0.138 C 
BRANCH   4   5
HETATM    5  N           1     -22.056  -7.047  -1.579  0.00  0.00    -0.227 N 
HETATM    6  H           1     -22.376  -6.073  -1.355  0.00  0.00     0.177 HD
HETATM    7  C           1     -22.320  -7.999  -0.786  0.00  0.00     0.665 C 
HETATM    8  N           1     -22.987  -7.768   0.306  0.00  0.00    -0.235 N 
HETATM    9  N           1     -21.935  -9.174  -1.056  0.00  0.00    -0.235 N 
HETATM   10  H           1     -23.304  -6.798   0.529  0.00  0.00     0.174 HD
HETATM   11  H           1     -23.204  -8.553   0.961  0.00  0.00     0.174 HD
HETATM   12  H           1     -22.154  -9.962  -0.398  0.00  0.00     0.174 HD
HETATM   13  H           1     -21.396  -9.360  -1.938  0.00  0.00     0.174 HD
ENDBRANCH   4   5
ENDBRANCH   3   4
ENDBRANCH   2   3
ENDBRANCH   1   2
BRANCH   1  14
HETATM   14  C           1     -19.992  -5.661  -6.476  0.00  0.00     0.196 C 
HETATM   15  O           1     -19.123  -4.763  -6.515  0.00  0.00    -0.646 OA
HETATM   16  O           1     -19.693  -6.833  -6.790  0.00  0.00    -0.646 OA
ENDBRANCH   1  14
BRANCH   1  17
HETATM   17  N           1     -22.272  -5.348  -7.211  0.00  0.00    -0.345 N 
HETATM   18  H           1     -22.777  -6.191  -7.451  0.00  0.00     0.163 HD
HETATM   19  C           1     -22.412  -4.224  -7.981  0.00  0.00     0.249 C 
HETATM   20  O           1     -21.809  -3.218  -7.694  0.00  0.00    -0.271 OA
BRANCH  19  21
HETATM   21  C           1     -23.318  -4.243  -9.187  0.00  0.00     0.275 C 
BRANCH  21  22
HETATM   22  C           1     -22.591  -3.636 -10.379  0.00  0.00     0.053 C 
BRANCH  22  23
HETATM   23  C           1     -23.104  -4.271 -11.665  0.00  0.00     0.076 C 
BRANCH  23  24
HETATM   24  S           1     -24.186  -3.097 -12.530  0.00  0.00    -0.173 SA
HETATM   25  C           1     -23.080  -2.809 -13.939  0.00  0.00     0.089 C 
ENDBRANCH  23  24
ENDBRANCH  22  23
ENDBRANCH  21  22
BRANCH  21  26
HETATM   26  N           1     -24.554  -3.446  -8.896  0.00  0.00    -0.066 N 
HETATM   27  H           1     -25.238  -4.041  -8.376  0.00  0.00     0.275 HD
HETATM   28  H           1     -24.304  -2.615  -8.313  0.00  0.00     0.275 HD
HETATM   29  H           1     -24.983  -3.127  -9.794  0.00  0.00     0.275 HD
ENDBRANCH  21  26
ENDBRANCH  19  21
ENDBRANCH   1  17
TORSDOF 11
ENDMDL
MODEL 8
REMARK VINA RESULT:      -5.8     11.057     12.662
REMARK  11 active torsions:
REMARK  status: ('A' for Active; 'I' for Inactive)
REMARK    1  A    between atoms: C_2  and  C_13 
REMARK    2  A    between atoms: C_2  and  C_18 
REMARK    3  A    between atoms: C_2  and  N_7 
REMARK       I    between atoms: N_5  and  C_15 
REMARK    4  A    between atoms: C_6  and  C_18 
REMARK    5  A    between atoms: C_6  and  S_19 
REMARK    6  A    between atoms: C_8  and  C_9 
REMARK    7  A    between atoms: C_8  and  C_17 
REMARK    8  A    between atoms: C_8  and  N_11 
REMARK    9  A    between atoms: C_9  and  C_14 
REMARK       I    between atoms: N_11  and  C_13 
REMARK   10  A    between atoms: C_14  and  C_26 
REMARK       I    between atoms: C_15  and  N_24 
REMARK   11  A    between atoms: N_24  and  C_26 
ROOT
HETATM    1  C           1     -28.744  -6.658 -17.851  0.00  0.00     0.185 C 
ENDROOT
BRANCH   1   2
HETATM    2  C           1     -29.681  -5.582 -18.384  0.00  0.00     0.038 C 
BRANCH   2   3
HETATM    3  C           1     -31.067  -5.770 -17.780  0.00  0.00     0.023 C 
BRANCH   3   4
HETATM    4  C           1     -31.268  -4.771 -16.648  0.00  0.00     0.138 C 
BRANCH   4   5
HETATM    5  N           1     -32.191  -3.714 -17.084  0.00  0.00    -0.227 N 
HETATM    6  H           1     -31.847  -2.939 -17.703  0.00  0.00     0.177 HD
HETATM    7  C           1     -33.402  -3.738 -16.712  0.00  0.00     0.665 C 
HETATM    8  N           1     -34.218  -2.802 -17.097  0.00  0.00    -0.235 N 
HETATM    9  N           1     -33.816  -4.672 -15.966  0.00  0.00    -0.235 N 
HETATM   10  H           1     -33.875  -2.031 -17.713  0.00  0.00     0.174 HD
HETATM   11  H           1     -35.217  -2.822 -16.790  0.00  0.00     0.174 HD
HETATM   12  H           1     -34.820  -4.692 -15.658  0.00  0.00     0.174 HD
HETATM   13  H           1     -33.157  -5.428 -15.654  0.00  0.00     0.174 HD
ENDBRANCH   4   5
ENDBRANCH   3   4
ENDBRANCH   2   3
ENDBRANCH   1   2
BRANCH   1  14
HETATM   14  C           1     -29.464  -7.983 -17.821  0.00  0.00     0.196 C 
HETATM   15  O           1     -29.967  -8.446 -18.867  0.00  0.00    -0.646 OA
HETATM   16  O           1     -29.558  -8.619 -16.749  0.00  0.00    -0.646 OA
ENDBRANCH   1  14
BRANCH   1  17
HETATM   17  N           1     -27.584  -6.758 -18.716  0.00  0.00    -0.345 N 
HETATM   18  H           1     -27.687  -7.101 -19.662  0.00  0.00     0.163 HD
HETATM   19  C           1     -26.350  -6.388 -18.252  0.00  0.00     0.249 C 
HETATM   20  O           1     -26.229  -5.979 -17.122  0.00  0.00    -0.271 OA
BRANCH  19  21
HETATM   21  C           1     -25.143  -6.492 -19.151  0.00  0.00     0.275 C 
BRANCH  21  22
HETATM   22  C           1     -25.572  -6.997 -20.521  0.00  0.00     0.053 C 
BRANCH  22  23
HETATM   23  C           1     -24.667  -8.148 -20.946  0.00  0.00     0.076 C 
BRANCH  23  24
HETATM   24  S           1     -23.910  -7.762 -22.550  0.00  0.00    -0.173 SA
HETATM   25  C           1     -22.392  -8.721 -22.288  0.00  0.00     0.089 C 
ENDBRANCH  23  24
ENDBRANCH  22  23
ENDBRANCH  21  22
BRANCH  21  26
HETATM   26  N           1     -24.156  -7.450 -18.552  0.00  0.00    -0.066 N 
HETATM   27  H           1     -23.797  -8.092 -19.295  0.00  0.00     0.275 HD
HETATM   28  H           1     -23.358  -6.917 -18.140  0.00  0.00     0.275 HD
HETATM   29  H           1     -24.624  -8.011 -17.805  0.00  0.00     0.275 HD
ENDBRANCH  21  26
ENDBRANCH  19  21
ENDBRANCH   1  17
TORSDOF 11
ENDMDL
MODEL 9
REMARK VINA RESULT:      -5.6      3.924      5.914
REMARK  11 active torsions:
REMARK  status: ('A' for Active; 'I' for Inactive)
REMARK    1  A    between atoms: C_2  and  C_13 
REMARK    2  A    between atoms: C_2  and  C_18 
REMARK    3  A    between atoms: C_2  and  N_7 
REMARK       I    between atoms: N_5  and  C_15 
REMARK    4  A    between atoms: C_6  and  C_18 
REMARK    5  A    between atoms: C_6  and  S_19 
REMARK    6  A    between atoms: C_8  and  C_9 
REMARK    7  A    between atoms: C_8  and  C_17 
REMARK    8  A    between atoms: C_8  and  N_11 
REMARK    9  A    between atoms: C_9  and  C_14 
REMARK       I    between atoms: N_11  and  C_13 
REMARK   10  A    between atoms: C_14  and  C_26 
REMARK       I    between atoms: C_15  and  N_24 
REMARK   11  A    between atoms: N_24  and  C_26 
ROOT
HETATM    1  C           1     -20.892  -6.932  -5.518  0.00  0.00     0.185 C 
ENDROOT
BRANCH   1   2
HETATM    2  C           1     -20.624  -6.147  -6.795  0.00  0.00     0.038 C 
BRANCH   2   3
HETATM    3  C           1     -20.130  -4.751  -6.440  0.00  0.00     0.023 C 
BRANCH   3   4
HETATM    4  C           1     -20.720  -3.740  -7.414  0.00  0.00     0.138 C 
BRANCH   4   5
HETATM    5  N           1     -22.188  -3.818  -7.375  0.00  0.00    -0.227 N 
HETATM    6  H           1     -22.688  -3.836  -6.452  0.00  0.00     0.177 HD
HETATM    7  C           1     -22.848  -3.865  -8.454  0.00  0.00     0.665 C 
HETATM    8  N           1     -24.146  -3.934  -8.419  0.00  0.00    -0.235 N 
HETATM    9  N           1     -22.245  -3.843  -9.567  0.00  0.00    -0.235 N 
HETATM   10  H           1     -24.643  -3.952  -7.500  0.00  0.00     0.174 HD
HETATM   11  H           1     -24.691  -3.972  -9.310  0.00  0.00     0.174 HD
HETATM   12  H           1     -22.793  -3.882 -10.461  0.00  0.00     0.174 HD
HETATM   13  H           1     -21.197  -3.787  -9.595  0.00  0.00     0.174 HD
ENDBRANCH   4   5
ENDBRANCH   3   4
ENDBRANCH   2   3
ENDBRANCH   1   2
BRANCH   1  14
HETATM   14  C           1     -22.021  -6.284  -4.755  0.00  0.00     0.196 C 
HETATM   15  O           1     -23.067  -5.948  -5.352  0.00  0.00    -0.646 OA
HETATM   16  O           1     -21.910  -6.082  -3.527  0.00  0.00    -0.646 OA
ENDBRANCH   1  14
BRANCH   1  17
HETATM   17  N           1     -21.258  -8.294  -5.857  0.00  0.00    -0.345 N 
HETATM   18  H           1     -21.945  -8.469  -6.578  0.00  0.00     0.163 HD
HETATM   19  C           1     -20.671  -9.344  -5.200  0.00  0.00     0.249 C 
HETATM   20  O           1     -19.851  -9.134  -4.340  0.00  0.00    -0.271 OA
BRANCH  19  21
HETATM   21  C           1     -21.051 -10.761  -5.552  0.00  0.00     0.275 C 
BRANCH  21  22
HETATM   22  C           1     -21.038 -11.618  -4.295  0.00  0.00     0.053 C 
BRANCH  22  23
HETATM   23  C           1     -22.469 -11.862  -3.830  0.00  0.00     0.076 C 
BRANCH  23  24
HETATM   24  S           1     -22.709 -11.113  -2.194  0.00  0.00    -0.173 SA
HETATM   25  C           1     -20.975 -11.221  -1.670  0.00  0.00     0.089 C 
ENDBRANCH  23  24
ENDBRANCH  22  23
ENDBRANCH  21  22
BRANCH  21  26
HETATM   26  N           1     -20.067 -11.310  -6.542  0.00  0.00    -0.066 N 
HETATM   27  H           1     -19.193 -11.592  -6.045  0.00  0.00     0.275 HD
HETATM   28  H           1     -20.480 -12.143  -7.019  0.00  0.00     0.275 HD
HETATM   29  H           1     -19.842 -10.577  -7.253  0.00  0.00     0.275 HD
ENDBRANCH  21  26
ENDBRANCH  19  21
ENDBRANCH   1  17
TORSDOF 11
ENDMDL
