MODEL 1
REMARK VINA RESULT:      -7.8      0.000      0.000
REMARK  11 active torsions:
REMARK  status: ('A' for Active; 'I' for Inactive)
REMARK       I    between atoms: C_1  and  N_15 
REMARK    1  A    between atoms: C_1  and  C_13 
REMARK    2  A    between atoms: C_3  and  C_4 
REMARK    3  A    between atoms: C_4  and  C_5 
REMARK    4  A    between atoms: C_5  and  C_7 
REMARK    5  A    between atoms: C_5  and  N_15 
REMARK    6  A    between atoms: C_13  and  C_23 
REMARK    7  A    between atoms: C_13  and  N_30 
REMARK    8  A    between atoms: O_14  and  P_20 
REMARK    9  A    between atoms: C_18  and  O_19 
REMARK   10  A    between atoms: O_19  and  P_20 
REMARK   11  A    between atoms: C_23  and  C_25 
ROOT
HETATM    1  C           1     -21.610  -6.874  -5.394  0.00  0.00     0.189 C 
ENDROOT
BRANCH   1   2
HETATM    2  C           1     -20.617  -5.792  -5.796  0.00  0.00     0.074 C 
BRANCH   2   3
HETATM    3  C           1     -21.074  -5.140  -7.064  0.00  0.00    -0.056 A 
HETATM    4  C           1     -20.260  -5.165  -8.194  0.00  0.00     0.010 A 
HETATM    5  C           1     -20.686  -4.558  -9.375  0.00  0.00     0.038 A 
HETATM    6  C           1     -21.928  -3.925  -9.425  0.00  0.00     0.081 A 
HETATM    7  C           1     -22.744  -3.900  -8.293  0.00  0.00     0.038 A 
HETATM    8  C           1     -22.317  -4.508  -7.112  0.00  0.00     0.010 A 
BRANCH   6   9
HETATM    9  O           1     -22.343  -3.335 -10.572  0.00  0.00    -0.247 OA
BRANCH   9  10
HETATM   10  P           1     -23.610  -3.977 -11.340  0.00  0.00     0.411 P 
HETATM   11  O           1     -24.822  -3.181 -11.044  0.00  0.00    -0.624 OA
HETATM   12  O           1     -23.811  -5.370 -10.884  0.00  0.00    -0.624 OA
BRANCH  10  13
HETATM   13  O           1     -23.336  -3.964 -12.932  0.00  0.00    -0.300 OA
HETATM   14  H           1     -23.109  -3.071 -13.133  0.00  0.00     0.223 HD
ENDBRANCH  10  13
ENDBRANCH   9  10
ENDBRANCH   6   9
ENDBRANCH   2   3
ENDBRANCH   1   2
BRANCH   1  15
HETATM   15  C           1     -20.865  -8.142  -5.058  0.00  0.00     0.197 C 
HETATM   16  O           1     -19.630  -8.109  -4.865  0.00  0.00    -0.646 OA
HETATM   17  O           1     -21.482  -9.226  -4.972  0.00  0.00    -0.646 OA
ENDBRANCH   1  15
BRANCH   1  18
HETATM   18  N           1     -22.361  -6.434  -4.235  0.00  0.00    -0.344 N 
HETATM   19  C           1     -21.740  -6.314  -3.021  0.00  0.00     0.249 C 
HETATM   20  O           1     -21.224  -5.270  -2.706  0.00  0.00    -0.271 OA
HETATM   21  H           1     -23.345  -6.213  -4.323  0.00  0.00     0.163 HD
BRANCH  19  22
HETATM   22  C           1     -21.701  -7.491  -2.076  0.00  0.00     0.284 C 
BRANCH  22  23
HETATM   23  C           1     -22.413  -7.126  -0.780  0.00  0.00     0.155 C 
BRANCH  23  24
HETATM   24  C           1     -22.371  -8.301   0.166  0.00  0.00     0.175 C 
HETATM   25  O           1     -23.232  -9.203   0.080  0.00  0.00    -0.648 OA
HETATM   26  O           1     -21.475  -8.374   1.035  0.00  0.00    -0.648 OA
ENDBRANCH  23  24
ENDBRANCH  22  23
BRANCH  22  27
HETATM   27  N           1     -20.274  -7.846  -1.778  0.00  0.00    -0.066 N 
HETATM   28  H           1     -20.208  -8.248  -0.817  0.00  0.00     0.275 HD
HETATM   29  H           1     -19.939  -8.548  -2.474  0.00  0.00     0.275 HD
HETATM   30  H           1     -19.682  -6.986  -1.837  0.00  0.00     0.275 HD
ENDBRANCH  22  27
ENDBRANCH  19  22
ENDBRANCH   1  18
TORSDOF 11
ENDMDL
MODEL 2
REMARK VINA RESULT:      -7.8      1.879      2.650
REMARK  11 active torsions:
REMARK  status: ('A' for Active; 'I' for Inactive)
REMARK       I    between atoms: C_1  and  N_15 
REMARK    1  A    between atoms: C_1  and  C_13 
REMARK    2  A    between atoms: C_3  and  C_4 
REMARK    3  A    between atoms: C_4  and  C_5 
REMARK    4  A    between atoms: C_5  and  C_7 
REMARK    5  A    between atoms: C_5  and  N_15 
REMARK    6  A    between atoms: C_13  and  C_23 
REMARK    7  A    between atoms: C_13  and  N_30 
REMARK    8  A    between atoms: O_14  and  P_20 
REMARK    9  A    between atoms: C_18  and  O_19 
REMARK   10  A    between atoms: O_19  and  P_20 
REMARK   11  A    between atoms: C_23  and  C_25 
ROOT
HETATM    1  C           1     -21.158  -6.020  -7.189  0.00  0.00     0.189 C 
ENDROOT
BRANCH   1   2
HETATM    2  C           1     -21.772  -4.631  -7.080  0.00  0.00     0.074 C 
BRANCH   2   3
HETATM    3  C           1     -22.073  -4.108  -8.450  0.00  0.00    -0.056 A 
HETATM    4  C           1     -21.052  -3.998  -9.394  0.00  0.00     0.010 A 
HETATM    5  C           1     -21.333  -3.511 -10.670  0.00  0.00     0.038 A 
HETATM    6  C           1     -22.633  -3.134 -11.003  0.00  0.00     0.081 A 
HETATM    7  C           1     -23.655  -3.245 -10.059  0.00  0.00     0.038 A 
HETATM    8  C           1     -23.374  -3.732  -8.782  0.00  0.00     0.010 A 
BRANCH   6   9
HETATM    9  O           1     -22.906  -2.661 -12.243  0.00  0.00    -0.247 OA
BRANCH   9  10
HETATM   10  P           1     -23.952  -3.485 -13.156  0.00  0.00     0.411 P 
HETATM   11  O           1     -23.646  -3.258 -14.586  0.00  0.00    -0.624 OA
HETATM   12  O           1     -25.329  -3.025 -12.867  0.00  0.00    -0.624 OA
BRANCH  10  13
HETATM   13  O           1     -23.829  -5.061 -12.825  0.00  0.00    -0.300 OA
HETATM   14  H           1     -23.078  -5.134 -12.261  0.00  0.00     0.223 HD
ENDBRANCH  10  13
ENDBRANCH   9  10
ENDBRANCH   6   9
ENDBRANCH   2   3
ENDBRANCH   1   2
BRANCH   1  15
HETATM   15  C           1     -19.698  -5.957  -6.811  0.00  0.00     0.197 C 
HETATM   16  O           1     -19.144  -4.849  -6.642  0.00  0.00    -0.646 OA
HETATM   17  O           1     -19.044  -7.012  -6.666  0.00  0.00    -0.646 OA
ENDBRANCH   1  15
BRANCH   1  18
HETATM   18  N           1     -21.850  -6.926  -6.294  0.00  0.00    -0.344 N 
HETATM   19  C           1     -22.348  -6.466  -5.105  0.00  0.00     0.249 C 
HETATM   20  O           1     -23.473  -6.032  -5.048  0.00  0.00    -0.271 OA
HETATM   21  H           1     -21.966  -7.899  -6.548  0.00  0.00     0.163 HD
BRANCH  19  22
HETATM   22  C           1     -21.489  -6.500  -3.864  0.00  0.00     0.284 C 
BRANCH  22  23
HETATM   23  C           1     -20.970  -7.915  -3.644  0.00  0.00     0.155 C 
BRANCH  23  24
HETATM   24  C           1     -21.065  -8.264  -2.179  0.00  0.00     0.175 C 
HETATM   25  O           1     -20.224  -7.811  -1.373  0.00  0.00    -0.648 OA
HETATM   26  O           1     -21.984  -9.007  -1.770  0.00  0.00    -0.648 OA
ENDBRANCH  23  24
ENDBRANCH  22  23
BRANCH  22  27
HETATM   27  N           1     -22.306  -6.079  -2.678  0.00  0.00    -0.066 N 
HETATM   28  H           1     -22.190  -5.052  -2.522  0.00  0.00     0.275 HD
HETATM   29  H           1     -23.312  -6.293  -2.856  0.00  0.00     0.275 HD
HETATM   30  H           1     -21.983  -6.598  -1.831  0.00  0.00     0.275 HD
ENDBRANCH  22  27
ENDBRANCH  19  22
ENDBRANCH   1  18
TORSDOF 11
ENDMDL
MODEL 3
REMARK VINA RESULT:      -7.2      3.406      8.789
REMARK  11 active torsions:
REMARK  status: ('A' for Active; 'I' for Inactive)
REMARK       I    between atoms: C_1  and  N_15 
REMARK    1  A    between atoms: C_1  and  C_13 
REMARK    2  A    between atoms: C_3  and  C_4 
REMARK    3  A    between atoms: C_4  and  C_5 
REMARK    4  A    between atoms: C_5  and  C_7 
REMARK    5  A    between atoms: C_5  and  N_15 
REMARK    6  A    between atoms: C_13  and  C_23 
REMARK    7  A    between atoms: C_13  and  N_30 
REMARK    8  A    between atoms: O_14  and  P_20 
REMARK    9  A    between atoms: C_18  and  O_19 
REMARK   10  A    between atoms: O_19  and  P_20 
REMARK   11  A    between atoms: C_23  and  C_25 
ROOT
HETATM    1  C           1     -20.946  -4.834  -6.448  0.00  0.00     0.189 C 
ENDROOT
BRANCH   1   2
HETATM    2  C           1     -21.874  -6.023  -6.239  0.00  0.00     0.074 C 
BRANCH   2   3
HETATM    3  C           1     -21.619  -6.624  -4.892  0.00  0.00    -0.056 A 
HETATM    4  C           1     -21.326  -5.802  -3.805  0.00  0.00     0.010 A 
HETATM    5  C           1     -21.088  -6.362  -2.550  0.00  0.00     0.038 A 
HETATM    6  C           1     -21.143  -7.746  -2.382  0.00  0.00     0.081 A 
HETATM    7  C           1     -21.437  -8.569  -3.470  0.00  0.00     0.038 A 
HETATM    8  C           1     -21.674  -8.008  -4.725  0.00  0.00     0.010 A 
BRANCH   6   9
HETATM    9  O           1     -20.913  -8.291  -1.164  0.00  0.00    -0.247 OA
BRANCH   9  10
HETATM   10  P           1     -22.149  -8.389  -0.130  0.00  0.00     0.411 P 
HETATM   11  O           1     -22.927  -9.618  -0.404  0.00  0.00    -0.624 OA
HETATM   12  O           1     -23.023  -7.205  -0.291  0.00  0.00    -0.624 OA
BRANCH  10  13
HETATM   13  O           1     -21.583  -8.439   1.382  0.00  0.00    -0.300 OA
HETATM   14  H           1     -21.254  -7.572   1.549  0.00  0.00     0.223 HD
ENDBRANCH  10  13
ENDBRANCH   9  10
ENDBRANCH   6   9
ENDBRANCH   2   3
ENDBRANCH   1   2
BRANCH   1  15
HETATM   15  C           1     -19.662  -5.303  -7.086  0.00  0.00     0.197 C 
HETATM   16  O           1     -19.516  -6.508  -7.385  0.00  0.00    -0.646 OA
HETATM   17  O           1     -18.743  -4.486  -7.314  0.00  0.00    -0.646 OA
ENDBRANCH   1  15
BRANCH   1  18
HETATM   18  N           1     -21.591  -3.866  -7.315  0.00  0.00    -0.344 N 
HETATM   19  C           1     -22.584  -4.265  -8.168  0.00  0.00     0.249 C 
HETATM   20  O           1     -23.735  -4.252  -7.803  0.00  0.00    -0.271 OA
HETATM   21  H           1     -21.306  -2.895  -7.289  0.00  0.00     0.163 HD
BRANCH  19  22
HETATM   22  C           1     -22.240  -4.722  -9.564  0.00  0.00     0.284 C 
BRANCH  22  23
HETATM   23  C           1     -21.474  -3.620 -10.285  0.00  0.00     0.155 C 
BRANCH  23  24
HETATM   24  C           1     -22.182  -3.273 -11.571  0.00  0.00     0.175 C 
HETATM   25  O           1     -21.817  -3.795 -12.647  0.00  0.00    -0.648 OA
HETATM   26  O           1     -23.134  -2.462 -11.562  0.00  0.00    -0.648 OA
ENDBRANCH  23  24
ENDBRANCH  22  23
BRANCH  22  27
HETATM   27  N           1     -23.502  -5.025 -10.317  0.00  0.00    -0.066 N 
HETATM   28  H           1     -24.272  -4.408  -9.971  0.00  0.00     0.275 HD
HETATM   29  H           1     -23.349  -4.853 -11.335  0.00  0.00     0.275 HD
HETATM   30  H           1     -23.765  -6.025 -10.167  0.00  0.00     0.275 HD
ENDBRANCH  22  27
ENDBRANCH  19  22
ENDBRANCH   1  18
TORSDOF 11
ENDMDL
MODEL 4
REMARK VINA RESULT:      -6.8      3.496      8.896
REMARK  11 active torsions:
REMARK  status: ('A' for Active; 'I' for Inactive)
REMARK       I    between atoms: C_1  and  N_15 
REMARK    1  A    between atoms: C_1  and  C_13 
REMARK    2  A    between atoms: C_3  and  C_4 
REMARK    3  A    between atoms: C_4  and  C_5 
REMARK    4  A    between atoms: C_5  and  C_7 
REMARK    5  A    between atoms: C_5  and  N_15 
REMARK    6  A    between atoms: C_13  and  C_23 
REMARK    7  A    between atoms: C_13  and  N_30 
REMARK    8  A    between atoms: O_14  and  P_20 
REMARK    9  A    between atoms: C_18  and  O_19 
REMARK   10  A    between atoms: O_19  and  P_20 
REMARK   11  A    between atoms: C_23  and  C_25 
ROOT
HETATM    1  C           1     -21.114  -5.170  -8.351  0.00  0.00     0.189 C 
ENDROOT
BRANCH   1   2
HETATM    2  C           1     -19.968  -5.457  -7.389  0.00  0.00     0.074 C 
BRANCH   2   3
HETATM    3  C           1     -20.519  -5.960  -6.091  0.00  0.00    -0.056 A 
HETATM    4  C           1     -21.191  -7.180  -6.045  0.00  0.00     0.010 A 
HETATM    5  C           1     -21.705  -7.648  -4.836  0.00  0.00     0.038 A 
HETATM    6  C           1     -21.546  -6.896  -3.673  0.00  0.00     0.081 A 
HETATM    7  C           1     -20.873  -5.674  -3.718  0.00  0.00     0.038 A 
HETATM    8  C           1     -20.360  -5.207  -4.928  0.00  0.00     0.010 A 
BRANCH   6   9
HETATM    9  O           1     -22.044  -7.350  -2.498  0.00  0.00    -0.247 OA
BRANCH   9  10
HETATM   10  P           1     -21.245  -8.530  -1.740  0.00  0.00     0.411 P 
HETATM   11  O           1     -21.910  -9.826  -2.002  0.00  0.00    -0.624 OA
HETATM   12  O           1     -21.236  -8.266  -0.284  0.00  0.00    -0.624 OA
BRANCH  10  13
HETATM   13  O           1     -19.726  -8.587  -2.287  0.00  0.00    -0.300 OA
HETATM   14  H           1     -19.801  -8.524  -3.224  0.00  0.00     0.223 HD
ENDBRANCH  10  13
ENDBRANCH   9  10
ENDBRANCH   6   9
ENDBRANCH   2   3
ENDBRANCH   1   2
BRANCH   1  15
HETATM   15  C           1     -21.948  -4.033  -7.814  0.00  0.00     0.197 C 
HETATM   16  O           1     -21.392  -3.035  -7.308  0.00  0.00    -0.646 OA
HETATM   17  O           1     -23.195  -4.090  -7.877  0.00  0.00    -0.646 OA
ENDBRANCH   1  15
BRANCH   1  18
HETATM   18  N           1     -20.576  -4.805  -9.647  0.00  0.00    -0.344 N 
HETATM   19  C           1     -21.280  -3.968 -10.469  0.00  0.00     0.249 C 
HETATM   20  O           1     -21.114  -2.774 -10.402  0.00  0.00    -0.271 OA
HETATM   21  H           1     -19.679  -5.169  -9.943  0.00  0.00     0.163 HD
BRANCH  19  22
HETATM   22  C           1     -22.265  -4.538 -11.460  0.00  0.00     0.284 C 
BRANCH  22  23
HETATM   23  C           1     -22.644  -3.467 -12.474  0.00  0.00     0.155 C 
BRANCH  23  24
HETATM   24  C           1     -24.123  -3.550 -12.766  0.00  0.00     0.175 C 
HETATM   25  O           1     -24.941  -2.969 -12.020  0.00  0.00    -0.648 OA
HETATM   26  O           1     -24.530  -4.201 -13.752  0.00  0.00    -0.648 OA
ENDBRANCH  23  24
ENDBRANCH  22  23
BRANCH  22  27
HETATM   27  N           1     -23.496  -4.996 -10.735  0.00  0.00    -0.066 N 
HETATM   28  H           1     -24.247  -5.217 -11.427  0.00  0.00     0.275 HD
HETATM   29  H           1     -23.273  -5.851 -10.179  0.00  0.00     0.275 HD
HETATM   30  H           1     -23.825  -4.239 -10.095  0.00  0.00     0.275 HD
ENDBRANCH  22  27
ENDBRANCH  19  22
ENDBRANCH   1  18
TORSDOF 11
ENDMDL
MODEL 5
REMARK VINA RESULT:      -6.7      2.561      4.563
REMARK  11 active torsions:
REMARK  status: ('A' for Active; 'I' for Inactive)
REMARK       I    between atoms: C_1  and  N_15 
REMARK    1  A    between atoms: C_1  and  C_13 
REMARK    2  A    between atoms: C_3  and  C_4 
REMARK    3  A    between atoms: C_4  and  C_5 
REMARK    4  A    between atoms: C_5  and  C_7 
REMARK    5  A    between atoms: C_5  and  N_15 
REMARK    6  A    between atoms: C_13  and  C_23 
REMARK    7  A    between atoms: C_13  and  N_30 
REMARK    8  A    between atoms: O_14  and  P_20 
REMARK    9  A    between atoms: C_18  and  O_19 
REMARK   10  A    between atoms: O_19  and  P_20 
REMARK   11  A    between atoms: C_23  and  C_25 
ROOT
HETATM    1  C           1     -20.925  -7.376  -3.707  0.00  0.00     0.189 C 
ENDROOT
BRANCH   1   2
HETATM    2  C           1     -21.961  -7.349  -4.824  0.00  0.00     0.074 C 
BRANCH   2   3
HETATM    3  C           1     -21.529  -6.381  -5.881  0.00  0.00    -0.056 A 
HETATM    4  C           1     -22.396  -5.373  -6.300  0.00  0.00     0.010 A 
HETATM    5  C           1     -21.994  -4.471  -7.285  0.00  0.00     0.038 A 
HETATM    6  C           1     -20.724  -4.579  -7.852  0.00  0.00     0.081 A 
HETATM    7  C           1     -19.856  -5.587  -7.433  0.00  0.00     0.038 A 
HETATM    8  C           1     -20.259  -6.488  -6.447  0.00  0.00     0.010 A 
BRANCH   6   9
HETATM    9  O           1     -20.333  -3.703  -8.809  0.00  0.00    -0.247 OA
BRANCH   9  10
HETATM   10  P           1     -20.581  -4.105 -10.353  0.00  0.00     0.411 P 
HETATM   11  O           1     -21.973  -4.578 -10.523  0.00  0.00    -0.624 OA
HETATM   12  O           1     -19.642  -5.181 -10.740  0.00  0.00    -0.624 OA
BRANCH  10  13
HETATM   13  O           1     -20.336  -2.812 -11.290  0.00  0.00    -0.300 OA
HETATM   14  H           1     -19.410  -2.809 -11.464  0.00  0.00     0.223 HD
ENDBRANCH  10  13
ENDBRANCH   9  10
ENDBRANCH   6   9
ENDBRANCH   2   3
ENDBRANCH   1   2
BRANCH   1  15
HETATM   15  C           1     -21.544  -6.855  -2.433  0.00  0.00     0.197 C 
HETATM   16  O           1     -21.634  -7.599  -1.432  0.00  0.00    -0.646 OA
HETATM   17  O           1     -21.967  -5.680  -2.379  0.00  0.00    -0.646 OA
ENDBRANCH   1  15
BRANCH   1  18
HETATM   18  N           1     -20.472  -8.738  -3.502  0.00  0.00    -0.344 N 
HETATM   19  C           1     -19.207  -9.102  -3.879  0.00  0.00     0.249 C 
HETATM   20  O           1     -18.292  -9.001  -3.099  0.00  0.00    -0.271 OA
HETATM   21  H           1     -21.090  -9.419  -3.080  0.00  0.00     0.163 HD
BRANCH  19  22
HETATM   22  C           1     -18.959  -9.630  -5.271  0.00  0.00     0.284 C 
BRANCH  22  23
HETATM   23  C           1     -19.849 -10.840  -5.522  0.00  0.00     0.155 C 
BRANCH  23  24
HETATM   24  C           1     -19.142 -11.802  -6.446  0.00  0.00     0.175 C 
HETATM   25  O           1     -18.707 -12.888  -6.004  0.00  0.00    -0.648 OA
HETATM   26  O           1     -18.991 -11.513  -7.653  0.00  0.00    -0.648 OA
ENDBRANCH  23  24
ENDBRANCH  22  23
BRANCH  22  27
HETATM   27  N           1     -17.520 -10.033  -5.404  0.00  0.00    -0.066 N 
HETATM   28  H           1     -17.080 -10.075  -4.457  0.00  0.00     0.275 HD
HETATM   29  H           1     -17.463 -10.973  -5.856  0.00  0.00     0.275 HD
HETATM   30  H           1     -17.015  -9.332  -5.991  0.00  0.00     0.275 HD
ENDBRANCH  22  27
ENDBRANCH  19  22
ENDBRANCH   1  18
TORSDOF 11
ENDMDL
MODEL 6
REMARK VINA RESULT:      -6.6      4.744      8.376
REMARK  11 active torsions:
REMARK  status: ('A' for Active; 'I' for Inactive)
REMARK       I    between atoms: C_1  and  N_15 
REMARK    1  A    between atoms: C_1  and  C_13 
REMARK    2  A    between atoms: C_3  and  C_4 
REMARK    3  A    between atoms: C_4  and  C_5 
REMARK    4  A    between atoms: C_5  and  C_7 
REMARK    5  A    between atoms: C_5  and  N_15 
REMARK    6  A    between atoms: C_13  and  C_23 
REMARK    7  A    between atoms: C_13  and  N_30 
REMARK    8  A    between atoms: O_14  and  P_20 
REMARK    9  A    between atoms: C_18  and  O_19 
REMARK   10  A    between atoms: O_19  and  P_20 
REMARK   11  A    between atoms: C_23  and  C_25 
ROOT
HETATM    1  C           1     -20.572  -8.756  -3.430  0.00  0.00     0.189 C 
ENDROOT
BRANCH   1   2
HETATM    2  C           1     -19.362  -8.925  -2.521  0.00  0.00     0.074 C 
BRANCH   2   3
HETATM    3  C           1     -18.188  -9.381  -3.331  0.00  0.00    -0.056 A 
HETATM    4  C           1     -16.957  -9.599  -2.714  0.00  0.00     0.010 A 
HETATM    5  C           1     -15.864 -10.024  -3.469  0.00  0.00     0.038 A 
HETATM    6  C           1     -16.002 -10.229  -4.842  0.00  0.00     0.081 A 
HETATM    7  C           1     -17.234 -10.010  -5.460  0.00  0.00     0.038 A 
HETATM    8  C           1     -18.327  -9.586  -4.704  0.00  0.00     0.010 A 
BRANCH   6   9
HETATM    9  O           1     -14.941 -10.641  -5.576  0.00  0.00    -0.247 OA
BRANCH   9  10
HETATM   10  P           1     -14.474 -12.181  -5.436  0.00  0.00     0.411 P 
HETATM   11  O           1     -15.666 -13.058  -5.401  0.00  0.00    -0.624 OA
HETATM   12  O           1     -13.698 -12.351  -4.187  0.00  0.00    -0.624 OA
BRANCH  10  13
HETATM   13  O           1     -13.553 -12.579  -6.702  0.00  0.00    -0.300 OA
HETATM   14  H           1     -12.927 -13.196  -6.364  0.00  0.00     0.223 HD
ENDBRANCH  10  13
ENDBRANCH   9  10
ENDBRANCH   6   9
ENDBRANCH   2   3
ENDBRANCH   1   2
BRANCH   1  15
HETATM   15  C           1     -21.738  -9.530  -2.867  0.00  0.00     0.197 C 
HETATM   16  O           1     -22.121  -9.318  -1.696  0.00  0.00    -0.646 OA
HETATM   17  O           1     -22.321 -10.382  -3.571  0.00  0.00    -0.646 OA
ENDBRANCH   1  15
BRANCH   1  18
HETATM   18  N           1     -20.920  -7.351  -3.514  0.00  0.00    -0.344 N 
HETATM   19  C           1     -21.322  -6.814  -4.707  0.00  0.00     0.249 C 
HETATM   20  O           1     -22.491  -6.810  -5.004  0.00  0.00    -0.271 OA
HETATM   21  H           1     -20.866  -6.766  -2.689  0.00  0.00     0.163 HD
BRANCH  19  22
HETATM   22  C           1     -20.301  -6.229  -5.652  0.00  0.00     0.284 C 
BRANCH  22  23
HETATM   23  C           1     -20.352  -4.708  -5.578  0.00  0.00     0.155 C 
BRANCH  23  24
HETATM   24  C           1     -20.871  -4.157  -6.884  0.00  0.00     0.175 C 
HETATM   25  O           1     -20.068  -3.793  -7.771  0.00  0.00    -0.648 OA
HETATM   26  O           1     -22.102  -4.065  -7.079  0.00  0.00    -0.648 OA
ENDBRANCH  23  24
ENDBRANCH  22  23
BRANCH  22  27
HETATM   27  N           1     -20.605  -6.670  -7.053  0.00  0.00    -0.066 N 
HETATM   28  H           1     -21.086  -5.897  -7.566  0.00  0.00     0.275 HD
HETATM   29  H           1     -19.715  -6.910  -7.543  0.00  0.00     0.275 HD
HETATM   30  H           1     -21.227  -7.509  -7.027  0.00  0.00     0.275 HD
ENDBRANCH  22  27
ENDBRANCH  19  22
ENDBRANCH   1  18
TORSDOF 11
ENDMDL
MODEL 7
REMARK VINA RESULT:      -6.6      3.723      7.304
REMARK  11 active torsions:
REMARK  status: ('A' for Active; 'I' for Inactive)
REMARK       I    between atoms: C_1  and  N_15 
REMARK    1  A    between atoms: C_1  and  C_13 
REMARK    2  A    between atoms: C_3  and  C_4 
REMARK    3  A    between atoms: C_4  and  C_5 
REMARK    4  A    between atoms: C_5  and  C_7 
REMARK    5  A    between atoms: C_5  and  N_15 
REMARK    6  A    between atoms: C_13  and  C_23 
REMARK    7  A    between atoms: C_13  and  N_30 
REMARK    8  A    between atoms: O_14  and  P_20 
REMARK    9  A    between atoms: C_18  and  O_19 
REMARK   10  A    between atoms: O_19  and  P_20 
REMARK   11  A    between atoms: C_23  and  C_25 
ROOT
HETATM    1  C           1     -21.524  -8.665  -1.439  0.00  0.00     0.189 C 
ENDROOT
BRANCH   1   2
HETATM    2  C           1     -20.468  -9.763  -1.438  0.00  0.00     0.074 C 
BRANCH   2   3
HETATM    3  C           1     -20.065 -10.070  -2.847  0.00  0.00    -0.056 A 
HETATM    4  C           1     -21.003 -10.575  -3.746  0.00  0.00     0.010 A 
HETATM    5  C           1     -20.627 -10.861  -5.058  0.00  0.00     0.038 A 
HETATM    6  C           1     -19.313 -10.643  -5.471  0.00  0.00     0.081 A 
HETATM    7  C           1     -18.374 -10.138  -4.571  0.00  0.00     0.038 A 
HETATM    8  C           1     -18.751  -9.851  -3.258  0.00  0.00     0.010 A 
BRANCH   6   9
HETATM    9  O           1     -18.948 -10.921  -6.745  0.00  0.00    -0.247 OA
BRANCH   9  10
HETATM   10  P           1     -18.240 -12.342  -7.039  0.00  0.00     0.411 P 
HETATM   11  O           1     -18.702 -13.340  -6.048  0.00  0.00    -0.624 OA
HETATM   12  O           1     -16.771 -12.193  -6.941  0.00  0.00    -0.624 OA
BRANCH  10  13
HETATM   13  O           1     -18.633 -12.841  -8.525  0.00  0.00    -0.300 OA
HETATM   14  H           1     -19.303 -13.491  -8.395  0.00  0.00     0.223 HD
ENDBRANCH  10  13
ENDBRANCH   9  10
ENDBRANCH   6   9
ENDBRANCH   2   3
ENDBRANCH   1   2
BRANCH   1  15
HETATM   15  C           1     -21.899  -8.324  -0.018  0.00  0.00     0.197 C 
HETATM   16  O           1     -23.025  -7.843   0.233  0.00  0.00    -0.646 OA
HETATM   17  O           1     -21.083  -8.523   0.908  0.00  0.00    -0.646 OA
ENDBRANCH   1  15
BRANCH   1  18
HETATM   18  N           1     -20.993  -7.486  -2.095  0.00  0.00    -0.344 N 
HETATM   19  C           1     -21.787  -6.754  -2.937  0.00  0.00     0.249 C 
HETATM   20  O           1     -22.450  -5.844  -2.503  0.00  0.00    -0.271 OA
HETATM   21  H           1     -20.035  -7.204  -1.931  0.00  0.00     0.163 HD
BRANCH  19  22
HETATM   22  C           1     -21.834  -7.088  -4.408  0.00  0.00     0.284 C 
BRANCH  22  23
HETATM   23  C           1     -20.430  -7.007  -4.993  0.00  0.00     0.155 C 
BRANCH  23  24
HETATM   24  C           1     -20.382  -5.917  -6.036  0.00  0.00     0.175 C 
HETATM   25  O           1     -20.542  -6.200  -7.243  0.00  0.00    -0.648 OA
HETATM   26  O           1     -20.181  -4.731  -5.693  0.00  0.00    -0.648 OA
ENDBRANCH  23  24
ENDBRANCH  22  23
BRANCH  22  27
HETATM   27  N           1     -22.726  -6.110  -5.114  0.00  0.00    -0.066 N 
HETATM   28  H           1     -23.590  -6.598  -5.441  0.00  0.00     0.275 HD
HETATM   29  H           1     -22.988  -5.341  -4.457  0.00  0.00     0.275 HD
HETATM   30  H           1     -22.221  -5.709  -5.936  0.00  0.00     0.275 HD
ENDBRANCH  22  27
ENDBRANCH  19  22
ENDBRANCH   1  18
TORSDOF 11
ENDMDL
MODEL 8
REMARK VINA RESULT:      -6.5      3.707      7.549
REMARK  11 active torsions:
REMARK  status: ('A' for Active; 'I' for Inactive)
REMARK       I    between atoms: C_1  and  N_15 
REMARK    1  A    between atoms: C_1  and  C_13 
REMARK    2  A    between atoms: C_3  and  C_4 
REMARK    3  A    between atoms: C_4  and  C_5 
REMARK    4  A    between atoms: C_5  and  C_7 
REMARK    5  A    between atoms: C_5  and  N_15 
REMARK    6  A    between atoms: C_13  and  C_23 
REMARK    7  A    between atoms: C_13  and  N_30 
REMARK    8  A    between atoms: O_14  and  P_20 
REMARK    9  A    between atoms: C_18  and  O_19 
REMARK   10  A    between atoms: O_19  and  P_20 
REMARK   11  A    between atoms: C_23  and  C_25 
ROOT
HETATM    1  C           1     -21.353  -7.796  -2.293  0.00  0.00     0.189 C 
ENDROOT
BRANCH   1   2
HETATM    2  C           1     -19.933  -8.171  -1.892  0.00  0.00     0.074 C 
BRANCH   2   3
HETATM    3  C           1     -19.447  -9.288  -2.762  0.00  0.00    -0.056 A 
HETATM    4  C           1     -18.097  -9.372  -3.101  0.00  0.00     0.010 A 
HETATM    5  C           1     -17.645 -10.413  -3.911  0.00  0.00     0.038 A 
HETATM    6  C           1     -18.543 -11.370  -4.384  0.00  0.00     0.081 A 
HETATM    7  C           1     -19.894 -11.287  -4.044  0.00  0.00     0.038 A 
HETATM    8  C           1     -20.345 -10.245  -3.234  0.00  0.00     0.010 A 
BRANCH   6   9
HETATM    9  O           1     -18.104 -12.381  -5.171  0.00  0.00    -0.247 OA
BRANCH   9  10
HETATM   10  P           1     -18.407 -12.298  -6.754  0.00  0.00     0.411 P 
HETATM   11  O           1     -17.235 -12.793  -7.510  0.00  0.00    -0.624 OA
HETATM   12  O           1     -18.680 -10.893  -7.132  0.00  0.00    -0.624 OA
BRANCH  10  13
HETATM   13  O           1     -19.694 -13.210  -7.103  0.00  0.00    -0.300 OA
HETATM   14  H           1     -20.144 -13.321  -6.283  0.00  0.00     0.223 HD
ENDBRANCH  10  13
ENDBRANCH   9  10
ENDBRANCH   6   9
ENDBRANCH   2   3
ENDBRANCH   1   2
BRANCH   1  15
HETATM   15  C           1     -22.229  -7.753  -1.066  0.00  0.00     0.197 C 
HETATM   16  O           1     -22.747  -6.674  -0.705  0.00  0.00    -0.646 OA
HETATM   17  O           1     -22.437  -8.796  -0.410  0.00  0.00    -0.646 OA
ENDBRANCH   1  15
BRANCH   1  18
HETATM   18  N           1     -21.347  -6.493  -2.928  0.00  0.00    -0.344 N 
HETATM   19  C           1     -21.650  -6.377  -4.258  0.00  0.00     0.249 C 
HETATM   20  O           1     -22.794  -6.204  -4.604  0.00  0.00    -0.271 OA
HETATM   21  H           1     -21.119  -5.668  -2.388  0.00  0.00     0.163 HD
BRANCH  19  22
HETATM   22  C           1     -20.554  -6.466  -5.292  0.00  0.00     0.284 C 
BRANCH  22  23
HETATM   23  C           1     -20.340  -5.098  -5.926  0.00  0.00     0.155 C 
BRANCH  23  24
HETATM   24  C           1     -20.833  -5.122  -7.352  0.00  0.00     0.175 C 
HETATM   25  O           1     -22.034  -4.878  -7.603  0.00  0.00    -0.648 OA
HETATM   26  O           1     -20.041  -5.385  -8.283  0.00  0.00    -0.648 OA
ENDBRANCH  23  24
ENDBRANCH  22  23
BRANCH  22  27
HETATM   27  N           1     -20.946  -7.452  -6.353  0.00  0.00    -0.066 N 
HETATM   28  H           1     -20.663  -8.413  -6.058  0.00  0.00     0.275 HD
HETATM   29  H           1     -21.981  -7.421  -6.490  0.00  0.00     0.275 HD
HETATM   30  H           1     -20.467  -7.207  -7.249  0.00  0.00     0.275 HD
ENDBRANCH  22  27
ENDBRANCH  19  22
ENDBRANCH   1  18
TORSDOF 11
ENDMDL
MODEL 9
REMARK VINA RESULT:      -6.5      4.482      7.717
REMARK  11 active torsions:
REMARK  status: ('A' for Active; 'I' for Inactive)
REMARK       I    between atoms: C_1  and  N_15 
REMARK    1  A    between atoms: C_1  and  C_13 
REMARK    2  A    between atoms: C_3  and  C_4 
REMARK    3  A    between atoms: C_4  and  C_5 
REMARK    4  A    between atoms: C_5  and  C_7 
REMARK    5  A    between atoms: C_5  and  N_15 
REMARK    6  A    between atoms: C_13  and  C_23 
REMARK    7  A    between atoms: C_13  and  N_30 
REMARK    8  A    between atoms: O_14  and  P_20 
REMARK    9  A    between atoms: C_18  and  O_19 
REMARK   10  A    between atoms: O_19  and  P_20 
REMARK   11  A    between atoms: C_23  and  C_25 
ROOT
HETATM    1  C           1     -20.564  -7.365  -4.490  0.00  0.00     0.189 C 
ENDROOT
BRANCH   1   2
HETATM    2  C           1     -20.334  -8.735  -5.114  0.00  0.00     0.074 C 
BRANCH   2   3
HETATM    3  C           1     -18.977  -9.237  -4.730  0.00  0.00    -0.056 A 
HETATM    4  C           1     -18.632  -9.355  -3.385  0.00  0.00     0.010 A 
HETATM    5  C           1     -17.367  -9.823  -3.027  0.00  0.00     0.038 A 
HETATM    6  C           1     -16.448 -10.172  -4.016  0.00  0.00     0.081 A 
HETATM    7  C           1     -16.793 -10.054  -5.363  0.00  0.00     0.038 A 
HETATM    8  C           1     -18.058  -9.586  -5.720  0.00  0.00     0.010 A 
BRANCH   6   9
HETATM    9  O           1     -15.220 -10.627  -3.669  0.00  0.00    -0.247 OA
BRANCH   9  10
HETATM   10  P           1     -15.075 -12.180  -3.252  0.00  0.00     0.411 P 
HETATM   11  O           1     -16.046 -12.991  -4.020  0.00  0.00    -0.624 OA
HETATM   12  O           1     -15.342 -12.330  -1.804  0.00  0.00    -0.624 OA
BRANCH  10  13
HETATM   13  O           1     -13.576 -12.686  -3.580  0.00  0.00    -0.300 OA
HETATM   14  H           1     -13.659 -13.613  -3.728  0.00  0.00     0.223 HD
ENDBRANCH  10  13
ENDBRANCH   9  10
ENDBRANCH   6   9
ENDBRANCH   2   3
ENDBRANCH   1   2
BRANCH   1  15
HETATM   15  C           1     -20.674  -6.327  -5.580  0.00  0.00     0.197 C 
HETATM   16  O           1     -20.808  -6.683  -6.771  0.00  0.00    -0.646 OA
HETATM   17  O           1     -20.632  -5.111  -5.292  0.00  0.00    -0.646 OA
ENDBRANCH   1  15
BRANCH   1  18
HETATM   18  N           1     -21.790  -7.386  -3.717  0.00  0.00    -0.344 N 
HETATM   19  C           1     -21.804  -6.895  -2.440  0.00  0.00     0.249 C 
HETATM   20  O           1     -22.056  -5.732  -2.242  0.00  0.00    -0.271 OA
HETATM   21  H           1     -22.637  -7.764  -4.123  0.00  0.00     0.163 HD
BRANCH  19  22
HETATM   22  C           1     -21.501  -7.810  -1.278  0.00  0.00     0.284 C 
BRANCH  22  23
HETATM   23  C           1     -21.912  -9.233  -1.631  0.00  0.00     0.155 C 
BRANCH  23  24
HETATM   24  C           1     -22.425  -9.930  -0.395  0.00  0.00     0.175 C 
HETATM   25  O           1     -21.626 -10.295   0.495  0.00  0.00    -0.648 OA
HETATM   26  O           1     -23.650 -10.144  -0.260  0.00  0.00    -0.648 OA
ENDBRANCH  23  24
ENDBRANCH  22  23
BRANCH  22  27
HETATM   27  N           1     -22.267  -7.355  -0.071  0.00  0.00    -0.066 N 
HETATM   28  H           1     -22.964  -8.086   0.197  0.00  0.00     0.275 HD
HETATM   29  H           1     -21.605  -7.198   0.722  0.00  0.00     0.275 HD
HETATM   30  H           1     -22.766  -6.463  -0.291  0.00  0.00     0.275 HD
ENDBRANCH  22  27
ENDBRANCH  19  22
ENDBRANCH   1  18
TORSDOF 11
ENDMDL
