MODEL 1
REMARK VINA RESULT:      -7.3      0.000      0.000
REMARK  8 active torsions:
REMARK  status: ('A' for Active; 'I' for Inactive)
REMARK    1  A    between atoms: C_2  and  C_7 
REMARK    2  A    between atoms: C_7  and  C_11 
REMARK    3  A    between atoms: C_11  and  C_12 
REMARK    4  A    between atoms: C_11  and  N_22 
REMARK    5  A    between atoms: N_16  and  C_17 
REMARK    6  A    between atoms: C_17  and  C_23 
REMARK    7  A    between atoms: C_17  and  C_18 
REMARK    8  A    between atoms: C_18  and  C_19 
REMARK       I    between atoms: N_22  and  C_23 
ROOT
HETATM    1  C           1     -22.232  -5.147  -6.928  0.00  0.00     0.260 C 
ENDROOT
BRANCH   1   2
HETATM    2  N           1     -23.615  -4.911  -6.395  0.00  0.00    -0.067 N 
HETATM    3  H           1     -23.616  -4.054  -5.797  0.00  0.00     0.275 HD
HETATM    4  H           1     -23.913  -5.735  -5.826  0.00  0.00     0.275 HD
HETATM    5  H           1     -24.278  -4.780  -7.192  0.00  0.00     0.275 HD
ENDBRANCH   1   2
BRANCH   1   6
HETATM    6  C           1     -21.346  -5.657  -5.817  0.00  0.00     0.130 C 
HETATM    7  O           1     -20.582  -4.904  -5.261  0.00  0.00    -0.397 OA
HETATM    8  N           1     -21.409  -6.971  -5.441  0.00  0.00    -0.359 N 
HETATM    9  H           1     -22.050  -7.601  -5.908  0.00  0.00     0.162 HD
BRANCH   8  10
HETATM   10  C           1     -20.558  -7.462  -4.375  0.00  0.00     0.184 C 
BRANCH  10  11
HETATM   11  C           1     -21.420  -8.056  -3.269  0.00  0.00     0.040 C 
BRANCH  11  12
HETATM   12  C           1     -21.204  -7.275  -1.980  0.00  0.00    -0.018 C 
HETATM   13  C           1     -21.384  -8.204  -0.786  0.00  0.00     0.289 C 
HETATM   14  C           1     -22.218  -6.142  -1.897  0.00  0.00     0.009 C 
ENDBRANCH  11  12
ENDBRANCH  10  11
BRANCH  10  15
HETATM   15  C           1     -19.634  -8.524  -4.918  0.00  0.00     0.196 C 
HETATM   16  O           1     -19.336  -9.513  -4.214  0.00  0.00    -0.646 OA
HETATM   17  O           1     -19.170  -8.416  -6.073  0.00  0.00    -0.646 OA
ENDBRANCH  10  15
ENDBRANCH   8  10
ENDBRANCH   1   6
BRANCH   1  18
HETATM   18  C           1     -21.667  -3.839  -7.468  0.00  0.00     0.079 C 
BRANCH  18  19
HETATM   19  C           1     -21.634  -3.890  -8.965  0.00  0.00    -0.056 A 
HETATM   20  C           1     -22.805  -3.689  -9.696  0.00  0.00     0.007 A 
HETATM   21  C           1     -22.774  -3.736 -11.089  0.00  0.00     0.001 A 
HETATM   22  C           1     -21.572  -3.985 -11.751  0.00  0.00     0.000 A 
HETATM   23  C           1     -20.401  -4.185 -11.021  0.00  0.00     0.001 A 
HETATM   24  C           1     -20.432  -4.138  -9.628  0.00  0.00     0.007 A 
ENDBRANCH  18  19
ENDBRANCH   1  18
TORSDOF 8
ENDMDL
MODEL 2
REMARK VINA RESULT:      -7.3      2.625      7.489
REMARK  8 active torsions:
REMARK  status: ('A' for Active; 'I' for Inactive)
REMARK    1  A    between atoms: C_2  and  C_7 
REMARK    2  A    between atoms: C_7  and  C_11 
REMARK    3  A    between atoms: C_11  and  C_12 
REMARK    4  A    between atoms: C_11  and  N_22 
REMARK    5  A    between atoms: N_16  and  C_17 
REMARK    6  A    between atoms: C_17  and  C_23 
REMARK    7  A    between atoms: C_17  and  C_18 
REMARK    8  A    between atoms: C_18  and  C_19 
REMARK       I    between atoms: N_22  and  C_23 
ROOT
HETATM    1  C           1     -22.383  -4.901  -6.389  0.00  0.00     0.260 C 
ENDROOT
BRANCH   1   2
HETATM    2  N           1     -23.788  -5.370  -6.153  0.00  0.00    -0.067 N 
HETATM    3  H           1     -23.772  -6.351  -5.792  0.00  0.00     0.275 HD
HETATM    4  H           1     -24.322  -5.337  -7.051  0.00  0.00     0.275 HD
HETATM    5  H           1     -24.250  -4.749  -5.452  0.00  0.00     0.275 HD
ENDBRANCH   1   2
BRANCH   1   6
HETATM    6  C           1     -22.319  -4.144  -7.693  0.00  0.00     0.130 C 
HETATM    7  O           1     -21.502  -3.267  -7.842  0.00  0.00    -0.397 OA
HETATM    8  N           1     -23.187  -4.451  -8.706  0.00  0.00    -0.359 N 
HETATM    9  H           1     -23.872  -5.186  -8.580  0.00  0.00     0.162 HD
BRANCH   8  10
HETATM   10  C           1     -23.126  -3.723  -9.959  0.00  0.00     0.184 C 
BRANCH  10  11
HETATM   11  C           1     -22.602  -4.641 -11.055  0.00  0.00     0.040 C 
BRANCH  11  12
HETATM   12  C           1     -21.241  -4.146 -11.525  0.00  0.00    -0.018 C 
HETATM   13  C           1     -20.151  -4.728 -10.635  0.00  0.00     0.289 C 
HETATM   14  C           1     -21.201  -2.625 -11.446  0.00  0.00     0.009 C 
ENDBRANCH  11  12
ENDBRANCH  10  11
BRANCH  10  15
HETATM   15  C           1     -24.508  -3.240 -10.326  0.00  0.00     0.196 C 
HETATM   16  O           1     -25.301  -2.876  -9.432  0.00  0.00    -0.646 OA
HETATM   17  O           1     -24.858  -3.203 -11.525  0.00  0.00    -0.646 OA
ENDBRANCH  10  15
ENDBRANCH   8  10
ENDBRANCH   1   6
BRANCH   1  18
HETATM   18  C           1     -21.452  -6.105  -6.456  0.00  0.00     0.079 C 
BRANCH  18  19
HETATM   19  C           1     -21.421  -6.786  -5.122  0.00  0.00    -0.056 A 
HETATM   20  C           1     -21.502  -8.177  -5.047  0.00  0.00     0.007 A 
HETATM   21  C           1     -21.473  -8.811  -3.805  0.00  0.00     0.001 A 
HETATM   22  C           1     -21.362  -8.055  -2.639  0.00  0.00     0.000 A 
HETATM   23  C           1     -21.280  -6.664  -2.713  0.00  0.00     0.001 A 
HETATM   24  C           1     -21.309  -6.030  -3.955  0.00  0.00     0.007 A 
ENDBRANCH  18  19
ENDBRANCH   1  18
TORSDOF 8
ENDMDL
MODEL 3
REMARK VINA RESULT:      -6.7      1.383      2.116
REMARK  8 active torsions:
REMARK  status: ('A' for Active; 'I' for Inactive)
REMARK    1  A    between atoms: C_2  and  C_7 
REMARK    2  A    between atoms: C_7  and  C_11 
REMARK    3  A    between atoms: C_11  and  C_12 
REMARK    4  A    between atoms: C_11  and  N_22 
REMARK    5  A    between atoms: N_16  and  C_17 
REMARK    6  A    between atoms: C_17  and  C_23 
REMARK    7  A    between atoms: C_17  and  C_18 
REMARK    8  A    between atoms: C_18  and  C_19 
REMARK       I    between atoms: N_22  and  C_23 
ROOT
HETATM    1  C           1     -21.721  -6.295  -6.041  0.00  0.00     0.260 C 
ENDROOT
BRANCH   1   2
HETATM    2  N           1     -22.955  -5.951  -5.261  0.00  0.00    -0.067 N 
HETATM    3  H           1     -22.802  -6.172  -4.252  0.00  0.00     0.275 HD
HETATM    4  H           1     -23.762  -6.509  -5.623  0.00  0.00     0.275 HD
HETATM    5  H           1     -23.162  -4.932  -5.368  0.00  0.00     0.275 HD
ENDBRANCH   1   2
BRANCH   1   6
HETATM    6  C           1     -20.863  -7.239  -5.233  0.00  0.00     0.130 C 
HETATM    7  O           1     -19.798  -7.606  -5.666  0.00  0.00    -0.397 OA
HETATM    8  N           1     -21.295  -7.677  -4.010  0.00  0.00    -0.359 N 
HETATM    9  H           1     -22.189  -7.369  -3.648  0.00  0.00     0.162 HD
BRANCH   8  10
HETATM   10  C           1     -20.472  -8.585  -3.234  0.00  0.00     0.184 C 
BRANCH  10  11
HETATM   11  C           1     -20.393  -8.093  -1.795  0.00  0.00     0.040 C 
BRANCH  11  12
HETATM   12  C           1     -21.800  -7.903  -1.244  0.00  0.00    -0.018 C 
HETATM   13  C           1     -22.189  -6.433  -1.338  0.00  0.00     0.289 C 
HETATM   14  C           1     -21.838  -8.345   0.213  0.00  0.00     0.009 C 
ENDBRANCH  11  12
ENDBRANCH  10  11
BRANCH  10  15
HETATM   15  C           1     -21.083  -9.964  -3.261  0.00  0.00     0.196 C 
HETATM   16  O           1     -22.127 -10.173  -3.914  0.00  0.00    -0.646 OA
HETATM   17  O           1     -20.543 -10.898  -2.631  0.00  0.00    -0.646 OA
ENDBRANCH  10  15
ENDBRANCH   8  10
ENDBRANCH   1   6
BRANCH   1  18
HETATM   18  C           1     -20.936  -5.023  -6.335  0.00  0.00     0.079 C 
BRANCH  18  19
HETATM   19  C           1     -21.119  -4.645  -7.773  0.00  0.00    -0.056 A 
HETATM   20  C           1     -22.322  -4.081  -8.199  0.00  0.00     0.007 A 
HETATM   21  C           1     -22.492  -3.729  -9.537  0.00  0.00     0.001 A 
HETATM   22  C           1     -21.459  -3.941 -10.450  0.00  0.00     0.000 A 
HETATM   23  C           1     -20.256  -4.504 -10.025  0.00  0.00     0.001 A 
HETATM   24  C           1     -20.086  -4.856  -8.687  0.00  0.00     0.007 A 
ENDBRANCH  18  19
ENDBRANCH   1  18
TORSDOF 8
ENDMDL
MODEL 4
REMARK VINA RESULT:      -6.6      1.789      2.607
REMARK  8 active torsions:
REMARK  status: ('A' for Active; 'I' for Inactive)
REMARK    1  A    between atoms: C_2  and  C_7 
REMARK    2  A    between atoms: C_7  and  C_11 
REMARK    3  A    between atoms: C_11  and  C_12 
REMARK    4  A    between atoms: C_11  and  N_22 
REMARK    5  A    between atoms: N_16  and  C_17 
REMARK    6  A    between atoms: C_17  and  C_23 
REMARK    7  A    between atoms: C_17  and  C_18 
REMARK    8  A    between atoms: C_18  and  C_19 
REMARK       I    between atoms: N_22  and  C_23 
ROOT
HETATM    1  C           1     -21.536  -6.272  -5.148  0.00  0.00     0.260 C 
ENDROOT
BRANCH   1   2
HETATM    2  N           1     -23.022  -6.070  -5.177  0.00  0.00    -0.067 N 
HETATM    3  H           1     -23.477  -6.738  -4.514  0.00  0.00     0.275 HD
HETATM    4  H           1     -23.378  -6.241  -6.144  0.00  0.00     0.275 HD
HETATM    5  H           1     -23.246  -5.090  -4.892  0.00  0.00     0.275 HD
ENDBRANCH   1   2
BRANCH   1   6
HETATM    6  C           1     -21.116  -6.716  -3.768  0.00  0.00     0.130 C 
HETATM    7  O           1     -21.189  -5.948  -2.839  0.00  0.00    -0.397 OA
HETATM    8  N           1     -20.653  -7.989  -3.571  0.00  0.00    -0.359 N 
HETATM    9  H           1     -20.591  -8.632  -4.351  0.00  0.00     0.162 HD
BRANCH   8  10
HETATM   10  C           1     -20.248  -8.416  -2.245  0.00  0.00     0.184 C 
BRANCH  10  11
HETATM   11  C           1     -21.458  -8.959  -1.496  0.00  0.00     0.040 C 
BRANCH  11  12
HETATM   12  C           1     -21.489  -8.376  -0.090  0.00  0.00    -0.018 C 
HETATM   13  C           1     -21.102  -9.452   0.916  0.00  0.00     0.289 C 
HETATM   14  C           1     -22.894  -7.875   0.220  0.00  0.00     0.009 C 
ENDBRANCH  11  12
ENDBRANCH  10  11
BRANCH  10  15
HETATM   15  C           1     -19.203  -9.498  -2.363  0.00  0.00     0.196 C 
HETATM   16  O           1     -19.465 -10.664  -1.998  0.00  0.00    -0.646 OA
HETATM   17  O           1     -18.075  -9.227  -2.829  0.00  0.00    -0.646 OA
ENDBRANCH  10  15
ENDBRANCH   8  10
ENDBRANCH   1   6
BRANCH   1  18
HETATM   18  C           1     -20.840  -4.962  -5.494  0.00  0.00     0.079 C 
BRANCH  18  19
HETATM   19  C           1     -20.966  -4.702  -6.963  0.00  0.00    -0.056 A 
HETATM   20  C           1     -19.934  -5.068  -7.828  0.00  0.00     0.007 A 
HETATM   21  C           1     -20.052  -4.826  -9.196  0.00  0.00     0.001 A 
HETATM   22  C           1     -21.201  -4.218  -9.700  0.00  0.00     0.000 A 
HETATM   23  C           1     -22.233  -3.852  -8.836  0.00  0.00     0.001 A 
HETATM   24  C           1     -22.116  -4.095  -7.468  0.00  0.00     0.007 A 
ENDBRANCH  18  19
ENDBRANCH   1  18
TORSDOF 8
ENDMDL
MODEL 5
REMARK VINA RESULT:      -6.6      2.260      3.780
REMARK  8 active torsions:
REMARK  status: ('A' for Active; 'I' for Inactive)
REMARK    1  A    between atoms: C_2  and  C_7 
REMARK    2  A    between atoms: C_7  and  C_11 
REMARK    3  A    between atoms: C_11  and  C_12 
REMARK    4  A    between atoms: C_11  and  N_22 
REMARK    5  A    between atoms: N_16  and  C_17 
REMARK    6  A    between atoms: C_17  and  C_23 
REMARK    7  A    between atoms: C_17  and  C_18 
REMARK    8  A    between atoms: C_18  and  C_19 
REMARK       I    between atoms: N_22  and  C_23 
ROOT
HETATM    1  C           1     -20.284  -7.810  -5.115  0.00  0.00     0.260 C 
ENDROOT
BRANCH   1   2
HETATM    2  N           1     -21.199  -8.611  -5.994  0.00  0.00    -0.067 N 
HETATM    3  H           1     -21.278  -9.584  -5.620  0.00  0.00     0.275 HD
HETATM    4  H           1     -20.811  -8.641  -6.964  0.00  0.00     0.275 HD
HETATM    5  H           1     -22.144  -8.167  -6.011  0.00  0.00     0.275 HD
ENDBRANCH   1   2
BRANCH   1   6
HETATM    6  C           1     -20.047  -8.556  -3.825  0.00  0.00     0.130 C 
HETATM    7  O           1     -18.926  -8.879  -3.512  0.00  0.00    -0.397 OA
HETATM    8  N           1     -21.102  -8.866  -3.010  0.00  0.00    -0.359 N 
HETATM    9  H           1     -22.042  -8.596  -3.274  0.00  0.00     0.162 HD
BRANCH   8  10
HETATM   10  C           1     -20.875  -9.584  -1.770  0.00  0.00     0.184 C 
BRANCH  10  11
HETATM   11  C           1     -21.062  -8.635  -0.594  0.00  0.00     0.040 C 
BRANCH  11  12
HETATM   12  C           1     -22.421  -7.955  -0.700  0.00  0.00    -0.018 C 
HETATM   13  C           1     -22.230  -6.501  -1.112  0.00  0.00     0.289 C 
HETATM   14  C           1     -23.123  -8.011   0.650  0.00  0.00     0.009 C 
ENDBRANCH  11  12
ENDBRANCH  10  11
BRANCH  10  15
HETATM   15  C           1     -21.860 -10.721  -1.661  0.00  0.00     0.196 C 
HETATM   16  O           1     -22.672 -10.937  -2.586  0.00  0.00    -0.646 OA
HETATM   17  O           1     -21.863 -11.449  -0.645  0.00  0.00    -0.646 OA
ENDBRANCH  10  15
ENDBRANCH   8  10
ENDBRANCH   1   6
BRANCH   1  18
HETATM   18  C           1     -20.925  -6.462  -4.812  0.00  0.00     0.079 C 
BRANCH  18  19
HETATM   19  C           1     -20.832  -5.582  -6.020  0.00  0.00    -0.056 A 
HETATM   20  C           1     -21.989  -5.039  -6.579  0.00  0.00     0.007 A 
HETATM   21  C           1     -21.903  -4.219  -7.703  0.00  0.00     0.001 A 
HETATM   22  C           1     -20.658  -3.942  -8.269  0.00  0.00     0.000 A 
HETATM   23  C           1     -19.501  -4.483  -7.710  0.00  0.00     0.001 A 
HETATM   24  C           1     -19.588  -5.303  -6.585  0.00  0.00     0.007 A 
ENDBRANCH  18  19
ENDBRANCH   1  18
TORSDOF 8
ENDMDL
MODEL 6
REMARK VINA RESULT:      -6.5      1.878      2.524
REMARK  8 active torsions:
REMARK  status: ('A' for Active; 'I' for Inactive)
REMARK    1  A    between atoms: C_2  and  C_7 
REMARK    2  A    between atoms: C_7  and  C_11 
REMARK    3  A    between atoms: C_11  and  C_12 
REMARK    4  A    between atoms: C_11  and  N_22 
REMARK    5  A    between atoms: N_16  and  C_17 
REMARK    6  A    between atoms: C_17  and  C_23 
REMARK    7  A    between atoms: C_17  and  C_18 
REMARK    8  A    between atoms: C_18  and  C_19 
REMARK       I    between atoms: N_22  and  C_23 
ROOT
HETATM    1  C           1     -19.839  -4.427  -7.725  0.00  0.00     0.260 C 
ENDROOT
BRANCH   1   2
HETATM    2  N           1     -18.476  -3.860  -7.457  0.00  0.00    -0.067 N 
HETATM    3  H           1     -17.956  -3.760  -8.358  0.00  0.00     0.275 HD
HETATM    4  H           1     -17.951  -4.502  -6.820  0.00  0.00     0.275 HD
HETATM    5  H           1     -18.571  -2.923  -7.004  0.00  0.00     0.275 HD
ENDBRANCH   1   2
BRANCH   1   6
HETATM    6  C           1     -20.097  -5.580  -6.786  0.00  0.00     0.130 C 
HETATM    7  O           1     -19.835  -6.708  -7.129  0.00  0.00    -0.397 OA
HETATM    8  N           1     -20.628  -5.346  -5.546  0.00  0.00    -0.359 N 
HETATM    9  H           1     -20.848  -4.400  -5.260  0.00  0.00     0.162 HD
BRANCH   8  10
HETATM   10  C           1     -20.877  -6.453  -4.643  0.00  0.00     0.184 C 
BRANCH  10  11
HETATM   11  C           1     -20.939  -5.937  -3.212  0.00  0.00     0.040 C 
BRANCH  11  12
HETATM   12  C           1     -21.500  -7.023  -2.304  0.00  0.00    -0.018 C 
HETATM   13  C           1     -22.272  -6.380  -1.159  0.00  0.00     0.289 C 
HETATM   14  C           1     -20.355  -7.854  -1.739  0.00  0.00     0.009 C 
ENDBRANCH  11  12
ENDBRANCH  10  11
BRANCH  10  15
HETATM   15  C           1     -22.190  -7.106  -4.999  0.00  0.00     0.196 C 
HETATM   16  O           1     -22.249  -8.345  -5.158  0.00  0.00    -0.646 OA
HETATM   17  O           1     -23.217  -6.409  -5.135  0.00  0.00    -0.646 OA
ENDBRANCH  10  15
ENDBRANCH   8  10
ENDBRANCH   1   6
BRANCH   1  18
HETATM   18  C           1     -19.907  -4.920  -9.165  0.00  0.00     0.079 C 
BRANCH  18  19
HETATM   19  C           1     -21.046  -4.248  -9.869  0.00  0.00    -0.056 A 
HETATM   20  C           1     -22.315  -4.236  -9.289  0.00  0.00     0.007 A 
HETATM   21  C           1     -23.375  -3.611  -9.945  0.00  0.00     0.001 A 
HETATM   22  C           1     -23.167  -2.998 -11.180  0.00  0.00     0.000 A 
HETATM   23  C           1     -21.898  -3.009 -11.760  0.00  0.00     0.001 A 
HETATM   24  C           1     -20.838  -3.634 -11.104  0.00  0.00     0.007 A 
ENDBRANCH  18  19
ENDBRANCH   1  18
TORSDOF 8
ENDMDL
MODEL 7
REMARK VINA RESULT:      -6.4      2.323      3.583
REMARK  8 active torsions:
REMARK  status: ('A' for Active; 'I' for Inactive)
REMARK    1  A    between atoms: C_2  and  C_7 
REMARK    2  A    between atoms: C_7  and  C_11 
REMARK    3  A    between atoms: C_11  and  C_12 
REMARK    4  A    between atoms: C_11  and  N_22 
REMARK    5  A    between atoms: N_16  and  C_17 
REMARK    6  A    between atoms: C_17  and  C_23 
REMARK    7  A    between atoms: C_17  and  C_18 
REMARK    8  A    between atoms: C_18  and  C_19 
REMARK       I    between atoms: N_22  and  C_23 
ROOT
HETATM    1  C           1     -20.661  -7.251  -4.720  0.00  0.00     0.260 C 
ENDROOT
BRANCH   1   2
HETATM    2  N           1     -21.189  -8.254  -5.703  0.00  0.00    -0.067 N 
HETATM    3  H           1     -20.888  -7.987  -6.668  0.00  0.00     0.275 HD
HETATM    4  H           1     -22.232  -8.273  -5.655  0.00  0.00     0.275 HD
HETATM    5  H           1     -20.813  -9.201  -5.471  0.00  0.00     0.275 HD
ENDBRANCH   1   2
BRANCH   1   6
HETATM    6  C           1     -20.835  -7.784  -3.318  0.00  0.00     0.130 C 
HETATM    7  O           1     -21.073  -7.025  -2.410  0.00  0.00    -0.397 OA
HETATM    8  N           1     -20.723  -9.126  -3.078  0.00  0.00    -0.359 N 
HETATM    9  H           1     -20.523  -9.762  -3.840  0.00  0.00     0.162 HD
BRANCH   8  10
HETATM   10  C           1     -20.890  -9.639  -1.731  0.00  0.00     0.184 C 
BRANCH  10  11
HETATM   11  C           1     -22.254 -10.302  -1.605  0.00  0.00     0.040 C 
BRANCH  11  12
HETATM   12  C           1     -22.774 -10.132  -0.184  0.00  0.00    -0.018 C 
HETATM   13  C           1     -24.120 -10.830  -0.047  0.00  0.00     0.289 C 
HETATM   14  C           1     -22.939  -8.648   0.121  0.00  0.00     0.009 C 
ENDBRANCH  11  12
ENDBRANCH  10  11
BRANCH  10  15
HETATM   15  C           1     -19.809 -10.652  -1.442  0.00  0.00     0.196 C 
HETATM   16  O           1     -19.716 -11.159  -0.304  0.00  0.00    -0.646 OA
HETATM   17  O           1     -19.010 -10.985  -2.342  0.00  0.00    -0.646 OA
ENDBRANCH  10  15
ENDBRANCH   8  10
ENDBRANCH   1   6
BRANCH   1  18
HETATM   18  C           1     -21.431  -5.945  -4.866  0.00  0.00     0.079 C 
BRANCH  18  19
HETATM   19  C           1     -21.021  -5.263  -6.135  0.00  0.00    -0.056 A 
HETATM   20  C           1     -21.992  -4.796  -7.021  0.00  0.00     0.007 A 
HETATM   21  C           1     -21.610  -4.161  -8.202  0.00  0.00     0.001 A 
HETATM   22  C           1     -20.257  -3.993  -8.497  0.00  0.00     0.000 A 
HETATM   23  C           1     -19.286  -4.458  -7.611  0.00  0.00     0.001 A 
HETATM   24  C           1     -19.668  -5.093  -6.429  0.00  0.00     0.007 A 
ENDBRANCH  18  19
ENDBRANCH   1  18
TORSDOF 8
ENDMDL
MODEL 8
REMARK VINA RESULT:      -6.3      2.181      3.761
REMARK  8 active torsions:
REMARK  status: ('A' for Active; 'I' for Inactive)
REMARK    1  A    between atoms: C_2  and  C_7 
REMARK    2  A    between atoms: C_7  and  C_11 
REMARK    3  A    between atoms: C_11  and  C_12 
REMARK    4  A    between atoms: C_11  and  N_22 
REMARK    5  A    between atoms: N_16  and  C_17 
REMARK    6  A    between atoms: C_17  and  C_23 
REMARK    7  A    between atoms: C_17  and  C_18 
REMARK    8  A    between atoms: C_18  and  C_19 
REMARK       I    between atoms: N_22  and  C_23 
ROOT
HETATM    1  C           1     -21.604  -6.324  -4.920  0.00  0.00     0.260 C 
ENDROOT
BRANCH   1   2
HETATM    2  N           1     -22.044  -6.100  -3.503  0.00  0.00    -0.067 N 
HETATM    3  H           1     -22.519  -6.959  -3.146  0.00  0.00     0.275 HD
HETATM    4  H           1     -22.707  -5.293  -3.468  0.00  0.00     0.275 HD
HETATM    5  H           1     -21.211  -5.890  -2.909  0.00  0.00     0.275 HD
ENDBRANCH   1   2
BRANCH   1   6
HETATM    6  C           1     -20.938  -7.674  -5.032  0.00  0.00     0.130 C 
HETATM    7  O           1     -20.972  -8.278  -6.076  0.00  0.00    -0.397 OA
HETATM    8  N           1     -20.297  -8.212  -3.949  0.00  0.00    -0.359 N 
HETATM    9  H           1     -20.270  -7.704  -3.073  0.00  0.00     0.162 HD
BRANCH   8  10
HETATM   10  C           1     -19.657  -9.509  -4.055  0.00  0.00     0.184 C 
BRANCH  10  11
HETATM   11  C           1     -18.198  -9.392  -3.637  0.00  0.00     0.040 C 
BRANCH  11  12
HETATM   12  C           1     -17.320 -10.124  -4.643  0.00  0.00    -0.018 C 
HETATM   13  C           1     -15.857  -9.794  -4.378  0.00  0.00     0.289 C 
HETATM   14  C           1     -17.691  -9.685  -6.054  0.00  0.00     0.009 C 
ENDBRANCH  11  12
ENDBRANCH  10  11
BRANCH  10  15
HETATM   15  C           1     -20.362 -10.492  -3.152  0.00  0.00     0.196 C 
HETATM   16  O           1     -19.738 -11.041  -2.219  0.00  0.00    -0.646 OA
HETATM   17  O           1     -21.569 -10.754  -3.337  0.00  0.00    -0.646 OA
ENDBRANCH  10  15
ENDBRANCH   8  10
ENDBRANCH   1   6
BRANCH   1  18
HETATM   18  C           1     -20.616  -5.236  -5.322  0.00  0.00     0.079 C 
BRANCH  18  19
HETATM   19  C           1     -20.855  -4.847  -6.748  0.00  0.00    -0.056 A 
HETATM   20  C           1     -19.796  -4.841  -7.656  0.00  0.00     0.007 A 
HETATM   21  C           1     -20.019  -4.478  -8.984  0.00  0.00     0.001 A 
HETATM   22  C           1     -21.300  -4.121  -9.404  0.00  0.00     0.000 A 
HETATM   23  C           1     -22.359  -4.128  -8.497  0.00  0.00     0.001 A 
HETATM   24  C           1     -22.137  -4.491  -7.169  0.00  0.00     0.007 A 
ENDBRANCH  18  19
ENDBRANCH   1  18
TORSDOF 8
ENDMDL
MODEL 9
REMARK VINA RESULT:      -5.9      5.286      7.514
REMARK  8 active torsions:
REMARK  status: ('A' for Active; 'I' for Inactive)
REMARK    1  A    between atoms: C_2  and  C_7 
REMARK    2  A    between atoms: C_7  and  C_11 
REMARK    3  A    between atoms: C_11  and  C_12 
REMARK    4  A    between atoms: C_11  and  N_22 
REMARK    5  A    between atoms: N_16  and  C_17 
REMARK    6  A    between atoms: C_17  and  C_23 
REMARK    7  A    between atoms: C_17  and  C_18 
REMARK    8  A    between atoms: C_18  and  C_19 
REMARK       I    between atoms: N_22  and  C_23 
ROOT
HETATM    1  C           1     -20.477  -9.329  -4.057  0.00  0.00     0.260 C 
ENDROOT
BRANCH   1   2
HETATM    2  N           1     -21.342 -10.534  -4.286  0.00  0.00    -0.067 N 
HETATM    3  H           1     -21.204 -11.215  -3.505  0.00  0.00     0.275 HD
HETATM    4  H           1     -21.079 -10.983  -5.192  0.00  0.00     0.275 HD
HETATM    5  H           1     -22.344 -10.242  -4.320  0.00  0.00     0.275 HD
ENDBRANCH   1   2
BRANCH   1   6
HETATM    6  C           1     -19.324  -9.346  -5.031  0.00  0.00     0.130 C 
HETATM    7  O           1     -19.195  -8.448  -5.828  0.00  0.00    -0.397 OA
HETATM    8  N           1     -18.427 -10.378  -5.010  0.00  0.00    -0.359 N 
HETATM    9  H           1     -18.536 -11.131  -4.341  0.00  0.00     0.162 HD
BRANCH   8  10
HETATM   10  C           1     -17.319 -10.395  -5.946  0.00  0.00     0.184 C 
BRANCH  10  11
HETATM   11  C           1     -16.023 -10.099  -5.204  0.00  0.00     0.040 C 
BRANCH  11  12
HETATM   12  C           1     -16.114 -10.643  -3.784  0.00  0.00    -0.018 C 
HETATM   13  C           1     -15.949  -9.501  -2.790  0.00  0.00     0.289 C 
HETATM   14  C           1     -15.011 -11.670  -3.563  0.00  0.00     0.009 C 
ENDBRANCH  11  12
ENDBRANCH  10  11
BRANCH  10  15
HETATM   15  C           1     -17.228 -11.756  -6.592  0.00  0.00     0.196 C 
HETATM   16  O           1     -18.264 -12.431  -6.774  0.00  0.00    -0.646 OA
HETATM   17  O           1     -16.118 -12.206  -6.947  0.00  0.00    -0.646 OA
ENDBRANCH  10  15
ENDBRANCH   8  10
ENDBRANCH   1   6
BRANCH   1  18
HETATM   18  C           1     -19.939  -9.355  -2.632  0.00  0.00     0.079 C 
BRANCH  18  19
HETATM   19  C           1     -20.906  -8.666  -1.720  0.00  0.00    -0.056 A 
HETATM   20  C           1     -21.387  -7.397  -2.043  0.00  0.00     0.007 A 
HETATM   21  C           1     -22.287  -6.755  -1.193  0.00  0.00     0.001 A 
HETATM   22  C           1     -22.706  -7.382  -0.020  0.00  0.00     0.000 A 
HETATM   23  C           1     -22.226  -8.651   0.303  0.00  0.00     0.001 A 
HETATM   24  C           1     -21.326  -9.293  -0.546  0.00  0.00     0.007 A 
ENDBRANCH  18  19
ENDBRANCH   1  18
TORSDOF 8
ENDMDL
