MODEL 1
REMARK VINA RESULT:      -6.2      0.000      0.000
REMARK  10 active torsions:
REMARK  status: ('A' for Active; 'I' for Inactive)
REMARK    1  A    between atoms: N_8  and  C_15 
REMARK    2  A    between atoms: O_11  and  P_12 
REMARK    3  A    between atoms: P_12  and  O_13 
REMARK    4  A    between atoms: O_13  and  C_14 
REMARK    5  A    between atoms: C_14  and  C_15 
REMARK    6  A    between atoms: C_15  and  C_16 
REMARK       I    between atoms: C_16  and  N_17 
REMARK    7  A    between atoms: N_17  and  C_21 
REMARK    8  A    between atoms: C_20  and  C_21 
REMARK    9  A    between atoms: C_21  and  C_23 
REMARK   10  A    between atoms: O_22  and  C_23 
ROOT
HETATM    1  C           1     -36.637  -0.743 -11.261  0.00  0.00     0.298 C 
ENDROOT
BRANCH   1   2
HETATM    2  N           1     -36.352   0.213 -10.141  0.00  0.00    -0.064 N 
HETATM    3  H           1     -35.786  -0.270  -9.407  0.00  0.00     0.275 HD
HETATM    4  H           1     -37.253   0.542  -9.726  0.00  0.00     0.275 HD
HETATM    5  H           1     -35.819   1.033 -10.509  0.00  0.00     0.275 HD
ENDBRANCH   1   2
BRANCH   1   6
HETATM    6  C           1     -37.403  -0.021 -12.361  0.00  0.00     0.224 C 
BRANCH   6   7
HETATM    7  O           1     -37.384  -0.795 -13.530  0.00  0.00    -0.287 OA
BRANCH   7   8
HETATM    8  P           1     -36.666  -0.124 -14.812  0.00  0.00     0.406 P 
HETATM    9  O           1     -35.787  -1.119 -15.463  0.00  0.00    -0.624 OA
HETATM   10  O           1     -37.698   0.328 -15.772  0.00  0.00    -0.624 OA
BRANCH   8  11
HETATM   11  O           1     -35.785   1.143 -14.335  0.00  0.00    -0.300 OA
HETATM   12  H           1     -36.050   1.850 -14.898  0.00  0.00     0.223 HD
ENDBRANCH   8  11
ENDBRANCH   7   8
ENDBRANCH   6   7
ENDBRANCH   1   6
BRANCH   1  13
HETATM   13  C           1     -35.337  -1.271 -11.815  0.00  0.00     0.251 C 
HETATM   14  O           1     -34.427  -0.511 -12.049  0.00  0.00    -0.271 OA
HETATM   15  N           1     -35.186  -2.611 -12.050  0.00  0.00    -0.342 N 
HETATM   16  H           1     -35.948  -3.247 -11.853  0.00  0.00     0.163 HD
BRANCH  15  17
HETATM   17  C           1     -33.937  -3.118 -12.581  0.00  0.00     0.214 C 
BRANCH  17  18
HETATM   18  C           1     -34.225  -4.088 -13.702  0.00  0.00     0.199 C 
HETATM   19  O           1     -35.008  -5.045 -13.514  0.00  0.00    -0.646 OA
HETATM   20  O           1     -33.680  -3.936 -14.816  0.00  0.00    -0.646 OA
ENDBRANCH  17  18
BRANCH  17  21
HETATM   21  C           1     -33.168  -3.832 -11.476  0.00  0.00     0.147 C 
HETATM   22  C           1     -34.151  -4.407 -10.465  0.00  0.00     0.042 C 
BRANCH  21  23
HETATM   23  O           1     -32.408  -4.870 -12.033  0.00  0.00    -0.393 OA
HETATM   24  H           1     -31.540  -4.797 -11.675  0.00  0.00     0.210 HD
ENDBRANCH  21  23
ENDBRANCH  17  21
ENDBRANCH  15  17
ENDBRANCH   1  13
TORSDOF 10
ENDMDL
MODEL 2
REMARK VINA RESULT:      -6.1      0.862      1.355
REMARK  10 active torsions:
REMARK  status: ('A' for Active; 'I' for Inactive)
REMARK    1  A    between atoms: N_8  and  C_15 
REMARK    2  A    between atoms: O_11  and  P_12 
REMARK    3  A    between atoms: P_12  and  O_13 
REMARK    4  A    between atoms: O_13  and  C_14 
REMARK    5  A    between atoms: C_14  and  C_15 
REMARK    6  A    between atoms: C_15  and  C_16 
REMARK       I    between atoms: C_16  and  N_17 
REMARK    7  A    between atoms: N_17  and  C_21 
REMARK    8  A    between atoms: C_20  and  C_21 
REMARK    9  A    between atoms: C_21  and  C_23 
REMARK   10  A    between atoms: O_22  and  C_23 
ROOT
HETATM    1  C           1     -36.424  -1.169 -10.526  0.00  0.00     0.298 C 
ENDROOT
BRANCH   1   2
HETATM    2  N           1     -36.099  -0.334  -9.324  0.00  0.00    -0.064 N 
HETATM    3  H           1     -35.912  -0.958  -8.507  0.00  0.00     0.275 HD
HETATM    4  H           1     -36.907   0.292  -9.107  0.00  0.00     0.275 HD
HETATM    5  H           1     -35.252   0.246  -9.521  0.00  0.00     0.275 HD
ENDBRANCH   1   2
BRANCH   1   6
HETATM    6  C           1     -37.042  -0.288 -11.603  0.00  0.00     0.224 C 
BRANCH   6   7
HETATM    7  O           1     -37.023  -0.967 -12.831  0.00  0.00    -0.287 OA
BRANCH   7   8
HETATM    8  P           1     -36.215  -0.244 -14.027  0.00  0.00     0.406 P 
HETATM    9  O           1     -37.175   0.346 -14.985  0.00  0.00    -0.624 OA
HETATM   10  O           1     -35.357   0.823 -13.466  0.00  0.00    -0.624 OA
BRANCH   8  11
HETATM   11  O           1     -35.293  -1.330 -14.787  0.00  0.00    -0.300 OA
HETATM   12  H           1     -34.407  -1.044 -14.641  0.00  0.00     0.223 HD
ENDBRANCH   8  11
ENDBRANCH   7   8
ENDBRANCH   6   7
ENDBRANCH   1   6
BRANCH   1  13
HETATM   13  C           1     -35.160  -1.801 -11.056  0.00  0.00     0.251 C 
HETATM   14  O           1     -34.122  -1.183 -11.036  0.00  0.00    -0.271 OA
HETATM   15  N           1     -35.188  -3.074 -11.556  0.00  0.00    -0.342 N 
HETATM   16  H           1     -36.058  -3.592 -11.572  0.00  0.00     0.163 HD
BRANCH  15  17
HETATM   17  C           1     -33.974  -3.682 -12.064  0.00  0.00     0.214 C 
BRANCH  17  18
HETATM   18  C           1     -34.258  -4.333 -13.397  0.00  0.00     0.199 C 
HETATM   19  O           1     -35.082  -5.270 -13.471  0.00  0.00    -0.646 OA
HETATM   20  O           1     -33.668  -3.936 -14.424  0.00  0.00    -0.646 OA
ENDBRANCH  17  18
BRANCH  17  21
HETATM   21  C           1     -33.483  -4.735 -11.079  0.00  0.00     0.147 C 
HETATM   22  C           1     -34.674  -5.341 -10.348  0.00  0.00     0.042 C 
BRANCH  21  23
HETATM   23  O           1     -32.800  -5.742 -11.775  0.00  0.00    -0.393 OA
HETATM   24  H           1     -33.453  -6.298 -12.164  0.00  0.00     0.210 HD
ENDBRANCH  21  23
ENDBRANCH  17  21
ENDBRANCH  15  17
ENDBRANCH   1  13
TORSDOF 10
ENDMDL
MODEL 3
REMARK VINA RESULT:      -5.8     11.990     14.219
REMARK  10 active torsions:
REMARK  status: ('A' for Active; 'I' for Inactive)
REMARK    1  A    between atoms: N_8  and  C_15 
REMARK    2  A    between atoms: O_11  and  P_12 
REMARK    3  A    between atoms: P_12  and  O_13 
REMARK    4  A    between atoms: O_13  and  C_14 
REMARK    5  A    between atoms: C_14  and  C_15 
REMARK    6  A    between atoms: C_15  and  C_16 
REMARK       I    between atoms: C_16  and  N_17 
REMARK    7  A    between atoms: N_17  and  C_21 
REMARK    8  A    between atoms: C_20  and  C_21 
REMARK    9  A    between atoms: C_21  and  C_23 
REMARK   10  A    between atoms: O_22  and  C_23 
ROOT
HETATM    1  C           1     -23.332  -4.255  -9.244  0.00  0.00     0.298 C 
ENDROOT
BRANCH   1   2
HETATM    2  N           1     -24.458  -3.293  -9.010  0.00  0.00    -0.064 N 
HETATM    3  H           1     -24.386  -2.501  -9.688  0.00  0.00     0.275 HD
HETATM    4  H           1     -24.401  -2.922  -8.034  0.00  0.00     0.275 HD
HETATM    5  H           1     -25.370  -3.784  -9.143  0.00  0.00     0.275 HD
ENDBRANCH   1   2
BRANCH   1   6
HETATM    6  C           1     -22.588  -3.865 -10.514  0.00  0.00     0.224 C 
BRANCH   6   7
HETATM    7  O           1     -23.211  -4.457 -11.622  0.00  0.00    -0.287 OA
BRANCH   7   8
HETATM    8  P           1     -23.909  -3.443 -12.666  0.00  0.00     0.406 P 
HETATM    9  O           1     -25.190  -2.961 -12.104  0.00  0.00    -0.624 OA
HETATM   10  O           1     -23.011  -2.292 -12.909  0.00  0.00    -0.624 OA
BRANCH   8  11
HETATM   11  O           1     -24.187  -4.211 -14.060  0.00  0.00    -0.300 OA
HETATM   12  H           1     -23.751  -3.693 -14.715  0.00  0.00     0.223 HD
ENDBRANCH   8  11
ENDBRANCH   7   8
ENDBRANCH   6   7
ENDBRANCH   1   6
BRANCH   1  13
HETATM   13  C           1     -22.383  -4.214  -8.071  0.00  0.00     0.251 C 
HETATM   14  O           1     -21.789  -3.195  -7.810  0.00  0.00    -0.271 OA
HETATM   15  N           1     -22.197  -5.330  -7.301  0.00  0.00    -0.342 N 
HETATM   16  H           1     -22.695  -6.184  -7.520  0.00  0.00     0.163 HD
BRANCH  15  17
HETATM   17  C           1     -21.287  -5.291  -6.174  0.00  0.00     0.214 C 
BRANCH  17  18
HETATM   18  C           1     -19.893  -5.638  -6.641  0.00  0.00     0.199 C 
HETATM   19  O           1     -19.617  -6.815  -6.962  0.00  0.00    -0.646 OA
HETATM   20  O           1     -19.017  -4.750  -6.707  0.00  0.00    -0.646 OA
ENDBRANCH  17  18
BRANCH  17  21
HETATM   21  C           1     -21.736  -6.298  -5.123  0.00  0.00     0.147 C 
HETATM   22  C           1     -21.043  -5.994  -3.801  0.00  0.00     0.042 C 
BRANCH  21  23
HETATM   23  O           1     -23.124  -6.209  -4.955  0.00  0.00    -0.393 OA
HETATM   24  H           1     -23.284  -5.489  -4.370  0.00  0.00     0.210 HD
ENDBRANCH  21  23
ENDBRANCH  17  21
ENDBRANCH  15  17
ENDBRANCH   1  13
TORSDOF 10
ENDMDL
MODEL 4
REMARK VINA RESULT:      -5.8      3.031      5.115
REMARK  10 active torsions:
REMARK  status: ('A' for Active; 'I' for Inactive)
REMARK    1  A    between atoms: N_8  and  C_15 
REMARK    2  A    between atoms: O_11  and  P_12 
REMARK    3  A    between atoms: P_12  and  O_13 
REMARK    4  A    between atoms: O_13  and  C_14 
REMARK    5  A    between atoms: C_14  and  C_15 
REMARK    6  A    between atoms: C_15  and  C_16 
REMARK       I    between atoms: C_16  and  N_17 
REMARK    7  A    between atoms: N_17  and  C_21 
REMARK    8  A    between atoms: C_20  and  C_21 
REMARK    9  A    between atoms: C_21  and  C_23 
REMARK   10  A    between atoms: O_22  and  C_23 
ROOT
HETATM    1  C           1     -34.977  -2.339 -10.946  0.00  0.00     0.298 C 
ENDROOT
BRANCH   1   2
HETATM    2  N           1     -33.707  -1.789 -10.371  0.00  0.00    -0.064 N 
HETATM    3  H           1     -33.458  -0.900 -10.861  0.00  0.00     0.275 HD
HETATM    4  H           1     -32.937  -2.484 -10.498  0.00  0.00     0.275 HD
HETATM    5  H           1     -33.839  -1.600  -9.351  0.00  0.00     0.275 HD
ENDBRANCH   1   2
BRANCH   1   6
HETATM    6  C           1     -36.169  -1.722 -10.227  0.00  0.00     0.224 C 
BRANCH   6   7
HETATM    7  O           1     -35.974  -0.340 -10.098  0.00  0.00    -0.287 OA
BRANCH   7   8
HETATM    8  P           1     -37.020   0.437  -9.144  0.00  0.00     0.406 P 
HETATM    9  O           1     -38.049   1.098  -9.977  0.00  0.00    -0.624 OA
HETATM   10  O           1     -37.669  -0.533  -8.234  0.00  0.00    -0.624 OA
BRANCH   8  11
HETATM   11  O           1     -36.235   1.548  -8.275  0.00  0.00    -0.300 OA
HETATM   12  H           1     -36.291   2.340  -8.782  0.00  0.00     0.223 HD
ENDBRANCH   8  11
ENDBRANCH   7   8
ENDBRANCH   6   7
ENDBRANCH   1   6
BRANCH   1  13
HETATM   13  C           1     -35.049  -2.006 -12.416  0.00  0.00     0.251 C 
HETATM   14  O           1     -34.551  -2.750 -13.229  0.00  0.00    -0.271 OA
HETATM   15  N           1     -35.678  -0.864 -12.831  0.00  0.00    -0.342 N 
HETATM   16  H           1     -36.094  -0.241 -12.150  0.00  0.00     0.163 HD
BRANCH  15  17
HETATM   17  C           1     -35.748  -0.545 -14.243  0.00  0.00     0.214 C 
BRANCH  17  18
HETATM   18  C           1     -34.781   0.573 -14.553  0.00  0.00     0.199 C 
HETATM   19  O           1     -34.040   0.497 -15.558  0.00  0.00    -0.646 OA
HETATM   20  O           1     -34.719   1.572 -13.806  0.00  0.00    -0.646 OA
ENDBRANCH  17  18
BRANCH  17  21
HETATM   21  C           1     -37.163  -0.104 -14.595  0.00  0.00     0.147 C 
HETATM   22  C           1     -37.469  -0.487 -16.036  0.00  0.00     0.042 C 
BRANCH  21  23
HETATM   23  O           1     -38.074  -0.737 -13.738  0.00  0.00    -0.393 OA
HETATM   24  H           1     -38.063  -0.261 -12.925  0.00  0.00     0.210 HD
ENDBRANCH  21  23
ENDBRANCH  17  21
ENDBRANCH  15  17
ENDBRANCH   1  13
TORSDOF 10
ENDMDL
MODEL 5
REMARK VINA RESULT:      -5.7     12.638     15.453
REMARK  10 active torsions:
REMARK  status: ('A' for Active; 'I' for Inactive)
REMARK    1  A    between atoms: N_8  and  C_15 
REMARK    2  A    between atoms: O_11  and  P_12 
REMARK    3  A    between atoms: P_12  and  O_13 
REMARK    4  A    between atoms: O_13  and  C_14 
REMARK    5  A    between atoms: C_14  and  C_15 
REMARK    6  A    between atoms: C_15  and  C_16 
REMARK       I    between atoms: C_16  and  N_17 
REMARK    7  A    between atoms: N_17  and  C_21 
REMARK    8  A    between atoms: C_20  and  C_21 
REMARK    9  A    between atoms: C_21  and  C_23 
REMARK   10  A    between atoms: O_22  and  C_23 
ROOT
HETATM    1  C           1     -21.169  -5.509  -7.207  0.00  0.00     0.298 C 
ENDROOT
BRANCH   1   2
HETATM    2  N           1     -19.901  -5.996  -7.840  0.00  0.00    -0.064 N 
HETATM    3  H           1     -19.775  -7.013  -7.631  0.00  0.00     0.275 HD
HETATM    4  H           1     -19.091  -5.459  -7.457  0.00  0.00     0.275 HD
HETATM    5  H           1     -19.952  -5.858  -8.875  0.00  0.00     0.275 HD
ENDBRANCH   1   2
BRANCH   1   6
HETATM    6  C           1     -20.868  -4.981  -5.811  0.00  0.00     0.224 C 
BRANCH   6   7
HETATM    7  O           1     -20.456  -6.040  -4.988  0.00  0.00    -0.287 OA
BRANCH   7   8
HETATM    8  P           1     -21.635  -6.891  -4.286  0.00  0.00     0.406 P 
HETATM    9  O           1     -21.647  -8.264  -4.837  0.00  0.00    -0.624 OA
HETATM   10  O           1     -21.398  -6.946  -2.826  0.00  0.00    -0.624 OA
BRANCH   8  11
HETATM   11  O           1     -23.056  -6.181  -4.574  0.00  0.00    -0.300 OA
HETATM   12  H           1     -22.863  -5.261  -4.632  0.00  0.00     0.223 HD
ENDBRANCH   8  11
ENDBRANCH   7   8
ENDBRANCH   6   7
ENDBRANCH   1   6
BRANCH   1  13
HETATM   13  C           1     -21.758  -4.403  -8.047  0.00  0.00     0.251 C 
HETATM   14  O           1     -21.841  -3.283  -7.600  0.00  0.00    -0.271 OA
HETATM   15  N           1     -22.197  -4.666  -9.316  0.00  0.00    -0.342 N 
HETATM   16  H           1     -22.127  -5.604  -9.691  0.00  0.00     0.163 HD
BRANCH  15  17
HETATM   17  C           1     -22.762  -3.604 -10.124  0.00  0.00     0.214 C 
BRANCH  17  18
HETATM   18  C           1     -24.224  -3.887 -10.374  0.00  0.00     0.199 C 
HETATM   19  O           1     -24.749  -4.922  -9.907  0.00  0.00    -0.646 OA
HETATM   20  O           1     -24.910  -3.088 -11.046  0.00  0.00    -0.646 OA
ENDBRANCH  17  18
BRANCH  17  21
HETATM   21  C           1     -22.025  -3.531 -11.456  0.00  0.00     0.147 C 
HETATM   22  C           1     -20.552  -3.850 -11.237  0.00  0.00     0.042 C 
BRANCH  21  23
HETATM   23  O           1     -22.578  -4.462 -12.346  0.00  0.00    -0.393 OA
HETATM   24  H           1     -23.314  -4.043 -12.758  0.00  0.00     0.210 HD
ENDBRANCH  21  23
ENDBRANCH  17  21
ENDBRANCH  15  17
ENDBRANCH   1  13
TORSDOF 10
ENDMDL
MODEL 6
REMARK VINA RESULT:      -5.7     11.505     13.685
REMARK  10 active torsions:
REMARK  status: ('A' for Active; 'I' for Inactive)
REMARK    1  A    between atoms: N_8  and  C_15 
REMARK    2  A    between atoms: O_11  and  P_12 
REMARK    3  A    between atoms: P_12  and  O_13 
REMARK    4  A    between atoms: O_13  and  C_14 
REMARK    5  A    between atoms: C_14  and  C_15 
REMARK    6  A    between atoms: C_15  and  C_16 
REMARK       I    between atoms: C_16  and  N_17 
REMARK    7  A    between atoms: N_17  and  C_21 
REMARK    8  A    between atoms: C_20  and  C_21 
REMARK    9  A    between atoms: C_21  and  C_23 
REMARK   10  A    between atoms: O_22  and  C_23 
ROOT
HETATM    1  C           1     -24.011  -4.030 -10.094  0.00  0.00     0.298 C 
ENDROOT
BRANCH   1   2
HETATM    2  N           1     -24.857  -3.424  -9.015  0.00  0.00    -0.064 N 
HETATM    3  H           1     -24.308  -3.378  -8.126  0.00  0.00     0.275 HD
HETATM    4  H           1     -25.709  -4.011  -8.869  0.00  0.00     0.275 HD
HETATM    5  H           1     -25.144  -2.459  -9.297  0.00  0.00     0.275 HD
ENDBRANCH   1   2
BRANCH   1   6
HETATM    6  C           1     -23.694  -2.974 -11.144  0.00  0.00     0.224 C 
BRANCH   6   7
HETATM    7  O           1     -24.489  -3.188 -12.279  0.00  0.00    -0.287 OA
BRANCH   7   8
HETATM    8  P           1     -23.745  -3.036 -13.703  0.00  0.00     0.406 P 
HETATM    9  O           1     -24.155  -1.765 -14.341  0.00  0.00    -0.624 OA
HETATM   10  O           1     -22.280  -3.035 -13.495  0.00  0.00    -0.624 OA
BRANCH   8  11
HETATM   11  O           1     -24.151  -4.274 -14.658  0.00  0.00    -0.300 OA
HETATM   12  H           1     -23.538  -4.956 -14.447  0.00  0.00     0.223 HD
ENDBRANCH   8  11
ENDBRANCH   7   8
ENDBRANCH   6   7
ENDBRANCH   1   6
BRANCH   1  13
HETATM   13  C           1     -22.726  -4.547  -9.495  0.00  0.00     0.251 C 
HETATM   14  O           1     -21.781  -4.788 -10.209  0.00  0.00    -0.271 OA
HETATM   15  N           1     -22.629  -4.741  -8.144  0.00  0.00    -0.342 N 
HETATM   16  H           1     -23.420  -4.538  -7.546  0.00  0.00     0.163 HD
BRANCH  15  17
HETATM   17  C           1     -21.394  -5.236  -7.568  0.00  0.00     0.214 C 
BRANCH  17  18
HETATM   18  C           1     -21.713  -6.173  -6.428  0.00  0.00     0.199 C 
HETATM   19  O           1     -22.502  -5.815  -5.526  0.00  0.00    -0.646 OA
HETATM   20  O           1     -21.187  -7.305  -6.384  0.00  0.00    -0.646 OA
ENDBRANCH  17  18
BRANCH  17  21
HETATM   21  C           1     -20.570  -4.064  -7.048  0.00  0.00     0.147 C 
HETATM   22  C           1     -19.382  -3.831  -7.971  0.00  0.00     0.042 C 
BRANCH  21  23
HETATM   23  O           1     -21.369  -2.913  -7.012  0.00  0.00    -0.393 OA
HETATM   24  H           1     -21.640  -2.739  -7.897  0.00  0.00     0.210 HD
ENDBRANCH  21  23
ENDBRANCH  17  21
ENDBRANCH  15  17
ENDBRANCH   1  13
TORSDOF 10
ENDMDL
MODEL 7
REMARK VINA RESULT:      -5.4      1.520      2.085
REMARK  10 active torsions:
REMARK  status: ('A' for Active; 'I' for Inactive)
REMARK    1  A    between atoms: N_8  and  C_15 
REMARK    2  A    between atoms: O_11  and  P_12 
REMARK    3  A    between atoms: P_12  and  O_13 
REMARK    4  A    between atoms: O_13  and  C_14 
REMARK    5  A    between atoms: C_14  and  C_15 
REMARK    6  A    between atoms: C_15  and  C_16 
REMARK       I    between atoms: C_16  and  N_17 
REMARK    7  A    between atoms: N_17  and  C_21 
REMARK    8  A    between atoms: C_20  and  C_21 
REMARK    9  A    between atoms: C_21  and  C_23 
REMARK   10  A    between atoms: O_22  and  C_23 
ROOT
HETATM    1  C           1     -35.970  -0.728 -12.409  0.00  0.00     0.298 C 
ENDROOT
BRANCH   1   2
HETATM    2  N           1     -34.957   0.345 -12.145  0.00  0.00    -0.064 N 
HETATM    3  H           1     -34.333   0.050 -11.359  0.00  0.00     0.275 HD
HETATM    4  H           1     -35.447   1.231 -11.886  0.00  0.00     0.275 HD
HETATM    5  H           1     -34.384   0.503 -13.004  0.00  0.00     0.275 HD
ENDBRANCH   1   2
BRANCH   1   6
HETATM    6  C           1     -36.958  -0.244 -13.461  0.00  0.00     0.224 C 
BRANCH   6   7
HETATM    7  O           1     -36.371   0.780 -14.219  0.00  0.00    -0.287 OA
BRANCH   7   8
HETATM    8  P           1     -36.597   0.697 -15.816  0.00  0.00     0.406 P 
HETATM    9  O           1     -38.013   0.376 -16.098  0.00  0.00    -0.624 OA
HETATM   10  O           1     -36.254   2.000 -16.429  0.00  0.00    -0.624 OA
BRANCH   8  11
HETATM   11  O           1     -35.649  -0.454 -16.435  0.00  0.00    -0.300 OA
HETATM   12  H           1     -36.241  -1.116 -16.748  0.00  0.00     0.223 HD
ENDBRANCH   8  11
ENDBRANCH   7   8
ENDBRANCH   6   7
ENDBRANCH   1   6
BRANCH   1  13
HETATM   13  C           1     -35.270  -1.969 -12.906  0.00  0.00     0.251 C 
HETATM   14  O           1     -34.890  -2.029 -14.052  0.00  0.00    -0.271 OA
HETATM   15  N           1     -35.065  -3.025 -12.061  0.00  0.00    -0.342 N 
HETATM   16  H           1     -35.383  -2.974 -11.101  0.00  0.00     0.163 HD
BRANCH  15  17
HETATM   17  C           1     -34.391  -4.216 -12.538  0.00  0.00     0.214 C 
BRANCH  17  18
HETATM   18  C           1     -34.990  -5.432 -11.872  0.00  0.00     0.199 C 
HETATM   19  O           1     -35.135  -5.457 -10.630  0.00  0.00    -0.646 OA
HETATM   20  O           1     -35.340  -6.414 -12.562  0.00  0.00    -0.646 OA
ENDBRANCH  17  18
BRANCH  17  21
HETATM   21  C           1     -32.908  -4.132 -12.201  0.00  0.00     0.147 C 
HETATM   22  C           1     -32.688  -3.052 -11.149  0.00  0.00     0.042 C 
BRANCH  21  23
HETATM   23  O           1     -32.472  -5.367 -11.702  0.00  0.00    -0.393 OA
HETATM   24  H           1     -32.757  -6.025 -12.312  0.00  0.00     0.210 HD
ENDBRANCH  21  23
ENDBRANCH  17  21
ENDBRANCH  15  17
ENDBRANCH   1  13
TORSDOF 10
ENDMDL
MODEL 8
REMARK VINA RESULT:      -5.4      3.320      5.125
REMARK  10 active torsions:
REMARK  status: ('A' for Active; 'I' for Inactive)
REMARK    1  A    between atoms: N_8  and  C_15 
REMARK    2  A    between atoms: O_11  and  P_12 
REMARK    3  A    between atoms: P_12  and  O_13 
REMARK    4  A    between atoms: O_13  and  C_14 
REMARK    5  A    between atoms: C_14  and  C_15 
REMARK    6  A    between atoms: C_15  and  C_16 
REMARK       I    between atoms: C_16  and  N_17 
REMARK    7  A    between atoms: N_17  and  C_21 
REMARK    8  A    between atoms: C_20  and  C_21 
REMARK    9  A    between atoms: C_21  and  C_23 
REMARK   10  A    between atoms: O_22  and  C_23 
ROOT
HETATM    1  C           1     -35.689  -1.771 -11.261  0.00  0.00     0.298 C 
ENDROOT
BRANCH   1   2
HETATM    2  N           1     -34.251  -1.400 -11.063  0.00  0.00    -0.064 N 
HETATM    3  H           1     -33.990  -1.536 -10.061  0.00  0.00     0.275 HD
HETATM    4  H           1     -34.110  -0.398 -11.327  0.00  0.00     0.275 HD
HETATM    5  H           1     -33.648  -2.005 -11.665  0.00  0.00     0.275 HD
ENDBRANCH   1   2
BRANCH   1   6
HETATM    6  C           1     -36.489  -1.376 -10.027  0.00  0.00     0.224 C 
BRANCH   6   7
HETATM    7  O           1     -36.100  -0.096  -9.606  0.00  0.00    -0.287 OA
BRANCH   7   8
HETATM    8  P           1     -37.214   0.754  -8.804  0.00  0.00     0.406 P 
HETATM    9  O           1     -38.075   1.474  -9.769  0.00  0.00    -0.624 OA
HETATM   10  O           1     -38.043  -0.165  -7.992  0.00  0.00    -0.624 OA
BRANCH   8  11
HETATM   11  O           1     -36.484   1.819  -7.834  0.00  0.00    -0.300 OA
HETATM   12  H           1     -36.923   2.636  -7.994  0.00  0.00     0.223 HD
ENDBRANCH   8  11
ENDBRANCH   7   8
ENDBRANCH   6   7
ENDBRANCH   1   6
BRANCH   1  13
HETATM   13  C           1     -36.235  -1.046 -12.467  0.00  0.00     0.251 C 
HETATM   14  O           1     -37.370  -0.631 -12.460  0.00  0.00    -0.271 OA
HETATM   15  N           1     -35.444  -0.858 -13.568  0.00  0.00    -0.342 N 
HETATM   16  H           1     -34.493  -1.205 -13.574  0.00  0.00     0.163 HD
BRANCH  15  17
HETATM   17  C           1     -35.967  -0.161 -14.727  0.00  0.00     0.214 C 
BRANCH  17  18
HETATM   18  C           1     -35.974  -1.095 -15.913  0.00  0.00     0.199 C 
HETATM   19  O           1     -35.057  -1.934 -16.053  0.00  0.00    -0.646 OA
HETATM   20  O           1     -36.893  -1.028 -16.756  0.00  0.00    -0.646 OA
ENDBRANCH  17  18
BRANCH  17  21
HETATM   21  C           1     -35.089   1.045 -15.034  0.00  0.00     0.147 C 
HETATM   22  C           1     -35.916   2.107 -15.746  0.00  0.00     0.042 C 
BRANCH  21  23
HETATM   23  O           1     -34.584   1.571 -13.837  0.00  0.00    -0.393 OA
HETATM   24  H           1     -35.309   1.966 -13.383  0.00  0.00     0.210 HD
ENDBRANCH  21  23
ENDBRANCH  17  21
ENDBRANCH  15  17
ENDBRANCH   1  13
TORSDOF 10
ENDMDL
MODEL 9
REMARK VINA RESULT:      -5.2      4.550      5.901
REMARK  10 active torsions:
REMARK  status: ('A' for Active; 'I' for Inactive)
REMARK    1  A    between atoms: N_8  and  C_15 
REMARK    2  A    between atoms: O_11  and  P_12 
REMARK    3  A    between atoms: P_12  and  O_13 
REMARK    4  A    between atoms: O_13  and  C_14 
REMARK    5  A    between atoms: C_14  and  C_15 
REMARK    6  A    between atoms: C_15  and  C_16 
REMARK       I    between atoms: C_16  and  N_17 
REMARK    7  A    between atoms: N_17  and  C_21 
REMARK    8  A    between atoms: C_20  and  C_21 
REMARK    9  A    between atoms: C_21  and  C_23 
REMARK   10  A    between atoms: O_22  and  C_23 
ROOT
HETATM    1  C           1     -33.591  -4.153 -16.899  0.00  0.00     0.298 C 
ENDROOT
BRANCH   1   2
HETATM    2  N           1     -34.062  -4.805 -15.633  0.00  0.00    -0.064 N 
HETATM    3  H           1     -34.566  -4.102 -15.047  0.00  0.00     0.275 HD
HETATM    4  H           1     -33.239  -5.174 -15.105  0.00  0.00     0.275 HD
HETATM    5  H           1     -34.707  -5.593 -15.866  0.00  0.00     0.275 HD
ENDBRANCH   1   2
BRANCH   1   6
HETATM    6  C           1     -34.000  -2.686 -16.896  0.00  0.00     0.224 C 
BRANCH   6   7
HETATM    7  O           1     -35.054  -2.495 -15.991  0.00  0.00    -0.287 OA
BRANCH   7   8
HETATM    8  P           1     -35.713  -1.021 -15.972  0.00  0.00     0.406 P 
HETATM    9  O           1     -36.788  -0.974 -14.956  0.00  0.00    -0.624 OA
HETATM   10  O           1     -34.673  -0.022 -15.638  0.00  0.00    -0.624 OA
BRANCH   8  11
HETATM   11  O           1     -36.330  -0.688 -17.426  0.00  0.00    -0.300 OA
HETATM   12  H           1     -36.135  -1.444 -17.953  0.00  0.00     0.223 HD
ENDBRANCH   8  11
ENDBRANCH   7   8
ENDBRANCH   6   7
ENDBRANCH   1   6
BRANCH   1  13
HETATM   13  C           1     -32.089  -4.257 -16.990  0.00  0.00     0.251 C 
HETATM   14  O           1     -31.437  -3.298 -17.329  0.00  0.00    -0.271 OA
HETATM   15  N           1     -31.464  -5.436 -16.687  0.00  0.00    -0.342 N 
HETATM   16  H           1     -32.011  -6.239 -16.402  0.00  0.00     0.163 HD
BRANCH  15  17
HETATM   17  C           1     -30.021  -5.536 -16.773  0.00  0.00     0.214 C 
BRANCH  17  18
HETATM   18  C           1     -29.641  -6.219 -18.065  0.00  0.00     0.199 C 
HETATM   19  O           1     -30.165  -7.313 -18.371  0.00  0.00    -0.646 OA
HETATM   20  O           1     -28.803  -5.693 -18.828  0.00  0.00    -0.646 OA
ENDBRANCH  17  18
BRANCH  17  21
HETATM   21  C           1     -29.497  -6.349 -15.596  0.00  0.00     0.147 C 
HETATM   22  C           1     -27.993  -6.540 -15.742  0.00  0.00     0.042 C 
BRANCH  21  23
HETATM   23  O           1     -29.768  -5.668 -14.401  0.00  0.00    -0.393 OA
HETATM   24  H           1     -29.362  -6.159 -13.707  0.00  0.00     0.210 HD
ENDBRANCH  21  23
ENDBRANCH  17  21
ENDBRANCH  15  17
ENDBRANCH   1  13
TORSDOF 10
ENDMDL
