MODEL 1
REMARK VINA RESULT:      -6.8      0.000      0.000
REMARK  6 active torsions:
REMARK  status: ('A' for Active; 'I' for Inactive)
REMARK    1  A    between atoms: N_2  and  C_13 
REMARK       I    between atoms: C_8  and  N_15 
REMARK    2  A    between atoms: C_8  and  C_13 
REMARK    3  A    between atoms: C_10  and  C_11 
REMARK    4  A    between atoms: C_11  and  C_13 
REMARK    5  A    between atoms: N_15  and  C_21 
REMARK    6  A    between atoms: C_20  and  C_21 
ROOT
HETATM    1  C           1     -34.508  -2.316 -11.901  0.00  0.00     0.280 C 
ENDROOT
BRANCH   1   2
HETATM    2  N           1     -33.826  -1.373 -10.956  0.00  0.00    -0.066 N 
HETATM    3  H           1     -32.987  -0.959 -11.422  0.00  0.00     0.275 HD
HETATM    4  H           1     -34.487  -0.610 -10.687  0.00  0.00     0.275 HD
HETATM    5  H           1     -33.529  -1.893 -10.099  0.00  0.00     0.275 HD
ENDBRANCH   1   2
BRANCH   1   6
HETATM    6  C           1     -35.412  -1.536 -12.824  0.00  0.00     0.249 C 
HETATM    7  N           1     -34.934  -1.070 -14.019  0.00  0.00    -0.345 N 
HETATM    8  H           1     -33.973  -1.249 -14.283  0.00  0.00     0.163 HD
HETATM    9  O           1     -36.559  -1.324 -12.508  0.00  0.00    -0.271 OA
BRANCH   7  10
HETATM   10  C           1     -35.803  -0.321 -14.906  0.00  0.00     0.181 C 
HETATM   11  C           1     -35.311   1.117 -15.002  0.00  0.00     0.043 C 
BRANCH  10  12
HETATM   12  C           1     -35.786  -0.951 -16.276  0.00  0.00     0.196 C 
HETATM   13  O           1     -36.734  -0.755 -17.066  0.00  0.00    -0.646 OA
HETATM   14  O           1     -34.824  -1.672 -16.621  0.00  0.00    -0.646 OA
ENDBRANCH  10  12
ENDBRANCH   7  10
ENDBRANCH   1   6
BRANCH   1  15
HETATM   15  C           1     -35.335  -3.320 -11.108  0.00  0.00     0.101 C 
BRANCH  15  16
HETATM   16  C           1     -34.605  -4.625 -11.039  0.00  0.00     0.028 A 
HETATM   17  N           1     -35.081  -5.752 -10.421  0.00  0.00    -0.355 N 
HETATM   18  C           1     -34.147  -6.660 -10.588  0.00  0.00     0.180 A 
ATOM     19  HN          1     -35.971  -5.862  -9.935  1.00  0.00     0.166 HD
HETATM   20  N           1     -33.086  -6.162 -11.289  0.00  0.00    -0.360 N 
HETATM   21  C           1     -33.365  -4.857 -11.586  0.00  0.00     0.114 A 
HETATM   22  H           1     -32.215  -6.686 -11.553  0.00  0.00     0.166 HD
ENDBRANCH  15  16
ENDBRANCH   1  15
TORSDOF 6
ENDMDL
MODEL 2
REMARK VINA RESULT:      -6.4     13.143     15.164
REMARK  6 active torsions:
REMARK  status: ('A' for Active; 'I' for Inactive)
REMARK    1  A    between atoms: N_2  and  C_13 
REMARK       I    between atoms: C_8  and  N_15 
REMARK    2  A    between atoms: C_8  and  C_13 
REMARK    3  A    between atoms: C_10  and  C_11 
REMARK    4  A    between atoms: C_11  and  C_13 
REMARK    5  A    between atoms: N_15  and  C_21 
REMARK    6  A    between atoms: C_20  and  C_21 
ROOT
HETATM    1  C           1     -21.359  -3.549 -10.676  0.00  0.00     0.280 C 
ENDROOT
BRANCH   1   2
HETATM    2  N           1     -20.366  -2.710 -11.423  0.00  0.00    -0.066 N 
HETATM    3  H           1     -20.179  -3.141 -12.357  0.00  0.00     0.275 HD
HETATM    4  H           1     -20.751  -1.747 -11.556  0.00  0.00     0.275 HD
HETATM    5  H           1     -19.475  -2.655 -10.879  0.00  0.00     0.275 HD
ENDBRANCH   1   2
BRANCH   1   6
HETATM    6  C           1     -20.626  -4.479  -9.740  0.00  0.00     0.249 C 
HETATM    7  N           1     -21.009  -4.572  -8.428  0.00  0.00    -0.345 N 
HETATM    8  H           1     -21.784  -4.016  -8.087  0.00  0.00     0.163 HD
HETATM    9  O           1     -19.703  -5.141 -10.147  0.00  0.00    -0.271 OA
BRANCH   7  10
HETATM   10  C           1     -20.306  -5.465  -7.529  0.00  0.00     0.181 C 
HETATM   11  C           1     -19.278  -4.675  -6.730  0.00  0.00     0.043 C 
BRANCH  10  12
HETATM   12  C           1     -21.292  -6.105  -6.584  0.00  0.00     0.196 C 
HETATM   13  O           1     -21.238  -7.334  -6.362  0.00  0.00    -0.646 OA
HETATM   14  O           1     -22.165  -5.407  -6.025  0.00  0.00    -0.646 OA
ENDBRANCH  10  12
ENDBRANCH   7  10
ENDBRANCH   1   6
BRANCH   1  15
HETATM   15  C           1     -22.179  -4.366 -11.665  0.00  0.00     0.101 C 
BRANCH  15  16
HETATM   16  C           1     -22.822  -3.450 -12.659  0.00  0.00     0.028 A 
HETATM   17  N           1     -22.383  -3.265 -13.944  0.00  0.00    -0.355 N 
HETATM   18  C           1     -23.212  -2.393 -14.471  0.00  0.00     0.180 A 
ATOM     19  HN          1     -21.584  -3.710 -14.395  1.00  0.00     0.166 HD
HETATM   20  N           1     -24.169  -2.008 -13.576  0.00  0.00    -0.360 N 
HETATM   21  C           1     -23.931  -2.678 -12.408  0.00  0.00     0.114 A 
HETATM   22  H           1     -24.945  -1.324 -13.752  0.00  0.00     0.166 HD
ENDBRANCH  15  16
ENDBRANCH   1  15
TORSDOF 6
ENDMDL
MODEL 3
REMARK VINA RESULT:      -6.3      3.459      5.722
REMARK  6 active torsions:
REMARK  status: ('A' for Active; 'I' for Inactive)
REMARK    1  A    between atoms: N_2  and  C_13 
REMARK       I    between atoms: C_8  and  N_15 
REMARK    2  A    between atoms: C_8  and  C_13 
REMARK    3  A    between atoms: C_10  and  C_11 
REMARK    4  A    between atoms: C_11  and  C_13 
REMARK    5  A    between atoms: N_15  and  C_21 
REMARK    6  A    between atoms: C_20  and  C_21 
ROOT
HETATM    1  C           1     -36.298  -0.445 -11.839  0.00  0.00     0.280 C 
ENDROOT
BRANCH   1   2
HETATM    2  N           1     -37.354  -0.106 -12.848  0.00  0.00    -0.066 N 
HETATM    3  H           1     -37.951  -0.947 -13.023  0.00  0.00     0.275 HD
HETATM    4  H           1     -37.948   0.672 -12.483  0.00  0.00     0.275 HD
HETATM    5  H           1     -36.900   0.192 -13.741  0.00  0.00     0.275 HD
ENDBRANCH   1   2
BRANCH   1   6
HETATM    6  C           1     -35.355  -1.469 -12.423  0.00  0.00     0.249 C 
HETATM    7  N           1     -35.060  -2.607 -11.721  0.00  0.00    -0.345 N 
HETATM    8  H           1     -35.474  -2.761 -10.811  0.00  0.00     0.163 HD
HETATM    9  O           1     -34.863  -1.285 -13.510  0.00  0.00    -0.271 OA
BRANCH   7  10
HETATM   10  C           1     -34.155  -3.591 -12.282  0.00  0.00     0.181 C 
HETATM   11  C           1     -32.825  -3.538 -11.542  0.00  0.00     0.043 C 
BRANCH  10  12
HETATM   12  C           1     -34.757  -4.967 -12.137  0.00  0.00     0.196 C 
HETATM   13  O           1     -34.747  -5.539 -11.026  0.00  0.00    -0.646 OA
HETATM   14  O           1     -35.263  -5.535 -13.129  0.00  0.00    -0.646 OA
ENDBRANCH  10  12
ENDBRANCH   7  10
ENDBRANCH   1   6
BRANCH   1  15
HETATM   15  C           1     -36.954  -1.014 -10.588  0.00  0.00     0.101 C 
BRANCH  15  16
HETATM   16  C           1     -36.989   0.035  -9.520  0.00  0.00     0.028 A 
HETATM   17  N           1     -36.168   0.057  -8.423  0.00  0.00    -0.355 N 
HETATM   18  C           1     -36.521   1.126  -7.748  0.00  0.00     0.180 A 
ATOM     19  HN          1     -35.439  -0.615  -8.182  1.00  0.00     0.166 HD
HETATM   20  N           1     -37.538   1.796  -8.367  0.00  0.00    -0.360 N 
HETATM   21  C           1     -37.849   1.107  -9.506  0.00  0.00     0.114 A 
HETATM   22  H           1     -37.996   2.678  -8.030  0.00  0.00     0.166 HD
ENDBRANCH  15  16
ENDBRANCH   1  15
TORSDOF 6
ENDMDL
MODEL 4
REMARK VINA RESULT:      -6.2     12.967     15.093
REMARK  6 active torsions:
REMARK  status: ('A' for Active; 'I' for Inactive)
REMARK    1  A    between atoms: N_2  and  C_13 
REMARK       I    between atoms: C_8  and  N_15 
REMARK    2  A    between atoms: C_8  and  C_13 
REMARK    3  A    between atoms: C_10  and  C_11 
REMARK    4  A    between atoms: C_11  and  C_13 
REMARK    5  A    between atoms: N_15  and  C_21 
REMARK    6  A    between atoms: C_20  and  C_21 
ROOT
HETATM    1  C           1     -22.721  -4.459  -9.193  0.00  0.00     0.280 C 
ENDROOT
BRANCH   1   2
HETATM    2  N           1     -23.806  -3.987  -8.271  0.00  0.00    -0.066 N 
HETATM    3  H           1     -23.618  -2.998  -7.990  0.00  0.00     0.275 HD
HETATM    4  H           1     -24.728  -4.042  -8.759  0.00  0.00     0.275 HD
HETATM    5  H           1     -23.827  -4.593  -7.419  0.00  0.00     0.275 HD
ENDBRANCH   1   2
BRANCH   1   6
HETATM    6  C           1     -21.551  -4.954  -8.379  0.00  0.00     0.249 C 
HETATM    7  N           1     -21.740  -5.365  -7.087  0.00  0.00    -0.345 N 
HETATM    8  H           1     -22.665  -5.336  -6.678  0.00  0.00     0.163 HD
HETATM    9  O           1     -20.447  -4.990  -8.869  0.00  0.00    -0.271 OA
BRANCH   7  10
HETATM   10  C           1     -20.615  -5.841  -6.305  0.00  0.00     0.181 C 
HETATM   11  C           1     -20.132  -4.730  -5.383  0.00  0.00     0.043 C 
BRANCH  10  12
HETATM   12  C           1     -21.045  -7.028  -5.480  0.00  0.00     0.196 C 
HETATM   13  O           1     -21.213  -6.905  -4.248  0.00  0.00    -0.646 OA
HETATM   14  O           1     -21.230  -8.136  -6.029  0.00  0.00    -0.646 OA
ENDBRANCH  10  12
ENDBRANCH   7  10
ENDBRANCH   1   6
BRANCH   1  15
HETATM   15  C           1     -22.272  -3.305 -10.080  0.00  0.00     0.101 C 
BRANCH  15  16
HETATM   16  C           1     -22.954  -3.401 -11.409  0.00  0.00     0.028 A 
HETATM   17  N           1     -23.143  -2.348 -12.265  0.00  0.00    -0.355 N 
HETATM   18  C           1     -23.772  -2.852 -13.301  0.00  0.00     0.180 A 
ATOM     19  HN          1     -22.855  -1.378 -12.127  1.00  0.00     0.166 HD
HETATM   20  N           1     -23.998  -4.190 -13.147  0.00  0.00    -0.360 N 
HETATM   21  C           1     -23.478  -4.557 -11.937  0.00  0.00     0.114 A 
HETATM   22  H           1     -24.481  -4.822 -13.832  0.00  0.00     0.166 HD
ENDBRANCH  15  16
ENDBRANCH   1  15
TORSDOF 6
ENDMDL
MODEL 5
REMARK VINA RESULT:      -6.2     12.172     13.450
REMARK  6 active torsions:
REMARK  status: ('A' for Active; 'I' for Inactive)
REMARK    1  A    between atoms: N_2  and  C_13 
REMARK       I    between atoms: C_8  and  N_15 
REMARK    2  A    between atoms: C_8  and  C_13 
REMARK    3  A    between atoms: C_10  and  C_11 
REMARK    4  A    between atoms: C_11  and  C_13 
REMARK    5  A    between atoms: N_15  and  C_21 
REMARK    6  A    between atoms: C_20  and  C_21 
ROOT
HETATM    1  C           1     -21.262  -4.412 -10.633  0.00  0.00     0.280 C 
ENDROOT
BRANCH   1   2
HETATM    2  N           1     -20.103  -3.678 -11.238  0.00  0.00    -0.066 N 
HETATM    3  H           1     -20.452  -2.835 -11.748  0.00  0.00     0.275 HD
HETATM    4  H           1     -19.445  -3.381 -10.482  0.00  0.00     0.275 HD
HETATM    5  H           1     -19.603  -4.308 -11.906  0.00  0.00     0.275 HD
ENDBRANCH   1   2
BRANCH   1   6
HETATM    6  C           1     -22.435  -4.368 -11.582  0.00  0.00     0.249 C 
HETATM    7  N           1     -22.464  -3.445 -12.592  0.00  0.00    -0.345 N 
HETATM    8  H           1     -21.698  -2.792 -12.702  0.00  0.00     0.163 HD
HETATM    9  O           1     -23.348  -5.148 -11.450  0.00  0.00    -0.271 OA
BRANCH   7  10
HETATM   10  C           1     -23.590  -3.402 -13.504  0.00  0.00     0.181 C 
HETATM   11  C           1     -24.815  -2.870 -12.773  0.00  0.00     0.043 C 
BRANCH  10  12
HETATM   12  C           1     -23.263  -2.494 -14.664  0.00  0.00     0.196 C 
HETATM   13  O           1     -22.336  -2.791 -15.447  0.00  0.00    -0.646 OA
HETATM   14  O           1     -23.919  -1.445 -14.840  0.00  0.00    -0.646 OA
ENDBRANCH  10  12
ENDBRANCH   7  10
ENDBRANCH   1   6
BRANCH   1  15
HETATM   15  C           1     -21.649  -3.752  -9.316  0.00  0.00     0.101 C 
BRANCH  15  16
HETATM   16  C           1     -20.957  -4.448  -8.185  0.00  0.00     0.028 A 
HETATM   17  N           1     -20.274  -5.631  -8.300  0.00  0.00    -0.355 N 
HETATM   18  C           1     -19.826  -5.891  -7.093  0.00  0.00     0.180 A 
ATOM     19  HN          1     -20.143  -6.190  -9.143  1.00  0.00     0.166 HD
HETATM   20  N           1     -20.193  -4.922  -6.204  0.00  0.00    -0.360 N 
HETATM   21  C           1     -20.920  -3.988  -6.890  0.00  0.00     0.114 A 
HETATM   22  H           1     -19.960  -4.897  -5.180  0.00  0.00     0.166 HD
ENDBRANCH  15  16
ENDBRANCH   1  15
TORSDOF 6
ENDMDL
MODEL 6
REMARK VINA RESULT:      -5.9     13.070     14.543
REMARK  6 active torsions:
REMARK  status: ('A' for Active; 'I' for Inactive)
REMARK    1  A    between atoms: N_2  and  C_13 
REMARK       I    between atoms: C_8  and  N_15 
REMARK    2  A    between atoms: C_8  and  C_13 
REMARK    3  A    between atoms: C_10  and  C_11 
REMARK    4  A    between atoms: C_11  and  C_13 
REMARK    5  A    between atoms: N_15  and  C_21 
REMARK    6  A    between atoms: C_20  and  C_21 
ROOT
HETATM    1  C           1     -21.058  -5.551  -7.128  0.00  0.00     0.280 C 
ENDROOT
BRANCH   1   2
HETATM    2  N           1     -19.828  -6.002  -7.859  0.00  0.00    -0.066 N 
HETATM    3  H           1     -19.020  -5.397  -7.586  0.00  0.00     0.275 HD
HETATM    4  H           1     -19.619  -6.995  -7.612  0.00  0.00     0.275 HD
HETATM    5  H           1     -19.988  -5.926  -8.889  0.00  0.00     0.275 HD
ENDBRANCH   1   2
BRANCH   1   6
HETATM    6  C           1     -21.710  -4.423  -7.890  0.00  0.00     0.249 C 
HETATM    7  N           1     -22.212  -4.644  -9.145  0.00  0.00    -0.345 N 
HETATM    8  H           1     -22.145  -5.565  -9.561  0.00  0.00     0.163 HD
HETATM    9  O           1     -21.790  -3.326  -7.393  0.00  0.00    -0.271 OA
BRANCH   7  10
HETATM   10  C           1     -22.838  -3.561  -9.877  0.00  0.00     0.181 C 
HETATM   11  C           1     -22.072  -3.312 -11.169  0.00  0.00     0.043 C 
BRANCH  10  12
HETATM   12  C           1     -24.264  -3.933 -10.201  0.00  0.00     0.196 C 
HETATM   13  O           1     -24.986  -3.140 -10.843  0.00  0.00    -0.646 OA
HETATM   14  O           1     -24.723  -5.034  -9.826  0.00  0.00    -0.646 OA
ENDBRANCH  10  12
ENDBRANCH   7  10
ENDBRANCH   1   6
BRANCH   1  15
HETATM   15  C           1     -20.672  -5.068  -5.736  0.00  0.00     0.101 C 
BRANCH  15  16
HETATM   16  C           1     -20.939  -6.153  -4.739  0.00  0.00     0.028 A 
HETATM   17  N           1     -21.635  -5.983  -3.571  0.00  0.00    -0.355 N 
HETATM   18  C           1     -21.640  -7.164  -2.996  0.00  0.00     0.180 A 
ATOM     19  HN          1     -22.059  -5.123  -3.223  1.00  0.00     0.166 HD
HETATM   20  N           1     -20.973  -8.089  -3.747  0.00  0.00    -0.360 N 
HETATM   21  C           1     -20.517  -7.455  -4.870  0.00  0.00     0.114 A 
HETATM   22  H           1     -20.836  -9.102  -3.508  0.00  0.00     0.166 HD
ENDBRANCH  15  16
ENDBRANCH   1  15
TORSDOF 6
ENDMDL
MODEL 7
REMARK VINA RESULT:      -5.7     14.275     16.462
REMARK  6 active torsions:
REMARK  status: ('A' for Active; 'I' for Inactive)
REMARK    1  A    between atoms: N_2  and  C_13 
REMARK       I    between atoms: C_8  and  N_15 
REMARK    2  A    between atoms: C_8  and  C_13 
REMARK    3  A    between atoms: C_10  and  C_11 
REMARK    4  A    between atoms: C_11  and  C_13 
REMARK    5  A    between atoms: N_15  and  C_21 
REMARK    6  A    between atoms: C_20  and  C_21 
ROOT
HETATM    1  C           1     -22.265  -4.979  -6.929  0.00  0.00     0.280 C 
ENDROOT
BRANCH   1   2
HETATM    2  N           1     -23.683  -4.677  -6.544  0.00  0.00    -0.066 N 
HETATM    3  H           1     -23.907  -3.686  -6.791  0.00  0.00     0.275 HD
HETATM    4  H           1     -24.328  -5.319  -7.057  0.00  0.00     0.275 HD
HETATM    5  H           1     -23.800  -4.816  -5.514  0.00  0.00     0.275 HD
ENDBRANCH   1   2
BRANCH   1   6
HETATM    6  C           1     -21.474  -5.337  -5.695  0.00  0.00     0.249 C 
HETATM    7  N           1     -22.053  -6.085  -4.704  0.00  0.00    -0.345 N 
HETATM    8  H           1     -23.011  -6.397  -4.800  0.00  0.00     0.163 HD
HETATM    9  O           1     -20.331  -4.966  -5.581  0.00  0.00    -0.271 OA
BRANCH   7  10
HETATM   10  C           1     -21.293  -6.430  -3.518  0.00  0.00     0.181 C 
HETATM   11  C           1     -22.143  -6.179  -2.280  0.00  0.00     0.043 C 
BRANCH  10  12
HETATM   12  C           1     -20.906  -7.887  -3.576  0.00  0.00     0.196 C 
HETATM   13  O           1     -21.550  -8.730  -2.916  0.00  0.00    -0.646 OA
HETATM   14  O           1     -19.941  -8.250  -4.282  0.00  0.00    -0.646 OA
ENDBRANCH  10  12
ENDBRANCH   7  10
ENDBRANCH   1   6
BRANCH   1  15
HETATM   15  C           1     -21.648  -3.753  -7.590  0.00  0.00     0.101 C 
BRANCH  15  16
HETATM   16  C           1     -21.418  -4.032  -9.043  0.00  0.00     0.028 A 
HETATM   17  N           1     -20.187  -4.211  -9.617  0.00  0.00    -0.355 N 
HETATM   18  C           1     -20.425  -4.427 -10.890  0.00  0.00     0.180 A 
ATOM     19  HN          1     -19.278  -4.184  -9.153  1.00  0.00     0.166 HD
HETATM   20  N           1     -21.763  -4.393 -11.161  0.00  0.00    -0.360 N 
HETATM   21  C           1     -22.414  -4.140  -9.985  0.00  0.00     0.114 A 
HETATM   22  H           1     -22.211  -4.536 -12.099  0.00  0.00     0.166 HD
ENDBRANCH  15  16
ENDBRANCH   1  15
TORSDOF 6
ENDMDL
MODEL 8
REMARK VINA RESULT:      -5.5     11.341     12.460
REMARK  6 active torsions:
REMARK  status: ('A' for Active; 'I' for Inactive)
REMARK    1  A    between atoms: N_2  and  C_13 
REMARK       I    between atoms: C_8  and  N_15 
REMARK    2  A    between atoms: C_8  and  C_13 
REMARK    3  A    between atoms: C_10  and  C_11 
REMARK    4  A    between atoms: C_11  and  C_13 
REMARK    5  A    between atoms: N_15  and  C_21 
REMARK    6  A    between atoms: C_20  and  C_21 
ROOT
HETATM    1  C           1     -23.441  -3.263 -10.576  0.00  0.00     0.280 C 
ENDROOT
BRANCH   1   2
HETATM    2  N           1     -24.915  -3.447 -10.784  0.00  0.00    -0.066 N 
HETATM    3  H           1     -25.436  -2.999  -9.997  0.00  0.00     0.275 HD
HETATM    4  H           1     -25.198  -3.004 -11.687  0.00  0.00     0.275 HD
HETATM    5  H           1     -25.137  -4.468 -10.814  0.00  0.00     0.275 HD
ENDBRANCH   1   2
BRANCH   1   6
HETATM    6  C           1     -22.816  -2.740 -11.846  0.00  0.00     0.249 C 
HETATM    7  N           1     -23.609  -2.374 -12.900  0.00  0.00    -0.345 N 
HETATM    8  H           1     -24.616  -2.455 -12.826  0.00  0.00     0.163 HD
HETATM    9  O           1     -21.615  -2.643 -11.932  0.00  0.00    -0.271 OA
BRANCH   7  10
HETATM   10  C           1     -23.009  -1.871 -14.120  0.00  0.00     0.181 C 
HETATM   11  C           1     -22.753  -3.029 -15.074  0.00  0.00     0.043 C 
BRANCH  10  12
HETATM   12  C           1     -23.944  -0.882 -14.769  0.00  0.00     0.196 C 
HETATM   13  O           1     -23.493  -0.008 -15.540  0.00  0.00    -0.646 OA
HETATM   14  O           1     -25.171  -0.935 -14.534  0.00  0.00    -0.646 OA
ENDBRANCH  10  12
ENDBRANCH   7  10
ENDBRANCH   1   6
BRANCH   1  15
HETATM   15  C           1     -22.809  -4.601 -10.212  0.00  0.00     0.101 C 
BRANCH  15  16
HETATM   16  C           1     -22.137  -4.490  -8.879  0.00  0.00     0.028 A 
HETATM   17  N           1     -21.644  -5.550  -8.165  0.00  0.00    -0.355 N 
HETATM   18  C           1     -21.143  -5.028  -7.069  0.00  0.00     0.180 A 
ATOM     19  HN          1     -21.663  -6.536  -8.428  1.00  0.00     0.166 HD
HETATM   20  N           1     -21.294  -3.671  -7.049  0.00  0.00    -0.360 N 
HETATM   21  C           1     -21.930  -3.311  -8.204  0.00  0.00     0.114 A 
HETATM   22  H           1     -20.978  -3.022  -6.286  0.00  0.00     0.166 HD
ENDBRANCH  15  16
ENDBRANCH   1  15
TORSDOF 6
ENDMDL
MODEL 9
REMARK VINA RESULT:      -5.4     14.825     16.628
REMARK  6 active torsions:
REMARK  status: ('A' for Active; 'I' for Inactive)
REMARK    1  A    between atoms: N_2  and  C_13 
REMARK       I    between atoms: C_8  and  N_15 
REMARK    2  A    between atoms: C_8  and  C_13 
REMARK    3  A    between atoms: C_10  and  C_11 
REMARK    4  A    between atoms: C_11  and  C_13 
REMARK    5  A    between atoms: N_15  and  C_21 
REMARK    6  A    between atoms: C_20  and  C_21 
ROOT
HETATM    1  C           1     -21.476  -7.973  -4.522  0.00  0.00     0.280 C 
ENDROOT
BRANCH   1   2
HETATM    2  N           1     -21.071  -8.865  -5.656  0.00  0.00    -0.066 N 
HETATM    3  H           1     -21.592  -8.590  -6.520  0.00  0.00     0.275 HD
HETATM    4  H           1     -20.044  -8.771  -5.825  0.00  0.00     0.275 HD
HETATM    5  H           1     -21.294  -9.858  -5.415  0.00  0.00     0.275 HD
ENDBRANCH   1   2
BRANCH   1   6
HETATM    6  C           1     -21.300  -6.530  -4.930  0.00  0.00     0.249 C 
HETATM    7  N           1     -20.987  -6.219  -6.226  0.00  0.00    -0.345 N 
HETATM    8  H           1     -20.873  -6.956  -6.910  0.00  0.00     0.163 HD
HETATM    9  O           1     -21.437  -5.651  -4.114  0.00  0.00    -0.271 OA
BRANCH   7  10
HETATM   10  C           1     -20.818  -4.833  -6.619  0.00  0.00     0.181 C 
HETATM   11  C           1     -19.480  -4.666  -7.327  0.00  0.00     0.043 C 
BRANCH  10  12
HETATM   12  C           1     -21.934  -4.436  -7.552  0.00  0.00     0.196 C 
HETATM   13  O           1     -21.675  -4.095  -8.726  0.00  0.00    -0.646 OA
HETATM   14  O           1     -23.118  -4.448  -7.151  0.00  0.00    -0.646 OA
ENDBRANCH  10  12
ENDBRANCH   7  10
ENDBRANCH   1   6
BRANCH   1  15
HETATM   15  C           1     -20.605  -8.267  -3.308  0.00  0.00     0.101 C 
BRANCH  15  16
HETATM   16  C           1     -21.448  -8.250  -2.071  0.00  0.00     0.028 A 
HETATM   17  N           1     -21.842  -7.114  -1.413  0.00  0.00    -0.355 N 
HETATM   18  C           1     -22.557  -7.534  -0.394  0.00  0.00     0.180 A 
ATOM     19  HN          1     -21.626  -6.148  -1.661  1.00  0.00     0.166 HD
HETATM   20  N           1     -22.639  -8.897  -0.369  0.00  0.00    -0.360 N 
HETATM   21  C           1     -21.932  -9.371  -1.440  0.00  0.00     0.114 A 
HETATM   22  H           1     -23.152  -9.476   0.341  0.00  0.00     0.166 HD
ENDBRANCH  15  16
ENDBRANCH   1  15
TORSDOF 6
ENDMDL
