MODEL 1
REMARK VINA RESULT:      -6.8      0.000      0.000
REMARK  3 active torsions:
REMARK  status: ('A' for Active; 'I' for Inactive)
REMARK       I    between atoms: C_8  and  N_14 
REMARK    1  A    between atoms: C_8  and  C_20 
REMARK    2  A    between atoms: C_12  and  C_19 
REMARK    3  A    between atoms: N_14  and  C_19 
ROOT
HETATM    1  H           1     -21.591  -3.780 -11.306  0.00  0.00     0.275 HD
HETATM    2  H           1     -21.735  -4.589 -12.803  0.00  0.00     0.275 HD
HETATM    3  H           1     -21.499  -5.484 -11.369  0.00  0.00     0.275 HD
HETATM    4  C           1     -21.059  -4.692  -9.001  0.00  0.00     0.229 C 
HETATM    5  H           1     -20.034  -2.946  -9.536  0.00  0.00     0.274 HD
HETATM    6  H           1     -21.092  -3.529 -10.742  0.00  0.00     0.274 HD
HETATM    7  H           1     -19.603  -4.314 -10.460  0.00  0.00     0.274 HD
HETATM    8  N           1     -20.397  -3.803 -10.012  0.00  0.00    -0.079 N 
HETATM    9  N           1     -21.953  -4.638 -11.782  0.00  0.00    -0.067 N 
HETATM   10  C           1     -23.228  -3.547  -9.412  0.00  0.00     0.004 C 
HETATM   11  C           1     -22.215  -3.947  -8.347  0.00  0.00     0.027 C 
HETATM   12  C           1     -23.440  -4.724 -11.593  0.00  0.00     0.274 C 
HETATM   13  C           1     -23.758  -4.795 -10.105  0.00  0.00     0.042 C 
ENDROOT
BRANCH  12  14
HETATM   14  C           1     -24.093  -3.502 -12.189  0.00  0.00     0.248 C 
HETATM   15  O           1     -25.141  -3.098 -11.743  0.00  0.00    -0.271 OA
HETATM   16  N           1     -23.500  -2.850 -13.237  0.00  0.00    -0.349 N 
HETATM   17  H           1     -22.622  -3.189 -13.611  0.00  0.00     0.163 HD
BRANCH  16  18
HETATM   18  C           1     -24.128  -1.676 -13.811  0.00  0.00     0.235 C 
BRANCH  18  19
HETATM   19  C           1     -23.382  -1.264 -15.056  0.00  0.00     0.191 C 
HETATM   20  O           1     -22.584  -2.058 -15.598  0.00  0.00    -0.647 OA
HETATM   21  O           1     -23.562  -0.127 -15.544  0.00  0.00    -0.647 OA
ENDBRANCH  18  19
ENDBRANCH  16  18
ENDBRANCH  12  14
TORSDOF 3
ENDMDL
MODEL 2
REMARK VINA RESULT:      -6.4      3.030      4.755
REMARK  3 active torsions:
REMARK  status: ('A' for Active; 'I' for Inactive)
REMARK       I    between atoms: C_8  and  N_14 
REMARK    1  A    between atoms: C_8  and  C_20 
REMARK    2  A    between atoms: C_12  and  C_19 
REMARK    3  A    between atoms: N_14  and  C_19 
ROOT
HETATM    1  H           1     -22.582  -4.972  -6.618  0.00  0.00     0.275 HD
HETATM    2  H           1     -23.111  -3.360  -6.811  0.00  0.00     0.275 HD
HETATM    3  H           1     -21.986  -3.748  -5.588  0.00  0.00     0.275 HD
HETATM    4  C           1     -21.089  -5.999  -4.845  0.00  0.00     0.229 C 
HETATM    5  H           1     -22.812  -7.092  -5.313  0.00  0.00     0.274 HD
HETATM    6  H           1     -22.651  -5.638  -6.191  0.00  0.00     0.274 HD
HETATM    7  H           1     -23.124  -5.598  -4.553  0.00  0.00     0.274 HD
HETATM    8  N           1     -22.528  -6.088  -5.257  0.00  0.00    -0.079 N 
HETATM    9  N           1     -22.298  -3.967  -6.561  0.00  0.00    -0.067 N 
HETATM   10  C           1     -20.400  -6.060  -7.234  0.00  0.00     0.004 C 
HETATM   11  C           1     -20.220  -6.715  -5.871  0.00  0.00     0.027 C 
HETATM   12  C           1     -21.171  -3.712  -7.518  0.00  0.00     0.274 C 
HETATM   13  C           1     -19.986  -4.596  -7.153  0.00  0.00     0.042 C 
ENDROOT
BRANCH  12  14
HETATM   14  C           1     -21.622  -4.029  -8.922  0.00  0.00     0.248 C 
HETATM   15  O           1     -20.830  -3.996  -9.834  0.00  0.00    -0.271 OA
HETATM   16  N           1     -22.930  -4.356  -9.163  0.00  0.00    -0.349 N 
HETATM   17  H           1     -23.593  -4.384  -8.400  0.00  0.00     0.163 HD
BRANCH  16  18
HETATM   18  C           1     -23.365  -4.661 -10.513  0.00  0.00     0.235 C 
BRANCH  18  19
HETATM   19  C           1     -24.154  -3.499 -11.062  0.00  0.00     0.191 C 
HETATM   20  O           1     -25.279  -3.228 -10.590  0.00  0.00    -0.647 OA
HETATM   21  O           1     -23.682  -2.806 -11.990  0.00  0.00    -0.647 OA
ENDBRANCH  18  19
ENDBRANCH  16  18
ENDBRANCH  12  14
TORSDOF 3
ENDMDL
MODEL 3
REMARK VINA RESULT:      -6.3      1.768      2.161
REMARK  3 active torsions:
REMARK  status: ('A' for Active; 'I' for Inactive)
REMARK       I    between atoms: C_8  and  N_14 
REMARK    1  A    between atoms: C_8  and  C_20 
REMARK    2  A    between atoms: C_12  and  C_19 
REMARK    3  A    between atoms: N_14  and  C_19 
ROOT
HETATM    1  H           1     -21.230  -3.213  -9.368  0.00  0.00     0.275 HD
HETATM    2  H           1     -19.851  -3.727 -10.234  0.00  0.00     0.275 HD
HETATM    3  H           1     -20.622  -4.793  -9.147  0.00  0.00     0.275 HD
HETATM    4  C           1     -22.550  -4.389  -7.550  0.00  0.00     0.229 C 
HETATM    5  H           1     -22.121  -2.372  -7.189  0.00  0.00     0.274 HD
HETATM    6  H           1     -21.508  -2.958  -8.670  0.00  0.00     0.274 HD
HETATM    7  H           1     -20.746  -3.381  -7.203  0.00  0.00     0.274 HD
HETATM    8  N           1     -21.664  -3.184  -7.662  0.00  0.00    -0.079 N 
HETATM    9  N           1     -20.772  -4.026  -9.841  0.00  0.00    -0.067 N 
HETATM   10  C           1     -23.661  -3.772  -9.688  0.00  0.00     0.004 C 
HETATM   11  C           1     -23.888  -4.102  -8.218  0.00  0.00     0.027 C 
HETATM   12  C           1     -21.653  -4.519 -10.951  0.00  0.00     0.274 C 
HETATM   13  C           1     -22.995  -4.955 -10.378  0.00  0.00     0.042 C 
ENDROOT
BRANCH  12  14
HETATM   14  C           1     -21.869  -3.411 -11.952  0.00  0.00     0.248 C 
HETATM   15  O           1     -21.482  -2.293 -11.708  0.00  0.00    -0.271 OA
HETATM   16  N           1     -22.505  -3.672 -13.136  0.00  0.00    -0.349 N 
HETATM   17  H           1     -22.829  -4.609 -13.340  0.00  0.00     0.163 HD
BRANCH  16  18
HETATM   18  C           1     -22.712  -2.607 -14.098  0.00  0.00     0.235 C 
BRANCH  18  19
HETATM   19  C           1     -24.138  -2.122 -14.011  0.00  0.00     0.191 C 
HETATM   20  O           1     -24.924  -2.633 -13.184  0.00  0.00    -0.647 OA
HETATM   21  O           1     -24.534  -1.207 -14.766  0.00  0.00    -0.647 OA
ENDBRANCH  18  19
ENDBRANCH  16  18
ENDBRANCH  12  14
TORSDOF 3
ENDMDL
MODEL 4
REMARK VINA RESULT:      -6.0      5.158      8.051
REMARK  3 active torsions:
REMARK  status: ('A' for Active; 'I' for Inactive)
REMARK       I    between atoms: C_8  and  N_14 
REMARK    1  A    between atoms: C_8  and  C_20 
REMARK    2  A    between atoms: C_12  and  C_19 
REMARK    3  A    between atoms: N_14  and  C_19 
ROOT
HETATM    1  H           1     -19.927  -5.072  -8.998  0.00  0.00     0.275 HD
HETATM    2  H           1     -18.773  -4.697  -7.797  0.00  0.00     0.275 HD
HETATM    3  H           1     -19.431  -3.456  -8.765  0.00  0.00     0.275 HD
HETATM    4  C           1     -21.002  -3.588 -10.750  0.00  0.00     0.229 C 
HETATM    5  H           1     -20.341  -5.454 -11.434  0.00  0.00     0.274 HD
HETATM    6  H           1     -20.054  -5.180  -9.774  0.00  0.00     0.274 HD
HETATM    7  H           1     -19.084  -4.409 -10.947  0.00  0.00     0.274 HD
HETATM    8  N           1     -20.048  -4.745 -10.724  0.00  0.00    -0.079 N 
HETATM    9  N           1     -19.633  -4.363  -8.288  0.00  0.00    -0.067 N 
HETATM   10  C           1     -22.415  -4.714  -9.041  0.00  0.00     0.004 C 
HETATM   11  C           1     -22.407  -4.079 -10.426  0.00  0.00     0.027 C 
HETATM   12  C           1     -20.736  -4.169  -7.289  0.00  0.00     0.274 C 
HETATM   13  C           1     -21.988  -3.681  -8.006  0.00  0.00     0.042 C 
ENDROOT
BRANCH  12  14
HETATM   14  C           1     -21.027  -5.480  -6.601  0.00  0.00     0.248 C 
HETATM   15  O           1     -20.462  -6.487  -6.956  0.00  0.00    -0.271 OA
HETATM   16  N           1     -21.933  -5.528  -5.575  0.00  0.00    -0.349 N 
HETATM   17  H           1     -22.406  -4.684  -5.278  0.00  0.00     0.163 HD
BRANCH  16  18
HETATM   18  C           1     -22.213  -6.788  -4.913  0.00  0.00     0.235 C 
BRANCH  18  19
HETATM   19  C           1     -21.784  -6.704  -3.469  0.00  0.00     0.191 C 
HETATM   20  O           1     -22.404  -5.965  -2.674  0.00  0.00    -0.647 OA
HETATM   21  O           1     -20.808  -7.374  -3.068  0.00  0.00    -0.647 OA
ENDBRANCH  18  19
ENDBRANCH  16  18
ENDBRANCH  12  14
TORSDOF 3
ENDMDL
MODEL 5
REMARK VINA RESULT:      -5.9      3.526      6.292
REMARK  3 active torsions:
REMARK  status: ('A' for Active; 'I' for Inactive)
REMARK       I    between atoms: C_8  and  N_14 
REMARK    1  A    between atoms: C_8  and  C_20 
REMARK    2  A    between atoms: C_12  and  C_19 
REMARK    3  A    between atoms: N_14  and  C_19 
ROOT
HETATM    1  H           1     -24.475  -3.819 -10.849  0.00  0.00     0.275 HD
HETATM    2  H           1     -24.882  -5.265 -10.037  0.00  0.00     0.275 HD
HETATM    3  H           1     -24.429  -5.309 -11.681  0.00  0.00     0.275 HD
HETATM    4  C           1     -23.933  -3.416 -13.293  0.00  0.00     0.229 C 
HETATM    5  H           1     -25.241  -2.033 -12.421  0.00  0.00     0.274 HD
HETATM    6  H           1     -24.720  -3.262 -11.359  0.00  0.00     0.274 HD
HETATM    7  H           1     -25.885  -3.606 -12.556  0.00  0.00     0.274 HD
HETATM    8  N           1     -25.027  -3.052 -12.335  0.00  0.00    -0.079 N 
HETATM    9  N           1     -24.262  -4.839 -10.763  0.00  0.00    -0.067 N 
HETATM   10  C           1     -22.235  -2.913 -11.546  0.00  0.00     0.004 C 
HETATM   11  C           1     -22.683  -2.608 -12.970  0.00  0.00     0.027 C 
HETATM   12  C           1     -22.827  -5.018 -10.361  0.00  0.00     0.274 C 
HETATM   13  C           1     -21.924  -4.399 -11.419  0.00  0.00     0.042 C 
ENDROOT
BRANCH  12  14
HETATM   14  C           1     -22.588  -4.339  -9.035  0.00  0.00     0.248 C 
HETATM   15  O           1     -23.492  -3.759  -8.482  0.00  0.00    -0.271 OA
HETATM   16  N           1     -21.347  -4.381  -8.458  0.00  0.00    -0.349 N 
HETATM   17  H           1     -20.590  -4.868  -8.922  0.00  0.00     0.163 HD
BRANCH  16  18
HETATM   18  C           1     -21.117  -3.729  -7.183  0.00  0.00     0.235 C 
BRANCH  18  19
HETATM   19  C           1     -20.818  -4.769  -6.133  0.00  0.00     0.191 C 
HETATM   20  O           1     -21.347  -5.899  -6.203  0.00  0.00    -0.647 OA
HETATM   21  O           1     -20.040  -4.500  -5.191  0.00  0.00    -0.647 OA
ENDBRANCH  18  19
ENDBRANCH  16  18
ENDBRANCH  12  14
TORSDOF 3
ENDMDL
MODEL 6
REMARK VINA RESULT:      -5.4      5.317      7.032
REMARK  3 active torsions:
REMARK  status: ('A' for Active; 'I' for Inactive)
REMARK       I    between atoms: C_8  and  N_14 
REMARK    1  A    between atoms: C_8  and  C_20 
REMARK    2  A    between atoms: C_12  and  C_19 
REMARK    3  A    between atoms: N_14  and  C_19 
ROOT
HETATM    1  H           1     -20.063  -8.031  -4.909  0.00  0.00     0.275 HD
HETATM    2  H           1     -20.366  -8.852  -6.375  0.00  0.00     0.275 HD
HETATM    3  H           1     -21.404  -9.079  -5.039  0.00  0.00     0.275 HD
HETATM    4  C           1     -21.223  -8.218  -2.662  0.00  0.00     0.229 C 
HETATM    5  H           1     -19.130  -8.186  -2.595  0.00  0.00     0.274 HD
HETATM    6  H           1     -19.777  -8.091  -4.171  0.00  0.00     0.274 HD
HETATM    7  H           1     -19.779  -9.578  -3.336  0.00  0.00     0.274 HD
HETATM    8  N           1     -19.875  -8.543  -3.235  0.00  0.00    -0.079 N 
HETATM    9  N           1     -20.809  -8.388  -5.549  0.00  0.00    -0.067 N 
HETATM   10  C           1     -21.217  -6.048  -3.878  0.00  0.00     0.004 C 
HETATM   11  C           1     -21.362  -6.708  -2.513  0.00  0.00     0.027 C 
HETATM   12  C           1     -21.659  -7.242  -6.015  0.00  0.00     0.274 C 
HETATM   13  C           1     -22.303  -6.568  -4.812  0.00  0.00     0.042 C 
ENDROOT
BRANCH  12  14
HETATM   14  C           1     -20.798  -6.245  -6.751  0.00  0.00     0.248 C 
HETATM   15  O           1     -19.630  -6.483  -6.947  0.00  0.00    -0.271 OA
HETATM   16  N           1     -21.341  -5.070  -7.197  0.00  0.00    -0.349 N 
HETATM   17  H           1     -22.320  -4.871  -7.033  0.00  0.00     0.163 HD
BRANCH  16  18
HETATM   18  C           1     -20.514  -4.111  -7.905  0.00  0.00     0.235 C 
BRANCH  18  19
HETATM   19  C           1     -20.807  -4.188  -9.383  0.00  0.00     0.191 C 
HETATM   20  O           1     -21.854  -3.682  -9.840  0.00  0.00    -0.647 OA
HETATM   21  O           1     -20.001  -4.759 -10.150  0.00  0.00    -0.647 OA
ENDBRANCH  18  19
ENDBRANCH  16  18
ENDBRANCH  12  14
TORSDOF 3
ENDMDL
MODEL 7
REMARK VINA RESULT:      -5.4     15.854     17.648
REMARK  3 active torsions:
REMARK  status: ('A' for Active; 'I' for Inactive)
REMARK       I    between atoms: C_8  and  N_14 
REMARK    1  A    between atoms: C_8  and  C_20 
REMARK    2  A    between atoms: C_12  and  C_19 
REMARK    3  A    between atoms: N_14  and  C_19 
ROOT
HETATM    1  H           1     -13.564   4.896 -22.063  0.00  0.00     0.275 HD
HETATM    2  H           1     -14.805   5.970 -21.594  0.00  0.00     0.275 HD
HETATM    3  H           1     -14.611   4.484 -20.779  0.00  0.00     0.275 HD
HETATM    4  C           1     -13.047   2.547 -21.259  0.00  0.00     0.229 C 
HETATM    5  H           1     -12.980   2.823 -23.334  0.00  0.00     0.274 HD
HETATM    6  H           1     -13.388   4.230 -22.458  0.00  0.00     0.274 HD
HETATM    7  H           1     -14.540   2.988 -22.662  0.00  0.00     0.274 HD
HETATM    8  N           1     -13.525   3.196 -22.524  0.00  0.00    -0.079 N 
HETATM    9  N           1     -14.110   5.269 -21.253  0.00  0.00    -0.067 N 
HETATM   10  C           1     -11.367   4.358 -20.964  0.00  0.00     0.004 C 
HETATM   11  C           1     -11.568   2.851 -21.059  0.00  0.00     0.027 C 
HETATM   12  C           1     -13.174   5.925 -20.280  0.00  0.00     0.274 C 
HETATM   13  C           1     -12.161   4.903 -19.783  0.00  0.00     0.042 C 
ENDROOT
BRANCH  12  14
HETATM   14  C           1     -12.451   7.058 -20.965  0.00  0.00     0.248 C 
HETATM   15  O           1     -12.602   7.244 -22.150  0.00  0.00    -0.271 OA
HETATM   16  N           1     -11.622   7.877 -20.245  0.00  0.00    -0.349 N 
HETATM   17  H           1     -11.495   7.721 -19.253  0.00  0.00     0.163 HD
BRANCH  16  18
HETATM   18  C           1     -10.927   8.966 -20.904  0.00  0.00     0.235 C 
BRANCH  18  19
HETATM   19  C           1      -9.450   8.663 -20.953  0.00  0.00     0.191 C 
HETATM   20  O           1      -9.032   7.532 -20.621  0.00  0.00    -0.647 OA
HETATM   21  O           1      -8.644   9.542 -21.327  0.00  0.00    -0.647 OA
ENDBRANCH  18  19
ENDBRANCH  16  18
ENDBRANCH  12  14
TORSDOF 3
ENDMDL
MODEL 8
REMARK VINA RESULT:      -5.3      7.161     10.244
REMARK  3 active torsions:
REMARK  status: ('A' for Active; 'I' for Inactive)
REMARK       I    between atoms: C_8  and  N_14 
REMARK    1  A    between atoms: C_8  and  C_20 
REMARK    2  A    between atoms: C_12  and  C_19 
REMARK    3  A    between atoms: N_14  and  C_19 
ROOT
HETATM    1  H           1     -22.215  -4.786  -5.609  0.00  0.00     0.275 HD
HETATM    2  H           1     -23.674  -5.517  -5.108  0.00  0.00     0.275 HD
HETATM    3  H           1     -23.129  -5.713  -6.713  0.00  0.00     0.275 HD
HETATM    4  C           1     -21.152  -4.669  -7.908  0.00  0.00     0.229 C 
HETATM    5  H           1     -21.162  -2.874  -6.829  0.00  0.00     0.274 HD
HETATM    6  H           1     -21.888  -4.183  -6.009  0.00  0.00     0.274 HD
HETATM    7  H           1     -22.713  -3.415  -7.289  0.00  0.00     0.274 HD
HETATM    8  N           1     -21.776  -3.713  -6.935  0.00  0.00    -0.079 N 
HETATM    9  N           1     -22.830  -5.624  -5.716  0.00  0.00    -0.067 N 
HETATM   10  C           1     -19.949  -5.787  -6.040  0.00  0.00     0.004 C 
HETATM   11  C           1     -19.787  -5.103  -7.391  0.00  0.00     0.027 C 
HETATM   12  C           1     -22.073  -6.854  -5.308  0.00  0.00     0.274 C 
HETATM   13  C           1     -20.845  -7.010  -6.194  0.00  0.00     0.042 C 
ENDROOT
BRANCH  12  14
HETATM   14  C           1     -21.643  -6.725  -3.868  0.00  0.00     0.248 C 
HETATM   15  O           1     -21.608  -5.637  -3.343  0.00  0.00    -0.271 OA
HETATM   16  N           1     -21.291  -7.840  -3.155  0.00  0.00    -0.349 N 
HETATM   17  H           1     -21.321  -8.751  -3.595  0.00  0.00     0.163 HD
BRANCH  16  18
HETATM   18  C           1     -20.877  -7.716  -1.770  0.00  0.00     0.235 C 
BRANCH  18  19
HETATM   19  C           1     -22.061  -7.961  -0.868  0.00  0.00     0.191 C 
HETATM   20  O           1     -22.793  -7.008  -0.525  0.00  0.00    -0.647 OA
HETATM   21  O           1     -22.309  -9.117  -0.462  0.00  0.00    -0.647 OA
ENDBRANCH  18  19
ENDBRANCH  16  18
ENDBRANCH  12  14
TORSDOF 3
ENDMDL
MODEL 9
REMARK VINA RESULT:      -5.3     16.194     17.738
REMARK  3 active torsions:
REMARK  status: ('A' for Active; 'I' for Inactive)
REMARK       I    between atoms: C_8  and  N_14 
REMARK    1  A    between atoms: C_8  and  C_20 
REMARK    2  A    between atoms: C_12  and  C_19 
REMARK    3  A    between atoms: N_14  and  C_19 
ROOT
HETATM    1  H           1     -13.005   5.787 -20.881  0.00  0.00     0.275 HD
HETATM    2  H           1     -13.135   6.213 -19.233  0.00  0.00     0.275 HD
HETATM    3  H           1     -13.816   4.752 -19.792  0.00  0.00     0.275 HD
HETATM    4  C           1     -14.013   3.834 -22.147  0.00  0.00     0.229 C 
HETATM    5  H           1     -14.154   5.694 -23.099  0.00  0.00     0.274 HD
HETATM    6  H           1     -13.380   5.748 -21.579  0.00  0.00     0.274 HD
HETATM    7  H           1     -15.075   5.576 -21.669  0.00  0.00     0.274 HD
HETATM    8  N           1     -14.167   5.326 -22.121  0.00  0.00    -0.079 N 
HETATM    9  N           1     -13.019   5.419 -19.902  0.00  0.00    -0.067 N 
HETATM   10  C           1     -11.542   4.087 -22.018  0.00  0.00     0.004 C 
HETATM   11  C           1     -12.689   3.471 -22.807  0.00  0.00     0.027 C 
HETATM   12  C           1     -11.728   4.709 -19.616  0.00  0.00     0.274 C 
HETATM   13  C           1     -11.560   3.552 -20.591  0.00  0.00     0.042 C 
ENDROOT
BRANCH  12  14
HETATM   14  C           1     -10.579   5.673 -19.776  0.00  0.00     0.248 C 
HETATM   15  O           1      -9.535   5.469 -19.204  0.00  0.00    -0.271 OA
HETATM   16  N           1     -10.719   6.780 -20.570  0.00  0.00    -0.349 N 
HETATM   17  H           1     -11.594   6.951 -21.050  0.00  0.00     0.163 HD
BRANCH  16  18
HETATM   18  C           1      -9.614   7.707 -20.724  0.00  0.00     0.235 C 
BRANCH  18  19
HETATM   19  C           1      -9.971   9.025 -20.083  0.00  0.00     0.191 C 
HETATM   20  O           1      -9.986   9.131 -18.838  0.00  0.00    -0.647 OA
HETATM   21  O           1     -10.251  10.012 -20.798  0.00  0.00    -0.647 OA
ENDBRANCH  18  19
ENDBRANCH  16  18
ENDBRANCH  12  14
TORSDOF 3
ENDMDL
