MODEL 1
REMARK VINA RESULT:      -6.6      0.000      0.000
REMARK  7 active torsions:
REMARK  status: ('A' for Active; 'I' for Inactive)
REMARK       I    between atoms: C_1  and  N_9 
REMARK    1  A    between atoms: C_1  and  C_11 
REMARK    2  A    between atoms: N_4  and  C_20 
REMARK       I    between atoms: N_4  and  C_5 
REMARK    3  A    between atoms: C_5  and  C_6 
REMARK    4  A    between atoms: C_6  and  N_15 
REMARK    5  A    between atoms: C_11  and  C_19 
REMARK    6  A    between atoms: C_19  and  C_20 
REMARK    7  A    between atoms: C_20  and  C_21 
ROOT
HETATM    1  C           1     -22.713  -3.753  -9.762  0.00  0.00     0.186 C 
ENDROOT
BRANCH   1   2
HETATM    2  N           1     -22.152  -4.758  -8.880  0.00  0.00    -0.345 N 
HETATM    3  C           1     -21.611  -4.389  -7.679  0.00  0.00     0.248 C 
HETATM    4  O           1     -21.599  -3.225  -7.352  0.00  0.00    -0.271 OA
HETATM    5  H           1     -22.162  -5.732  -9.153  0.00  0.00     0.163 HD
BRANCH   3   6
HETATM    6  C           1     -21.027  -5.436  -6.761  0.00  0.00     0.270 C 
HETATM    7  C           1     -20.364  -4.755  -5.570  0.00  0.00     0.050 C 
BRANCH   6   8
HETATM    8  N           1     -20.007  -6.242  -7.507  0.00  0.00    -0.067 N 
HETATM    9  H           1     -19.986  -7.216  -7.126  0.00  0.00     0.275 HD
HETATM   10  H           1     -20.258  -6.271  -8.521  0.00  0.00     0.275 HD
HETATM   11  H           1     -19.066  -5.803  -7.394  0.00  0.00     0.275 HD
ENDBRANCH   6   8
ENDBRANCH   3   6
ENDBRANCH   1   2
BRANCH   1  12
HETATM   12  C           1     -22.208  -3.983 -11.180  0.00  0.00     0.045 C 
BRANCH  12  13
HETATM   13  C           1     -22.354  -2.700 -11.987  0.00  0.00     0.105 C 
BRANCH  13  14
HETATM   14  C           1     -23.175  -2.972 -13.223  0.00  0.00     0.215 C 
HETATM   15  O           1     -24.366  -3.150 -13.130  0.00  0.00    -0.274 OA
HETATM   16  N           1     -22.571  -3.018 -14.450  0.00  0.00    -0.370 N 
HETATM   17  H           1     -21.573  -2.869 -14.528  0.00  0.00     0.159 HD
HETATM   18  H           1     -23.122  -3.201 -15.279  0.00  0.00     0.159 HD
ENDBRANCH  13  14
ENDBRANCH  12  13
ENDBRANCH   1  12
BRANCH   1  19
HETATM   19  C           1     -24.219  -3.848  -9.741  0.00  0.00     0.196 C 
HETATM   20  O           1     -24.778  -4.950  -9.933  0.00  0.00    -0.646 OA
HETATM   21  O           1     -24.907  -2.826  -9.533  0.00  0.00    -0.646 OA
ENDBRANCH   1  19
TORSDOF 7
ENDMDL
MODEL 2
REMARK VINA RESULT:      -6.6     12.224     13.851
REMARK  7 active torsions:
REMARK  status: ('A' for Active; 'I' for Inactive)
REMARK       I    between atoms: C_1  and  N_9 
REMARK    1  A    between atoms: C_1  and  C_11 
REMARK    2  A    between atoms: N_4  and  C_20 
REMARK       I    between atoms: N_4  and  C_5 
REMARK    3  A    between atoms: C_5  and  C_6 
REMARK    4  A    between atoms: C_6  and  N_15 
REMARK    5  A    between atoms: C_11  and  C_19 
REMARK    6  A    between atoms: C_19  and  C_20 
REMARK    7  A    between atoms: C_20  and  C_21 
ROOT
HETATM    1  C           1     -35.166  -0.168 -12.782  0.00  0.00     0.186 C 
ENDROOT
BRANCH   1   2
HETATM    2  N           1     -34.922  -1.564 -13.086  0.00  0.00    -0.345 N 
HETATM    3  C           1     -34.240  -2.350 -12.197  0.00  0.00     0.248 C 
HETATM    4  O           1     -33.840  -1.880 -11.158  0.00  0.00    -0.271 OA
HETATM    5  H           1     -35.257  -1.958 -13.956  0.00  0.00     0.163 HD
BRANCH   3   6
HETATM    6  C           1     -33.987  -3.803 -12.514  0.00  0.00     0.270 C 
HETATM    7  C           1     -32.672  -4.240 -11.882  0.00  0.00     0.050 C 
BRANCH   6   8
HETATM    8  N           1     -33.911  -3.985 -14.001  0.00  0.00    -0.067 N 
HETATM    9  H           1     -33.169  -4.685 -14.228  0.00  0.00     0.275 HD
HETATM   10  H           1     -34.832  -4.325 -14.358  0.00  0.00     0.275 HD
HETATM   11  H           1     -33.679  -3.072 -14.451  0.00  0.00     0.275 HD
ENDBRANCH   6   8
ENDBRANCH   3   6
ENDBRANCH   1   2
BRANCH   1  12
HETATM   12  C           1     -35.351   0.610 -14.078  0.00  0.00     0.045 C 
BRANCH  12  13
HETATM   13  C           1     -35.524  -0.365 -15.235  0.00  0.00     0.105 C 
BRANCH  13  14
HETATM   14  C           1     -36.877  -0.159 -15.870  0.00  0.00     0.215 C 
HETATM   15  O           1     -37.153  -0.724 -16.901  0.00  0.00    -0.274 OA
HETATM   16  N           1     -37.793   0.667 -15.277  0.00  0.00    -0.370 N 
HETATM   17  H           1     -37.562   1.140 -14.413  0.00  0.00     0.159 HD
HETATM   18  H           1     -38.701   0.805 -15.702  0.00  0.00     0.159 HD
ENDBRANCH  13  14
ENDBRANCH  12  13
ENDBRANCH   1  12
BRANCH   1  19
HETATM   19  C           1     -36.412  -0.046 -11.939  0.00  0.00     0.196 C 
HETATM   20  O           1     -37.516  -0.410 -12.400  0.00  0.00    -0.646 OA
HETATM   21  O           1     -36.341   0.418 -10.782  0.00  0.00    -0.646 OA
ENDBRANCH   1  19
TORSDOF 7
ENDMDL
MODEL 3
REMARK VINA RESULT:      -5.7      1.813      5.626
REMARK  7 active torsions:
REMARK  status: ('A' for Active; 'I' for Inactive)
REMARK       I    between atoms: C_1  and  N_9 
REMARK    1  A    between atoms: C_1  and  C_11 
REMARK    2  A    between atoms: N_4  and  C_20 
REMARK       I    between atoms: N_4  and  C_5 
REMARK    3  A    between atoms: C_5  and  C_6 
REMARK    4  A    between atoms: C_6  and  N_15 
REMARK    5  A    between atoms: C_11  and  C_19 
REMARK    6  A    between atoms: C_19  and  C_20 
REMARK    7  A    between atoms: C_20  and  C_21 
ROOT
HETATM    1  C           1     -23.705  -4.278 -10.824  0.00  0.00     0.186 C 
ENDROOT
BRANCH   1   2
HETATM    2  N           1     -23.129  -3.318 -11.745  0.00  0.00    -0.345 N 
HETATM    3  C           1     -23.578  -3.254 -13.036  0.00  0.00     0.248 C 
HETATM    4  O           1     -24.454  -3.998 -13.409  0.00  0.00    -0.271 OA
HETATM    5  H           1     -22.396  -2.694 -11.432  0.00  0.00     0.163 HD
BRANCH   3   6
HETATM    6  C           1     -22.979  -2.254 -13.994  0.00  0.00     0.270 C 
HETATM    7  C           1     -24.080  -1.363 -14.555  0.00  0.00     0.050 C 
BRANCH   6   8
HETATM    8  N           1     -22.304  -2.981 -15.119  0.00  0.00    -0.067 N 
HETATM    9  H           1     -21.362  -2.560 -15.291  0.00  0.00     0.275 HD
HETATM   10  H           1     -22.193  -3.989 -14.866  0.00  0.00     0.275 HD
HETATM   11  H           1     -22.885  -2.901 -15.983  0.00  0.00     0.275 HD
ENDBRANCH   6   8
ENDBRANCH   3   6
ENDBRANCH   1   2
BRANCH   1  12
HETATM   12  C           1     -22.592  -4.951 -10.031  0.00  0.00     0.045 C 
BRANCH  12  13
HETATM   13  C           1     -21.345  -4.079 -10.064  0.00  0.00     0.105 C 
BRANCH  13  14
HETATM   14  C           1     -20.785  -3.948  -8.669  0.00  0.00     0.215 C 
HETATM   15  O           1     -19.589  -3.962  -8.494  0.00  0.00    -0.274 OA
HETATM   16  N           1     -21.630  -3.813  -7.601  0.00  0.00    -0.370 N 
HETATM   17  H           1     -22.631  -3.801  -7.748  0.00  0.00     0.159 HD
HETATM   18  H           1     -21.254  -3.725  -6.665  0.00  0.00     0.159 HD
ENDBRANCH  13  14
ENDBRANCH  12  13
ENDBRANCH   1  12
BRANCH   1  19
HETATM   19  C           1     -24.640  -3.569  -9.876  0.00  0.00     0.196 C 
HETATM   20  O           1     -25.762  -3.187 -10.274  0.00  0.00    -0.646 OA
HETATM   21  O           1     -24.293  -3.362  -8.694  0.00  0.00    -0.646 OA
ENDBRANCH   1  19
TORSDOF 7
ENDMDL
MODEL 4
REMARK VINA RESULT:      -5.6      1.841      5.700
REMARK  7 active torsions:
REMARK  status: ('A' for Active; 'I' for Inactive)
REMARK       I    between atoms: C_1  and  N_9 
REMARK    1  A    between atoms: C_1  and  C_11 
REMARK    2  A    between atoms: N_4  and  C_20 
REMARK       I    between atoms: N_4  and  C_5 
REMARK    3  A    between atoms: C_5  and  C_6 
REMARK    4  A    between atoms: C_6  and  N_15 
REMARK    5  A    between atoms: C_11  and  C_19 
REMARK    6  A    between atoms: C_19  and  C_20 
REMARK    7  A    between atoms: C_20  and  C_21 
ROOT
HETATM    1  C           1     -22.084  -4.299  -9.247  0.00  0.00     0.186 C 
ENDROOT
BRANCH   1   2
HETATM    2  N           1     -22.234  -3.363 -10.344  0.00  0.00    -0.345 N 
HETATM    3  C           1     -22.768  -3.781 -11.533  0.00  0.00     0.248 C 
HETATM    4  O           1     -23.113  -4.931 -11.669  0.00  0.00    -0.271 OA
HETATM    5  H           1     -21.945  -2.400 -10.230  0.00  0.00     0.163 HD
BRANCH   3   6
HETATM    6  C           1     -22.924  -2.806 -12.674  0.00  0.00     0.270 C 
HETATM    7  C           1     -24.401  -2.655 -13.016  0.00  0.00     0.050 C 
BRANCH   6   8
HETATM    8  N           1     -22.184  -3.319 -13.874  0.00  0.00    -0.067 N 
HETATM    9  H           1     -21.392  -2.673 -14.096  0.00  0.00     0.275 HD
HETATM   10  H           1     -21.809  -4.273 -13.671  0.00  0.00     0.275 HD
HETATM   11  H           1     -22.834  -3.367 -14.689  0.00  0.00     0.275 HD
ENDBRANCH   6   8
ENDBRANCH   3   6
ENDBRANCH   1   2
BRANCH   1  12
HETATM   12  C           1     -20.789  -4.005  -8.502  0.00  0.00     0.045 C 
BRANCH  12  13
HETATM   13  C           1     -19.968  -5.281  -8.386  0.00  0.00     0.105 C 
BRANCH  13  14
HETATM   14  C           1     -19.951  -5.741  -6.949  0.00  0.00     0.215 C 
HETATM   15  O           1     -19.648  -6.880  -6.683  0.00  0.00    -0.274 OA
HETATM   16  N           1     -20.278  -4.869  -5.947  0.00  0.00    -0.370 N 
HETATM   17  H           1     -20.531  -3.915  -6.170  0.00  0.00     0.159 HD
HETATM   18  H           1     -20.266  -5.177  -4.983  0.00  0.00     0.159 HD
ENDBRANCH  13  14
ENDBRANCH  12  13
ENDBRANCH   1  12
BRANCH   1  19
HETATM   19  C           1     -23.252  -4.158  -8.302  0.00  0.00     0.196 C 
HETATM   20  O           1     -23.124  -4.472  -7.099  0.00  0.00    -0.646 OA
HETATM   21  O           1     -24.348  -3.728  -8.722  0.00  0.00    -0.646 OA
ENDBRANCH   1  19
TORSDOF 7
ENDMDL
MODEL 5
REMARK VINA RESULT:      -5.6      2.812      5.888
REMARK  7 active torsions:
REMARK  status: ('A' for Active; 'I' for Inactive)
REMARK       I    between atoms: C_1  and  N_9 
REMARK    1  A    between atoms: C_1  and  C_11 
REMARK    2  A    between atoms: N_4  and  C_20 
REMARK       I    between atoms: N_4  and  C_5 
REMARK    3  A    between atoms: C_5  and  C_6 
REMARK    4  A    between atoms: C_6  and  N_15 
REMARK    5  A    between atoms: C_11  and  C_19 
REMARK    6  A    between atoms: C_19  and  C_20 
REMARK    7  A    between atoms: C_20  and  C_21 
ROOT
HETATM    1  C           1     -22.228  -3.580 -11.316  0.00  0.00     0.186 C 
ENDROOT
BRANCH   1   2
HETATM    2  N           1     -22.429  -3.145 -12.684  0.00  0.00    -0.345 N 
HETATM    3  C           1     -23.646  -2.658 -13.075  0.00  0.00     0.248 C 
HETATM    4  O           1     -24.555  -2.591 -12.280  0.00  0.00    -0.271 OA
HETATM    5  H           1     -21.669  -3.200 -13.349  0.00  0.00     0.163 HD
BRANCH   3   6
HETATM    6  C           1     -23.856  -2.204 -14.499  0.00  0.00     0.270 C 
HETATM    7  C           1     -22.604  -2.500 -15.316  0.00  0.00     0.050 C 
BRANCH   6   8
HETATM    8  N           1     -24.128  -0.730 -14.519  0.00  0.00    -0.067 N 
HETATM    9  H           1     -25.143  -0.561 -14.333  0.00  0.00     0.275 HD
HETATM   10  H           1     -23.556  -0.259 -13.783  0.00  0.00     0.275 HD
HETATM   11  H           1     -23.877  -0.342 -15.456  0.00  0.00     0.275 HD
ENDBRANCH   6   8
ENDBRANCH   3   6
ENDBRANCH   1   2
BRANCH   1  12
HETATM   12  C           1     -22.667  -5.031 -11.175  0.00  0.00     0.045 C 
BRANCH  12  13
HETATM   13  C           1     -23.955  -5.097 -10.365  0.00  0.00     0.105 C 
BRANCH  13  14
HETATM   14  C           1     -23.862  -4.150  -9.193  0.00  0.00     0.215 C 
HETATM   15  O           1     -23.042  -4.340  -8.327  0.00  0.00    -0.274 OA
HETATM   16  N           1     -24.707  -3.077  -9.112  0.00  0.00    -0.370 N 
HETATM   17  H           1     -25.394  -2.918  -9.838  0.00  0.00     0.159 HD
HETATM   18  H           1     -24.645  -2.442  -8.326  0.00  0.00     0.159 HD
ENDBRANCH  13  14
ENDBRANCH  12  13
ENDBRANCH   1  12
BRANCH   1  19
HETATM   19  C           1     -20.766  -3.459 -10.959  0.00  0.00     0.196 C 
HETATM   20  O           1     -20.188  -4.397 -10.368  0.00  0.00    -0.646 OA
HETATM   21  O           1     -20.135  -2.422 -11.252  0.00  0.00    -0.646 OA
ENDBRANCH   1  19
TORSDOF 7
ENDMDL
MODEL 6
REMARK VINA RESULT:      -5.5      2.402      3.492
REMARK  7 active torsions:
REMARK  status: ('A' for Active; 'I' for Inactive)
REMARK       I    between atoms: C_1  and  N_9 
REMARK    1  A    between atoms: C_1  and  C_11 
REMARK    2  A    between atoms: N_4  and  C_20 
REMARK       I    between atoms: N_4  and  C_5 
REMARK    3  A    between atoms: C_5  and  C_6 
REMARK    4  A    between atoms: C_6  and  N_15 
REMARK    5  A    between atoms: C_11  and  C_19 
REMARK    6  A    between atoms: C_19  and  C_20 
REMARK    7  A    between atoms: C_20  and  C_21 
ROOT
HETATM    1  C           1     -21.631  -4.909  -8.270  0.00  0.00     0.186 C 
ENDROOT
BRANCH   1   2
HETATM    2  N           1     -21.510  -4.969  -6.826  0.00  0.00    -0.345 N 
HETATM    3  C           1     -21.250  -6.163  -6.210  0.00  0.00     0.248 C 
HETATM    4  O           1     -21.123  -7.168  -6.869  0.00  0.00    -0.271 OA
HETATM    5  H           1     -21.617  -4.127  -6.274  0.00  0.00     0.163 HD
BRANCH   3   6
HETATM    6  C           1     -21.124  -6.225  -4.708  0.00  0.00     0.270 C 
HETATM    7  C           1     -20.464  -7.538  -4.307  0.00  0.00     0.050 C 
BRANCH   6   8
HETATM    8  N           1     -22.487  -6.141  -4.088  0.00  0.00    -0.067 N 
HETATM    9  H           1     -23.196  -5.948  -4.831  0.00  0.00     0.275 HD
HETATM   10  H           1     -22.713  -7.047  -3.618  0.00  0.00     0.275 HD
HETATM   11  H           1     -22.501  -5.371  -3.383  0.00  0.00     0.275 HD
ENDBRANCH   6   8
ENDBRANCH   3   6
ENDBRANCH   1   2
BRANCH   1  12
HETATM   12  C           1     -22.740  -3.935  -8.646  0.00  0.00     0.045 C 
BRANCH  12  13
HETATM   13  C           1     -23.672  -4.591  -9.656  0.00  0.00     0.105 C 
BRANCH  13  14
HETATM   14  C           1     -24.463  -3.527 -10.377  0.00  0.00     0.215 C 
HETATM   15  O           1     -25.512  -3.141  -9.919  0.00  0.00    -0.274 OA
HETATM   16  N           1     -23.993  -3.000 -11.549  0.00  0.00    -0.370 N 
HETATM   17  H           1     -23.114  -3.324 -11.932  0.00  0.00     0.159 HD
HETATM   18  H           1     -24.524  -2.287 -12.032  0.00  0.00     0.159 HD
ENDBRANCH  13  14
ENDBRANCH  12  13
ENDBRANCH   1  12
BRANCH   1  19
HETATM   19  C           1     -20.326  -4.440  -8.865  0.00  0.00     0.196 C 
HETATM   20  O           1     -20.044  -4.719 -10.051  0.00  0.00    -0.646 OA
HETATM   21  O           1     -19.528  -3.773  -8.173  0.00  0.00    -0.646 OA
ENDBRANCH   1  19
TORSDOF 7
ENDMDL
MODEL 7
REMARK VINA RESULT:      -5.5      1.663      2.256
REMARK  7 active torsions:
REMARK  status: ('A' for Active; 'I' for Inactive)
REMARK       I    between atoms: C_1  and  N_9 
REMARK    1  A    between atoms: C_1  and  C_11 
REMARK    2  A    between atoms: N_4  and  C_20 
REMARK       I    between atoms: N_4  and  C_5 
REMARK    3  A    between atoms: C_5  and  C_6 
REMARK    4  A    between atoms: C_6  and  N_15 
REMARK    5  A    between atoms: C_11  and  C_19 
REMARK    6  A    between atoms: C_19  and  C_20 
REMARK    7  A    between atoms: C_20  and  C_21 
ROOT
HETATM    1  C           1     -23.291  -3.536  -9.788  0.00  0.00     0.186 C 
ENDROOT
BRANCH   1   2
HETATM    2  N           1     -22.560  -4.640  -9.198  0.00  0.00    -0.345 N 
HETATM    3  C           1     -21.926  -4.477  -7.997  0.00  0.00     0.248 C 
HETATM    4  O           1     -21.974  -3.412  -7.427  0.00  0.00    -0.271 OA
HETATM    5  H           1     -22.520  -5.532  -9.675  0.00  0.00     0.163 HD
BRANCH   3   6
HETATM    6  C           1     -21.166  -5.627  -7.383  0.00  0.00     0.270 C 
HETATM    7  C           1     -21.391  -5.639  -5.876  0.00  0.00     0.050 C 
BRANCH   6   8
HETATM    8  N           1     -19.702  -5.466  -7.667  0.00  0.00    -0.067 N 
HETATM    9  H           1     -19.166  -5.514  -6.771  0.00  0.00     0.275 HD
HETATM   10  H           1     -19.384  -6.232  -8.304  0.00  0.00     0.275 HD
HETATM   11  H           1     -19.535  -4.543  -8.124  0.00  0.00     0.275 HD
ENDBRANCH   6   8
ENDBRANCH   3   6
ENDBRANCH   1   2
BRANCH   1  12
HETATM   12  C           1     -22.851  -3.351 -11.234  0.00  0.00     0.045 C 
BRANCH  12  13
HETATM   13  C           1     -21.869  -4.451 -11.612  0.00  0.00     0.105 C 
BRANCH  13  14
HETATM   14  C           1     -20.468  -4.024 -11.246  0.00  0.00     0.215 C 
HETATM   15  O           1     -19.697  -4.824 -10.773  0.00  0.00    -0.274 OA
HETATM   16  N           1     -20.072  -2.730 -11.449  0.00  0.00    -0.370 N 
HETATM   17  H           1     -20.718  -2.059 -11.845  0.00  0.00     0.159 HD
HETATM   18  H           1     -19.133  -2.443 -11.203  0.00  0.00     0.159 HD
ENDBRANCH  13  14
ENDBRANCH  12  13
ENDBRANCH   1  12
BRANCH   1  19
HETATM   19  C           1     -24.771  -3.831  -9.746  0.00  0.00     0.196 C 
HETATM   20  O           1     -25.596  -2.893  -9.766  0.00  0.00    -0.646 OA
HETATM   21  O           1     -25.170  -5.014  -9.689  0.00  0.00    -0.646 OA
ENDBRANCH   1  19
TORSDOF 7
ENDMDL
MODEL 8
REMARK VINA RESULT:      -5.4      1.850      2.284
REMARK  7 active torsions:
REMARK  status: ('A' for Active; 'I' for Inactive)
REMARK       I    between atoms: C_1  and  N_9 
REMARK    1  A    between atoms: C_1  and  C_11 
REMARK    2  A    between atoms: N_4  and  C_20 
REMARK       I    between atoms: N_4  and  C_5 
REMARK    3  A    between atoms: C_5  and  C_6 
REMARK    4  A    between atoms: C_6  and  N_15 
REMARK    5  A    between atoms: C_11  and  C_19 
REMARK    6  A    between atoms: C_19  and  C_20 
REMARK    7  A    between atoms: C_20  and  C_21 
ROOT
HETATM    1  C           1     -22.944  -2.984 -11.344  0.00  0.00     0.186 C 
ENDROOT
BRANCH   1   2
HETATM    2  N           1     -21.813  -3.763 -10.878  0.00  0.00    -0.345 N 
HETATM    3  C           1     -21.611  -3.940  -9.536  0.00  0.00     0.248 C 
HETATM    4  O           1     -22.375  -3.448  -8.739  0.00  0.00    -0.271 OA
HETATM    5  H           1     -21.174  -4.175 -11.544  0.00  0.00     0.163 HD
BRANCH   3   6
HETATM    6  C           1     -20.435  -4.751  -9.051  0.00  0.00     0.270 C 
HETATM    7  C           1     -19.640  -3.938  -8.038  0.00  0.00     0.050 C 
BRANCH   6   8
HETATM    8  N           1     -19.554  -5.099 -10.214  0.00  0.00    -0.067 N 
HETATM    9  H           1     -20.018  -5.836 -10.793  0.00  0.00     0.275 HD
HETATM   10  H           1     -19.393  -4.247 -10.797  0.00  0.00     0.275 HD
HETATM   11  H           1     -18.639  -5.458  -9.861  0.00  0.00     0.275 HD
ENDBRANCH   6   8
ENDBRANCH   3   6
ENDBRANCH   1   2
BRANCH   1  12
HETATM   12  C           1     -22.799  -2.724 -12.837  0.00  0.00     0.045 C 
BRANCH  12  13
HETATM   13  C           1     -24.129  -2.238 -13.400  0.00  0.00     0.105 C 
BRANCH  13  14
HETATM   14  C           1     -23.887  -1.481 -14.683  0.00  0.00     0.215 C 
HETATM   15  O           1     -24.637  -0.593 -15.010  0.00  0.00    -0.274 OA
HETATM   16  N           1     -22.818  -1.800 -15.475  0.00  0.00    -0.370 N 
HETATM   17  H           1     -22.189  -2.544 -15.200  0.00  0.00     0.159 HD
HETATM   18  H           1     -22.655  -1.292 -16.335  0.00  0.00     0.159 HD
ENDBRANCH  13  14
ENDBRANCH  12  13
ENDBRANCH   1  12
BRANCH   1  19
HETATM   19  C           1     -24.221  -3.747 -11.087  0.00  0.00     0.196 C 
HETATM   20  O           1     -25.197  -3.171 -10.560  0.00  0.00    -0.646 OA
HETATM   21  O           1     -24.301  -4.953 -11.400  0.00  0.00    -0.646 OA
ENDBRANCH   1  19
TORSDOF 7
ENDMDL
MODEL 9
REMARK VINA RESULT:      -5.2      4.164      7.974
REMARK  7 active torsions:
REMARK  status: ('A' for Active; 'I' for Inactive)
REMARK       I    between atoms: C_1  and  N_9 
REMARK    1  A    between atoms: C_1  and  C_11 
REMARK    2  A    between atoms: N_4  and  C_20 
REMARK       I    between atoms: N_4  and  C_5 
REMARK    3  A    between atoms: C_5  and  C_6 
REMARK    4  A    between atoms: C_6  and  N_15 
REMARK    5  A    between atoms: C_11  and  C_19 
REMARK    6  A    between atoms: C_19  and  C_20 
REMARK    7  A    between atoms: C_20  and  C_21 
ROOT
HETATM    1  C           1     -20.785  -6.821  -5.017  0.00  0.00     0.186 C 
ENDROOT
BRANCH   1   2
HETATM    2  N           1     -21.211  -6.403  -6.338  0.00  0.00    -0.345 N 
HETATM    3  C           1     -20.995  -5.117  -6.752  0.00  0.00     0.248 C 
HETATM    4  O           1     -20.450  -4.328  -6.016  0.00  0.00    -0.271 OA
HETATM    5  H           1     -21.667  -7.063  -6.955  0.00  0.00     0.163 HD
BRANCH   3   6
HETATM    6  C           1     -21.438  -4.682  -8.127  0.00  0.00     0.270 C 
HETATM    7  C           1     -20.229  -4.215  -8.928  0.00  0.00     0.050 C 
BRANCH   6   8
HETATM    8  N           1     -22.420  -3.555  -8.003  0.00  0.00    -0.067 N 
HETATM    9  H           1     -22.550  -3.102  -8.936  0.00  0.00     0.275 HD
HETATM   10  H           1     -23.337  -3.927  -7.666  0.00  0.00     0.275 HD
HETATM   11  H           1     -22.058  -2.852  -7.321  0.00  0.00     0.275 HD
ENDBRANCH   6   8
ENDBRANCH   3   6
ENDBRANCH   1   2
BRANCH   1  12
HETATM   12  C           1     -21.974  -6.792  -4.067  0.00  0.00     0.045 C 
BRANCH  12  13
HETATM   13  C           1     -21.565  -6.128  -2.759  0.00  0.00     0.105 C 
BRANCH  13  14
HETATM   14  C           1     -21.850  -7.061  -1.609  0.00  0.00     0.215 C 
HETATM   15  O           1     -22.718  -6.791  -0.813  0.00  0.00    -0.274 OA
HETATM   16  N           1     -21.127  -8.214  -1.467  0.00  0.00    -0.370 N 
HETATM   17  H           1     -20.400  -8.441  -2.134  0.00  0.00     0.159 HD
HETATM   18  H           1     -21.319  -8.840  -0.695  0.00  0.00     0.159 HD
ENDBRANCH  13  14
ENDBRANCH  12  13
ENDBRANCH   1  12
BRANCH   1  19
HETATM   19  C           1     -20.231  -8.223  -5.087  0.00  0.00     0.196 C 
HETATM   20  O           1     -19.274  -8.480  -5.850  0.00  0.00    -0.646 OA
HETATM   21  O           1     -20.729  -9.127  -4.383  0.00  0.00    -0.646 OA
ENDBRANCH   1  19
TORSDOF 7
ENDMDL
