MODEL 1
REMARK VINA RESULT:      -7.9      0.000      0.000
REMARK  8 active torsions:
REMARK  status: ('A' for Active; 'I' for Inactive)
REMARK    1  A    between atoms: C_2  and  C_4 
REMARK       I    between atoms: N_5  and  C_6 
REMARK    2  A    between atoms: C_6  and  C_7 
REMARK    3  A    between atoms: C_7  and  C_8 
REMARK    4  A    between atoms: C_7  and  N_20 
REMARK    5  A    between atoms: C_8  and  C_9 
REMARK    6  A    between atoms: C_12  and  O_13 
REMARK    7  A    between atoms: O_13  and  P_14 
REMARK    8  A    between atoms: P_14  and  O_16 
ROOT
HETATM    1  C           1     -21.056  -6.097  -5.711  0.00  0.00     0.279 C 
ENDROOT
BRANCH   1   2
HETATM    2  C           1     -21.079  -7.559  -5.339  0.00  0.00     0.251 C 
HETATM    3  N           1     -20.839  -7.940  -4.046  0.00  0.00    -0.336 N 
HETATM    4  C           1     -21.822  -8.236  -3.008  0.00  0.00     0.188 C 
HETATM    5  C           1     -19.542  -8.139  -3.405  0.00  0.00     0.127 C 
HETATM    6  C           1     -21.244  -9.449  -2.298  0.00  0.00     0.038 C 
HETATM    7  C           1     -19.743  -9.382  -2.555  0.00  0.00     0.022 C 
HETATM    8  O           1     -21.311  -8.393  -6.181  0.00  0.00    -0.271 OA
BRANCH   4   9
HETATM    9  C           1     -21.964  -7.073  -2.057  0.00  0.00     0.196 C 
HETATM   10  O           1     -22.323  -5.955  -2.486  0.00  0.00    -0.646 OA
HETATM   11  O           1     -21.724  -7.228  -0.840  0.00  0.00    -0.646 OA
ENDBRANCH   4   9
ENDBRANCH   1   2
BRANCH   1  12
HETATM   12  C           1     -20.144  -5.893  -6.915  0.00  0.00     0.081 C 
BRANCH  12  13
HETATM   13  C           1     -20.869  -5.108  -7.963  0.00  0.00    -0.056 A 
HETATM   14  C           1     -20.154  -4.704  -9.245  0.00  0.00     0.010 A 
HETATM   15  C           1     -20.892  -3.905 -10.311  0.00  0.00     0.038 A 
HETATM   16  C           1     -22.347  -3.509 -10.094  0.00  0.00     0.081 A 
HETATM   17  C           1     -23.063  -3.913  -8.812  0.00  0.00     0.038 A 
HETATM   18  C           1     -22.324  -4.712  -7.746  0.00  0.00     0.010 A 
BRANCH  16  19
HETATM   19  O           1     -23.004  -2.798 -11.041  0.00  0.00    -0.247 OA
BRANCH  19  20
HETATM   20  P           1     -23.455  -3.565 -12.390  0.00  0.00     0.411 P 
HETATM   21  O           1     -24.694  -2.950 -12.916  0.00  0.00    -0.624 OA
HETATM   22  O           1     -23.703  -4.991 -12.086  0.00  0.00    -0.624 OA
BRANCH  20  23
HETATM   23  O           1     -22.283  -3.444 -13.493  0.00  0.00    -0.300 OA
HETATM   24  H           1     -22.261  -4.284 -13.919  0.00  0.00     0.223 HD
ENDBRANCH  20  23
ENDBRANCH  19  20
ENDBRANCH  16  19
ENDBRANCH  12  13
ENDBRANCH   1  12
BRANCH   1  25
HETATM   25  N           1     -20.540  -5.296  -4.553  0.00  0.00    -0.066 N 
HETATM   26  H           1     -19.497  -5.344  -4.532  0.00  0.00     0.275 HD
HETATM   27  H           1     -20.840  -4.300  -4.658  0.00  0.00     0.275 HD
HETATM   28  H           1     -20.925  -5.684  -3.662  0.00  0.00     0.275 HD
ENDBRANCH   1  25
TORSDOF 8
ENDMDL
MODEL 2
REMARK VINA RESULT:      -7.8      1.665      2.734
REMARK  8 active torsions:
REMARK  status: ('A' for Active; 'I' for Inactive)
REMARK    1  A    between atoms: C_2  and  C_4 
REMARK       I    between atoms: N_5  and  C_6 
REMARK    2  A    between atoms: C_6  and  C_7 
REMARK    3  A    between atoms: C_7  and  C_8 
REMARK    4  A    between atoms: C_7  and  N_20 
REMARK    5  A    between atoms: C_8  and  C_9 
REMARK    6  A    between atoms: C_12  and  O_13 
REMARK    7  A    between atoms: O_13  and  P_14 
REMARK    8  A    between atoms: P_14  and  O_16 
ROOT
HETATM    1  C           1     -21.763  -5.462  -6.260  0.00  0.00     0.279 C 
ENDROOT
BRANCH   1   2
HETATM    2  C           1     -20.856  -5.572  -5.059  0.00  0.00     0.251 C 
HETATM    3  N           1     -21.006  -6.613  -4.182  0.00  0.00    -0.336 N 
HETATM    4  C           1     -20.264  -7.870  -4.158  0.00  0.00     0.188 C 
HETATM    5  C           1     -21.944  -6.707  -3.067  0.00  0.00     0.127 C 
HETATM    6  C           1     -20.022  -8.118  -2.678  0.00  0.00     0.038 C 
HETATM    7  C           1     -21.131  -7.357  -1.961  0.00  0.00     0.022 C 
HETATM    8  O           1     -19.998  -4.744  -4.872  0.00  0.00    -0.271 OA
BRANCH   4   9
HETATM    9  C           1     -21.079  -8.987  -4.763  0.00  0.00     0.196 C 
HETATM   10  O           1     -21.443  -9.950  -4.054  0.00  0.00    -0.646 OA
HETATM   11  O           1     -21.392  -8.948  -5.973  0.00  0.00    -0.646 OA
ENDBRANCH   4   9
ENDBRANCH   1   2
BRANCH   1  12
HETATM   12  C           1     -21.525  -4.128  -6.956  0.00  0.00     0.081 C 
BRANCH  12  13
HETATM   13  C           1     -22.031  -4.202  -8.363  0.00  0.00    -0.056 A 
HETATM   14  C           1     -23.524  -4.090  -8.643  0.00  0.00     0.010 A 
HETATM   15  C           1     -24.039  -4.165 -10.074  0.00  0.00     0.038 A 
HETATM   16  C           1     -23.061  -4.353 -11.226  0.00  0.00     0.081 A 
HETATM   17  C           1     -21.568  -4.464 -10.947  0.00  0.00     0.038 A 
HETATM   18  C           1     -21.053  -4.389  -9.515  0.00  0.00     0.010 A 
BRANCH  16  19
HETATM   19  O           1     -23.519  -4.420 -12.499  0.00  0.00    -0.247 OA
BRANCH  19  20
HETATM   20  P           1     -24.010  -3.051 -13.203  0.00  0.00     0.411 P 
HETATM   21  O           1     -25.439  -2.823 -12.892  0.00  0.00    -0.624 OA
HETATM   22  O           1     -23.835  -3.160 -14.668  0.00  0.00    -0.624 OA
BRANCH  20  23
HETATM   23  O           1     -23.134  -1.816 -12.644  0.00  0.00    -0.300 OA
HETATM   24  H           1     -23.403  -1.074 -13.158  0.00  0.00     0.223 HD
ENDBRANCH  20  23
ENDBRANCH  19  20
ENDBRANCH  16  19
ENDBRANCH  12  13
ENDBRANCH   1  12
BRANCH   1  25
HETATM   25  N           1     -23.193  -5.544  -5.815  0.00  0.00    -0.066 N 
HETATM   26  H           1     -23.558  -4.581  -5.636  0.00  0.00     0.275 HD
HETATM   27  H           1     -23.764  -5.999  -6.561  0.00  0.00     0.275 HD
HETATM   28  H           1     -23.253  -6.108  -4.937  0.00  0.00     0.275 HD
ENDBRANCH   1  25
TORSDOF 8
ENDMDL
MODEL 3
REMARK VINA RESULT:      -7.5      1.684      2.478
REMARK  8 active torsions:
REMARK  status: ('A' for Active; 'I' for Inactive)
REMARK    1  A    between atoms: C_2  and  C_4 
REMARK       I    between atoms: N_5  and  C_6 
REMARK    2  A    between atoms: C_6  and  C_7 
REMARK    3  A    between atoms: C_7  and  C_8 
REMARK    4  A    between atoms: C_7  and  N_20 
REMARK    5  A    between atoms: C_8  and  C_9 
REMARK    6  A    between atoms: C_12  and  O_13 
REMARK    7  A    between atoms: O_13  and  P_14 
REMARK    8  A    between atoms: P_14  and  O_16 
ROOT
HETATM    1  C           1     -20.331  -6.645  -5.583  0.00  0.00     0.279 C 
ENDROOT
BRANCH   1   2
HETATM    2  C           1     -21.064  -6.895  -4.289  0.00  0.00     0.251 C 
HETATM    3  N           1     -20.966  -8.113  -3.671  0.00  0.00    -0.336 N 
HETATM    4  C           1     -20.067  -8.490  -2.584  0.00  0.00     0.188 C 
HETATM    5  C           1     -21.740  -9.318  -3.956  0.00  0.00     0.127 C 
HETATM    6  C           1     -20.935  -9.347  -1.678  0.00  0.00     0.038 C 
HETATM    7  C           1     -22.033  -9.896  -2.582  0.00  0.00     0.022 C 
HETATM    8  O           1     -21.736  -6.020  -3.797  0.00  0.00    -0.271 OA
BRANCH   4   9
HETATM    9  C           1     -18.893  -9.281  -3.109  0.00  0.00     0.196 C 
HETATM   10  O           1     -18.367  -8.967  -4.199  0.00  0.00    -0.646 OA
HETATM   11  O           1     -18.447 -10.247  -2.454  0.00  0.00    -0.646 OA
ENDBRANCH   4   9
ENDBRANCH   1   2
BRANCH   1  12
HETATM   12  C           1     -20.090  -5.150  -5.752  0.00  0.00     0.081 C 
BRANCH  12  13
HETATM   13  C           1     -20.665  -4.697  -7.058  0.00  0.00    -0.056 A 
HETATM   14  C           1     -22.087  -4.154  -7.118  0.00  0.00     0.010 A 
HETATM   15  C           1     -22.671  -3.693  -8.446  0.00  0.00     0.038 A 
HETATM   16  C           1     -21.833  -3.774  -9.716  0.00  0.00     0.081 A 
HETATM   17  C           1     -20.411  -4.317  -9.656  0.00  0.00     0.038 A 
HETATM   18  C           1     -19.827  -4.778  -8.327  0.00  0.00     0.010 A 
BRANCH  16  19
HETATM   19  O           1     -22.352  -3.364 -10.898  0.00  0.00    -0.247 OA
BRANCH  19  20
HETATM   20  P           1     -23.713  -4.065 -11.414  0.00  0.00     0.411 P 
HETATM   21  O           1     -24.871  -3.213 -11.061  0.00  0.00    -0.624 OA
HETATM   22  O           1     -23.861  -5.388 -10.769  0.00  0.00    -0.624 OA
BRANCH  20  23
HETATM   23  O           1     -23.648  -4.248 -13.017  0.00  0.00    -0.300 OA
HETATM   24  H           1     -23.388  -3.406 -13.348  0.00  0.00     0.223 HD
ENDBRANCH  20  23
ENDBRANCH  19  20
ENDBRANCH  16  19
ENDBRANCH  12  13
ENDBRANCH   1  12
BRANCH   1  25
HETATM   25  N           1     -21.156  -7.150  -6.730  0.00  0.00    -0.066 N 
HETATM   26  H           1     -21.306  -6.378  -7.418  0.00  0.00     0.275 HD
HETATM   27  H           1     -20.656  -7.940  -7.197  0.00  0.00     0.275 HD
HETATM   28  H           1     -22.080  -7.484  -6.374  0.00  0.00     0.275 HD
ENDBRANCH   1  25
TORSDOF 8
ENDMDL
MODEL 4
REMARK VINA RESULT:      -7.3      1.771      2.722
REMARK  8 active torsions:
REMARK  status: ('A' for Active; 'I' for Inactive)
REMARK    1  A    between atoms: C_2  and  C_4 
REMARK       I    between atoms: N_5  and  C_6 
REMARK    2  A    between atoms: C_6  and  C_7 
REMARK    3  A    between atoms: C_7  and  C_8 
REMARK    4  A    between atoms: C_7  and  N_20 
REMARK    5  A    between atoms: C_8  and  C_9 
REMARK    6  A    between atoms: C_12  and  O_13 
REMARK    7  A    between atoms: O_13  and  P_14 
REMARK    8  A    between atoms: P_14  and  O_16 
ROOT
HETATM    1  C           1     -21.430  -7.543  -3.828  0.00  0.00     0.279 C 
ENDROOT
BRANCH   1   2
HETATM    2  C           1     -21.592  -8.945  -3.295  0.00  0.00     0.251 C 
HETATM    3  N           1     -21.447  -9.188  -1.955  0.00  0.00    -0.336 N 
HETATM    4  C           1     -22.501  -9.284  -0.949  0.00  0.00     0.188 C 
HETATM    5  C           1     -20.204  -9.407  -1.220  0.00  0.00     0.127 C 
HETATM    6  C           1     -22.060 -10.445  -0.074  0.00  0.00     0.038 C 
HETATM    7  C           1     -20.548 -10.522  -0.248  0.00  0.00     0.022 C 
HETATM    8  O           1     -21.848  -9.852  -4.049  0.00  0.00    -0.271 OA
BRANCH   4   9
HETATM    9  C           1     -22.595  -8.010  -0.146  0.00  0.00     0.196 C 
HETATM   10  O           1     -22.453  -8.043   1.096  0.00  0.00    -0.646 OA
HETATM   11  O           1     -22.812  -6.922  -0.722  0.00  0.00    -0.646 OA
ENDBRANCH   4   9
ENDBRANCH   1   2
BRANCH   1  12
HETATM   12  C           1     -20.483  -7.559  -5.022  0.00  0.00     0.081 C 
BRANCH  12  13
HETATM   13  C           1     -20.905  -6.512  -6.007  0.00  0.00    -0.056 A 
HETATM   14  C           1     -19.972  -6.116  -7.143  0.00  0.00     0.010 A 
HETATM   15  C           1     -20.401  -5.051  -8.145  0.00  0.00     0.038 A 
HETATM   16  C           1     -21.763  -4.384  -8.009  0.00  0.00     0.081 A 
HETATM   17  C           1     -22.696  -4.780  -6.873  0.00  0.00     0.038 A 
HETATM   18  C           1     -22.267  -5.845  -5.872  0.00  0.00     0.010 A 
BRANCH  16  19
HETATM   19  O           1     -22.145  -3.437  -8.900  0.00  0.00    -0.247 OA
BRANCH  19  20
HETATM   20  P           1     -23.428  -3.745  -9.831  0.00  0.00     0.411 P 
HETATM   21  O           1     -23.522  -5.201 -10.077  0.00  0.00    -0.624 OA
HETATM   22  O           1     -23.281  -3.036 -11.122  0.00  0.00    -0.624 OA
BRANCH  20  23
HETATM   23  O           1     -24.767  -3.237  -9.086  0.00  0.00    -0.300 OA
HETATM   24  H           1     -24.832  -2.322  -9.299  0.00  0.00     0.223 HD
ENDBRANCH  20  23
ENDBRANCH  19  20
ENDBRANCH  16  19
ENDBRANCH  12  13
ENDBRANCH   1  12
BRANCH   1  25
HETATM   25  N           1     -20.865  -6.662  -2.754  0.00  0.00    -0.066 N 
HETATM   26  H           1     -19.822  -6.650  -2.826  0.00  0.00     0.275 HD
HETATM   27  H           1     -21.233  -5.691  -2.871  0.00  0.00     0.275 HD
HETATM   28  H           1     -21.145  -7.031  -1.817  0.00  0.00     0.275 HD
ENDBRANCH   1  25
TORSDOF 8
ENDMDL
MODEL 5
REMARK VINA RESULT:      -7.0      1.744      2.626
REMARK  8 active torsions:
REMARK  status: ('A' for Active; 'I' for Inactive)
REMARK    1  A    between atoms: C_2  and  C_4 
REMARK       I    between atoms: N_5  and  C_6 
REMARK    2  A    between atoms: C_6  and  C_7 
REMARK    3  A    between atoms: C_7  and  C_8 
REMARK    4  A    between atoms: C_7  and  N_20 
REMARK    5  A    between atoms: C_8  and  C_9 
REMARK    6  A    between atoms: C_12  and  O_13 
REMARK    7  A    between atoms: O_13  and  P_14 
REMARK    8  A    between atoms: P_14  and  O_16 
ROOT
HETATM    1  C           1     -20.306  -5.315  -6.967  0.00  0.00     0.279 C 
ENDROOT
BRANCH   1   2
HETATM    2  C           1     -20.281  -5.252  -5.459  0.00  0.00     0.251 C 
HETATM    3  N           1     -20.882  -6.237  -4.723  0.00  0.00    -0.336 N 
HETATM    4  C           1     -20.252  -7.411  -4.126  0.00  0.00     0.188 C 
HETATM    5  C           1     -22.293  -6.343  -4.364  0.00  0.00     0.127 C 
HETATM    6  C           1     -20.922  -7.528  -2.767  0.00  0.00     0.038 C 
HETATM    7  C           1     -22.268  -6.830  -2.926  0.00  0.00     0.022 C 
HETATM    8  O           1     -19.730  -4.332  -4.903  0.00  0.00    -0.271 OA
BRANCH   4   9
HETATM    9  C           1     -20.510  -8.642  -4.960  0.00  0.00     0.196 C 
HETATM   10  O           1     -20.044  -9.746  -4.605  0.00  0.00    -0.646 OA
HETATM   11  O           1     -21.191  -8.557  -6.005  0.00  0.00    -0.646 OA
ENDBRANCH   4   9
ENDBRANCH   1   2
BRANCH   1  12
HETATM   12  C           1     -21.745  -5.453  -7.446  0.00  0.00     0.081 C 
BRANCH  12  13
HETATM   13  C           1     -21.925  -4.678  -8.715  0.00  0.00    -0.056 A 
HETATM   14  C           1     -20.772  -4.554  -9.702  0.00  0.00     0.010 A 
HETATM   15  C           1     -20.955  -3.766 -10.992  0.00  0.00     0.038 A 
HETATM   16  C           1     -22.291  -3.102 -11.296  0.00  0.00     0.081 A 
HETATM   17  C           1     -23.445  -3.226 -10.309  0.00  0.00     0.038 A 
HETATM   18  C           1     -23.261  -4.015  -9.018  0.00  0.00     0.010 A 
BRANCH  16  19
HETATM   19  O           1     -22.455  -2.401 -12.443  0.00  0.00    -0.247 OA
BRANCH  19  20
HETATM   20  P           1     -23.505  -2.965 -13.534  0.00  0.00     0.411 P 
HETATM   21  O           1     -24.662  -2.046 -13.625  0.00  0.00    -0.624 OA
HETATM   22  O           1     -23.972  -4.306 -13.121  0.00  0.00    -0.624 OA
BRANCH  20  23
HETATM   23  O           1     -22.781  -3.063 -14.974  0.00  0.00    -0.300 OA
HETATM   24  H           1     -23.476  -3.247 -15.583  0.00  0.00     0.223 HD
ENDBRANCH  20  23
ENDBRANCH  19  20
ENDBRANCH  16  19
ENDBRANCH  12  13
ENDBRANCH   1  12
BRANCH   1  25
HETATM   25  N           1     -19.510  -6.499  -7.430  0.00  0.00    -0.066 N 
HETATM   26  H           1     -19.110  -6.303  -8.375  0.00  0.00     0.275 HD
HETATM   27  H           1     -18.733  -6.682  -6.755  0.00  0.00     0.275 HD
HETATM   28  H           1     -20.131  -7.338  -7.482  0.00  0.00     0.275 HD
ENDBRANCH   1  25
TORSDOF 8
ENDMDL
MODEL 6
REMARK VINA RESULT:      -7.0      3.465      8.696
REMARK  8 active torsions:
REMARK  status: ('A' for Active; 'I' for Inactive)
REMARK    1  A    between atoms: C_2  and  C_4 
REMARK       I    between atoms: N_5  and  C_6 
REMARK    2  A    between atoms: C_6  and  C_7 
REMARK    3  A    between atoms: C_7  and  C_8 
REMARK    4  A    between atoms: C_7  and  N_20 
REMARK    5  A    between atoms: C_8  and  C_9 
REMARK    6  A    between atoms: C_12  and  O_13 
REMARK    7  A    between atoms: O_13  and  P_14 
REMARK    8  A    between atoms: P_14  and  O_16 
ROOT
HETATM    1  C           1     -22.354  -4.626  -6.778  0.00  0.00     0.279 C 
ENDROOT
BRANCH   1   2
HETATM    2  C           1     -21.658  -3.697  -7.742  0.00  0.00     0.251 C 
HETATM    3  N           1     -21.632  -3.993  -9.079  0.00  0.00    -0.336 N 
HETATM    4  C           1     -22.528  -3.495 -10.118  0.00  0.00     0.188 C 
HETATM    5  C           1     -20.701  -4.877  -9.775  0.00  0.00     0.127 C 
HETATM    6  C           1     -21.605  -3.230 -11.295  0.00  0.00     0.038 C 
HETATM    7  C           1     -20.405  -4.143 -11.072  0.00  0.00     0.022 C 
HETATM    8  O           1     -21.125  -2.693  -7.336  0.00  0.00    -0.271 OA
BRANCH   4   9
HETATM    9  C           1     -23.567  -4.531 -10.473  0.00  0.00     0.196 C 
HETATM   10  O           1     -24.550  -4.712  -9.721  0.00  0.00    -0.646 OA
HETATM   11  O           1     -23.446  -5.206 -11.518  0.00  0.00    -0.646 OA
ENDBRANCH   4   9
ENDBRANCH   1   2
BRANCH   1  12
HETATM   12  C           1     -21.772  -6.027  -6.913  0.00  0.00     0.081 C 
BRANCH  12  13
HETATM   13  C           1     -21.515  -6.594  -5.551  0.00  0.00    -0.056 A 
HETATM   14  C           1     -21.550  -8.101  -5.333  0.00  0.00     0.010 A 
HETATM   15  C           1     -21.288  -8.676  -3.947  0.00  0.00     0.038 A 
HETATM   16  C           1     -20.992  -7.745  -2.779  0.00  0.00     0.081 A 
HETATM   17  C           1     -20.957  -6.238  -2.997  0.00  0.00     0.038 A 
HETATM   18  C           1     -21.219  -5.662  -4.383  0.00  0.00     0.010 A 
BRANCH  16  19
HETATM   19  O           1     -20.759  -8.256  -1.547  0.00  0.00    -0.247 OA
BRANCH  19  20
HETATM   20  P           1     -21.991  -8.314  -0.504  0.00  0.00     0.411 P 
HETATM   21  O           1     -22.857  -9.471  -0.826  0.00  0.00    -0.624 OA
HETATM   22  O           1     -22.779  -7.066  -0.602  0.00  0.00    -0.624 OA
BRANCH  20  23
HETATM   23  O           1     -21.416  -8.474   0.997  0.00  0.00    -0.300 OA
HETATM   24  H           1     -22.101  -8.148   1.556  0.00  0.00     0.223 HD
ENDBRANCH  20  23
ENDBRANCH  19  20
ENDBRANCH  16  19
ENDBRANCH  12  13
ENDBRANCH   1  12
BRANCH   1  25
HETATM   25  N           1     -23.821  -4.662  -7.089  0.00  0.00    -0.066 N 
HETATM   26  H           1     -23.957  -4.888  -8.100  0.00  0.00     0.275 HD
HETATM   27  H           1     -24.283  -5.393  -6.504  0.00  0.00     0.275 HD
HETATM   28  H           1     -24.245  -3.729  -6.881  0.00  0.00     0.275 HD
ENDBRANCH   1  25
TORSDOF 8
ENDMDL
MODEL 7
REMARK VINA RESULT:      -6.8      3.478      8.311
REMARK  8 active torsions:
REMARK  status: ('A' for Active; 'I' for Inactive)
REMARK    1  A    between atoms: C_2  and  C_4 
REMARK       I    between atoms: N_5  and  C_6 
REMARK    2  A    between atoms: C_6  and  C_7 
REMARK    3  A    between atoms: C_7  and  C_8 
REMARK    4  A    between atoms: C_7  and  N_20 
REMARK    5  A    between atoms: C_8  and  C_9 
REMARK    6  A    between atoms: C_12  and  O_13 
REMARK    7  A    between atoms: O_13  and  P_14 
REMARK    8  A    between atoms: P_14  and  O_16 
ROOT
HETATM    1  C           1     -21.199  -4.530  -9.325  0.00  0.00     0.279 C 
ENDROOT
BRANCH   1   2
HETATM    2  C           1     -21.522  -3.787 -10.597  0.00  0.00     0.251 C 
HETATM    3  N           1     -22.759  -3.917 -11.170  0.00  0.00    -0.336 N 
HETATM    4  C           1     -23.906  -3.027 -11.021  0.00  0.00     0.188 C 
HETATM    5  C           1     -23.218  -4.977 -12.064  0.00  0.00     0.127 C 
HETATM    6  C           1     -24.493  -2.956 -12.420  0.00  0.00     0.038 C 
HETATM    7  C           1     -24.044  -4.242 -13.105  0.00  0.00     0.022 C 
HETATM    8  O           1     -20.690  -3.078 -11.111  0.00  0.00    -0.271 OA
BRANCH   4   9
HETATM    9  C           1     -24.906  -3.599 -10.046  0.00  0.00     0.196 C 
HETATM   10  O           1     -24.665  -4.680  -9.467  0.00  0.00    -0.646 OA
HETATM   11  O           1     -25.975  -2.993  -9.818  0.00  0.00    -0.646 OA
ENDBRANCH   4   9
ENDBRANCH   1   2
BRANCH   1  12
HETATM   12  C           1     -21.608  -3.685  -8.125  0.00  0.00     0.081 C 
BRANCH  12  13
HETATM   13  C           1     -21.502  -4.506  -6.877  0.00  0.00    -0.056 A 
HETATM   14  C           1     -20.298  -4.344  -5.958  0.00  0.00     0.010 A 
HETATM   15  C           1     -20.191  -5.178  -4.689  0.00  0.00     0.038 A 
HETATM   16  C           1     -21.287  -6.176  -4.339  0.00  0.00     0.081 A 
HETATM   17  C           1     -22.491  -6.339  -5.258  0.00  0.00     0.038 A 
HETATM   18  C           1     -22.598  -5.503  -6.527  0.00  0.00     0.010 A 
BRANCH  16  19
HETATM   19  O           1     -21.192  -6.919  -3.210  0.00  0.00    -0.247 OA
BRANCH  19  20
HETATM   20  P           1     -20.636  -8.430  -3.340  0.00  0.00     0.411 P 
HETATM   21  O           1     -21.777  -9.371  -3.415  0.00  0.00    -0.624 OA
HETATM   22  O           1     -19.807  -8.754  -2.159  0.00  0.00    -0.624 OA
BRANCH  20  23
HETATM   23  O           1     -19.743  -8.560  -4.679  0.00  0.00    -0.300 OA
HETATM   24  H           1     -19.842  -7.733  -5.119  0.00  0.00     0.223 HD
ENDBRANCH  20  23
ENDBRANCH  19  20
ENDBRANCH  16  19
ENDBRANCH  12  13
ENDBRANCH   1  12
BRANCH   1  25
HETATM   25  N           1     -19.724  -4.801  -9.265  0.00  0.00    -0.066 N 
HETATM   26  H           1     -19.539  -5.788  -9.553  0.00  0.00     0.275 HD
HETATM   27  H           1     -19.225  -4.150  -9.912  0.00  0.00     0.275 HD
HETATM   28  H           1     -19.382  -4.652  -8.288  0.00  0.00     0.275 HD
ENDBRANCH   1  25
TORSDOF 8
ENDMDL
MODEL 8
REMARK VINA RESULT:      -6.8      2.292      3.136
REMARK  8 active torsions:
REMARK  status: ('A' for Active; 'I' for Inactive)
REMARK    1  A    between atoms: C_2  and  C_4 
REMARK       I    between atoms: N_5  and  C_6 
REMARK    2  A    between atoms: C_6  and  C_7 
REMARK    3  A    between atoms: C_7  and  C_8 
REMARK    4  A    between atoms: C_7  and  N_20 
REMARK    5  A    between atoms: C_8  and  C_9 
REMARK    6  A    between atoms: C_12  and  O_13 
REMARK    7  A    between atoms: O_13  and  P_14 
REMARK    8  A    between atoms: P_14  and  O_16 
ROOT
HETATM    1  C           1     -21.227  -8.148  -5.268  0.00  0.00     0.279 C 
ENDROOT
BRANCH   1   2
HETATM    2  C           1     -20.582  -9.476  -5.579  0.00  0.00     0.251 C 
HETATM    3  N           1     -19.288  -9.713  -5.202  0.00  0.00    -0.336 N 
HETATM    4  C           1     -18.823 -10.402  -4.001  0.00  0.00     0.188 C 
HETATM    5  C           1     -18.070  -9.332  -5.913  0.00  0.00     0.127 C 
HETATM    6  C           1     -17.660 -11.246  -4.496  0.00  0.00     0.038 C 
HETATM    7  C           1     -17.162 -10.538  -5.751  0.00  0.00     0.022 C 
HETATM    8  O           1     -21.208 -10.330  -6.160  0.00  0.00    -0.271 OA
BRANCH   4   9
HETATM    9  C           1     -18.364  -9.412  -2.958  0.00  0.00     0.196 C 
HETATM   10  O           1     -17.152  -9.337  -2.660  0.00  0.00    -0.646 OA
HETATM   11  O           1     -19.194  -8.667  -2.394  0.00  0.00    -0.646 OA
ENDBRANCH   4   9
ENDBRANCH   1   2
BRANCH   1  12
HETATM   12  C           1     -20.253  -7.022  -5.594  0.00  0.00     0.081 C 
BRANCH  12  13
HETATM   13  C           1     -20.908  -6.051  -6.527  0.00  0.00    -0.056 A 
HETATM   14  C           1     -22.308  -5.531  -6.229  0.00  0.00     0.010 A 
HETATM   15  C           1     -22.973  -4.544  -7.178  0.00  0.00     0.038 A 
HETATM   16  C           1     -22.238  -4.076  -8.427  0.00  0.00     0.081 A 
HETATM   17  C           1     -20.837  -4.595  -8.727  0.00  0.00     0.038 A 
HETATM   18  C           1     -20.173  -5.583  -7.776  0.00  0.00     0.010 A 
BRANCH  16  19
HETATM   19  O           1     -22.829  -3.198  -9.272  0.00  0.00    -0.247 OA
BRANCH  19  20
HETATM   20  P           1     -23.958  -3.758 -10.282  0.00  0.00     0.411 P 
HETATM   21  O           1     -25.298  -3.365  -9.791  0.00  0.00    -0.624 OA
HETATM   22  O           1     -23.871  -5.233 -10.349  0.00  0.00    -0.624 OA
BRANCH  20  23
HETATM   23  O           1     -23.720  -3.136 -11.753  0.00  0.00    -0.300 OA
HETATM   24  H           1     -24.565  -3.160 -12.167  0.00  0.00     0.223 HD
ENDBRANCH  20  23
ENDBRANCH  19  20
ENDBRANCH  16  19
ENDBRANCH  12  13
ENDBRANCH   1  12
BRANCH   1  25
HETATM   25  N           1     -21.583  -8.094  -3.812  0.00  0.00    -0.066 N 
HETATM   26  H           1     -22.501  -7.609  -3.696  0.00  0.00     0.275 HD
HETATM   27  H           1     -21.653  -9.066  -3.435  0.00  0.00     0.275 HD
HETATM   28  H           1     -20.844  -7.570  -3.291  0.00  0.00     0.275 HD
ENDBRANCH   1  25
TORSDOF 8
ENDMDL
MODEL 9
REMARK VINA RESULT:      -6.6      1.614      2.111
REMARK  8 active torsions:
REMARK  status: ('A' for Active; 'I' for Inactive)
REMARK    1  A    between atoms: C_2  and  C_4 
REMARK       I    between atoms: N_5  and  C_6 
REMARK    2  A    between atoms: C_6  and  C_7 
REMARK    3  A    between atoms: C_7  and  C_8 
REMARK    4  A    between atoms: C_7  and  N_20 
REMARK    5  A    between atoms: C_8  and  C_9 
REMARK    6  A    between atoms: C_12  and  O_13 
REMARK    7  A    between atoms: O_13  and  P_14 
REMARK    8  A    between atoms: P_14  and  O_16 
ROOT
HETATM    1  C           1     -21.009  -6.933  -5.232  0.00  0.00     0.279 C 
ENDROOT
BRANCH   1   2
HETATM    2  C           1     -20.008  -8.061  -5.196  0.00  0.00     0.251 C 
HETATM    3  N           1     -19.999  -8.934  -4.141  0.00  0.00    -0.336 N 
HETATM    4  C           1     -20.638 -10.245  -4.065  0.00  0.00     0.188 C 
HETATM    5  C           1     -19.347  -8.757  -2.847  0.00  0.00     0.127 C 
HETATM    6  C           1     -19.612 -11.106  -3.347  0.00  0.00     0.038 C 
HETATM    7  C           1     -18.766 -10.127  -2.541  0.00  0.00     0.022 C 
HETATM    8  O           1     -19.216  -8.195  -6.098  0.00  0.00    -0.271 OA
BRANCH   4   9
HETATM    9  C           1     -21.923 -10.170  -3.278  0.00  0.00     0.196 C 
HETATM   10  O           1     -22.040  -9.340  -2.350  0.00  0.00    -0.646 OA
HETATM   11  O           1     -22.871 -10.937  -3.553  0.00  0.00    -0.646 OA
ENDBRANCH   4   9
ENDBRANCH   1   2
BRANCH   1  12
HETATM   12  C           1     -20.291  -5.625  -5.540  0.00  0.00     0.081 C 
BRANCH  12  13
HETATM   13  C           1     -20.848  -5.035  -6.798  0.00  0.00    -0.056 A 
HETATM   14  C           1     -19.946  -4.822  -8.006  0.00  0.00     0.010 A 
HETATM   15  C           1     -20.513  -4.221  -9.285  0.00  0.00     0.038 A 
HETATM   16  C           1     -21.984  -3.833  -9.356  0.00  0.00     0.081 A 
HETATM   17  C           1     -22.888  -4.045  -8.148  0.00  0.00     0.038 A 
HETATM   18  C           1     -22.319  -4.646  -6.869  0.00  0.00     0.010 A 
BRANCH  16  19
HETATM   19  O           1     -22.490  -3.298 -10.494  0.00  0.00    -0.247 OA
BRANCH  19  20
HETATM   20  P           1     -23.827  -3.958 -11.114  0.00  0.00     0.411 P 
HETATM   21  O           1     -23.821  -3.795 -12.585  0.00  0.00    -0.624 OA
HETATM   22  O           1     -25.017  -3.285 -10.548  0.00  0.00    -0.624 OA
BRANCH  20  23
HETATM   23  O           1     -23.870  -5.530 -10.747  0.00  0.00    -0.300 OA
HETATM   24  H           1     -24.482  -5.906 -11.356  0.00  0.00     0.223 HD
ENDBRANCH  20  23
ENDBRANCH  19  20
ENDBRANCH  16  19
ENDBRANCH  12  13
ENDBRANCH   1  12
BRANCH   1  25
HETATM   25  N           1     -21.689  -6.827  -3.899  0.00  0.00    -0.066 N 
HETATM   26  H           1     -21.376  -5.955  -3.416  0.00  0.00     0.275 HD
HETATM   27  H           1     -22.724  -6.794  -4.038  0.00  0.00     0.275 HD
HETATM   28  H           1     -21.442  -7.657  -3.314  0.00  0.00     0.275 HD
ENDBRANCH   1  25
TORSDOF 8
ENDMDL
