MODEL 1
REMARK VINA RESULT:      -7.0      0.000      0.000
REMARK  8 active torsions:
REMARK  status: ('A' for Active; 'I' for Inactive)
REMARK    1  A    between atoms: C_8  and  C_14 
REMARK    2  A    between atoms: C_8  and  C_12 
REMARK    3  A    between atoms: C_8  and  N_16 
REMARK    4  A    between atoms: C_12  and  C_26 
REMARK       I    between atoms: C_13  and  N_16 
REMARK    5  A    between atoms: C_13  and  C_22 
REMARK    6  A    between atoms: N_19  and  C_22 
REMARK    7  A    between atoms: S_20  and  C_21 
REMARK    8  A    between atoms: C_21  and  C_22 
ROOT
HETATM    1  C           1     -21.180  -6.071  -7.082  0.00  0.00     0.190 C 
ENDROOT
BRANCH   1   2
HETATM    2  C           1     -19.683  -6.078  -6.888  0.00  0.00     0.197 C 
HETATM    3  O           1     -19.035  -5.013  -6.985  0.00  0.00    -0.646 OA
HETATM    4  O           1     -19.091  -7.148  -6.629  0.00  0.00    -0.646 OA
ENDBRANCH   1   2
BRANCH   1   5
HETATM    5  C           1     -21.713  -4.661  -6.875  0.00  0.00     0.077 C 
BRANCH   5   6
HETATM    6  C           1     -22.563  -4.271  -8.044  0.00  0.00    -0.028 A 
HETATM    7  C           1     -22.100  -3.973  -9.357  0.00  0.00    -0.002 A 
HETATM    8  C           1     -20.831  -3.941  -9.964  0.00  0.00     0.014 A 
HETATM    9  C           1     -23.221  -3.661 -10.126  0.00  0.00     0.042 A 
HETATM   10  C           1     -20.728  -3.597 -11.317  0.00  0.00     0.001 A 
HETATM   11  C           1     -21.864  -3.289 -12.061  0.00  0.00     0.002 A 
HETATM   12  C           1     -23.136  -3.314 -11.479  0.00  0.00     0.030 A 
HETATM   13  N           1     -24.320  -3.766  -9.303  0.00  0.00    -0.365 N 
HETATM   14  H           1     -25.312  -3.589  -9.598  0.00  0.00     0.165 HD
HETATM   15  C           1     -23.933  -4.135  -8.040  0.00  0.00     0.096 A 
ENDBRANCH   5   6
ENDBRANCH   1   5
BRANCH   1  16
HETATM   16  N           1     -21.794  -6.965  -6.120  0.00  0.00    -0.344 N 
HETATM   17  H           1     -21.844  -7.958  -6.311  0.00  0.00     0.163 HD
HETATM   18  C           1     -22.307  -6.467  -4.953  0.00  0.00     0.249 C 
HETATM   19  O           1     -23.460  -6.110  -4.903  0.00  0.00    -0.271 OA
BRANCH  18  20
HETATM   20  C           1     -21.431  -6.363  -3.728  0.00  0.00     0.283 C 
BRANCH  20  21
HETATM   21  N           1     -22.272  -5.988  -2.544  0.00  0.00    -0.066 N 
HETATM   22  H           1     -21.932  -5.082  -2.148  0.00  0.00     0.275 HD
HETATM   23  H           1     -23.267  -5.884  -2.844  0.00  0.00     0.275 HD
HETATM   24  H           1     -22.203  -6.734  -1.817  0.00  0.00     0.275 HD
ENDBRANCH  20  21
BRANCH  20  25
HETATM   25  C           1     -20.758  -7.704  -3.468  0.00  0.00     0.113 C 
BRANCH  25  26
HETATM   26  S           1     -20.746  -8.041  -1.685  0.00  0.00    -0.180 SA
HETATM   27  H           1     -20.408  -6.795  -1.308  0.00  0.00     0.101 HD
ENDBRANCH  25  26
ENDBRANCH  20  25
ENDBRANCH  18  20
ENDBRANCH   1  16
TORSDOF 8
ENDMDL
MODEL 2
REMARK VINA RESULT:      -6.6      1.690      2.305
REMARK  8 active torsions:
REMARK  status: ('A' for Active; 'I' for Inactive)
REMARK    1  A    between atoms: C_8  and  C_14 
REMARK    2  A    between atoms: C_8  and  C_12 
REMARK    3  A    between atoms: C_8  and  N_16 
REMARK    4  A    between atoms: C_12  and  C_26 
REMARK       I    between atoms: C_13  and  N_16 
REMARK    5  A    between atoms: C_13  and  C_22 
REMARK    6  A    between atoms: N_19  and  C_22 
REMARK    7  A    between atoms: S_20  and  C_21 
REMARK    8  A    between atoms: C_21  and  C_22 
ROOT
HETATM    1  C           1     -21.518  -5.495  -6.861  0.00  0.00     0.190 C 
ENDROOT
BRANCH   1   2
HETATM    2  C           1     -20.038  -5.569  -6.573  0.00  0.00     0.197 C 
HETATM    3  O           1     -19.458  -4.604  -6.029  0.00  0.00    -0.646 OA
HETATM    4  O           1     -19.392  -6.595  -6.877  0.00  0.00    -0.646 OA
ENDBRANCH   1   2
BRANCH   1   5
HETATM    5  C           1     -21.865  -4.108  -7.382  0.00  0.00     0.077 C 
BRANCH   5   6
HETATM    6  C           1     -21.572  -4.037  -8.849  0.00  0.00    -0.028 A 
HETATM    7  C           1     -22.513  -3.765  -9.881  0.00  0.00    -0.002 A 
HETATM    8  C           1     -23.894  -3.495  -9.900  0.00  0.00     0.014 A 
HETATM    9  C           1     -21.817  -3.795 -11.089  0.00  0.00     0.042 A 
HETATM   10  C           1     -24.530  -3.265 -11.126  0.00  0.00     0.001 A 
HETATM   11  C           1     -23.810  -3.301 -12.318  0.00  0.00     0.002 A 
HETATM   12  C           1     -22.437  -3.568 -12.324  0.00  0.00     0.030 A 
HETATM   13  N           1     -20.503  -4.077 -10.793  0.00  0.00    -0.365 N 
HETATM   14  H           1     -19.733  -4.166 -11.501  0.00  0.00     0.165 HD
HETATM   15  C           1     -20.343  -4.225  -9.440  0.00  0.00     0.096 A 
ENDBRANCH   5   6
ENDBRANCH   1   5
BRANCH   1  16
HETATM   16  N           1     -22.259  -5.752  -5.641  0.00  0.00    -0.344 N 
HETATM   17  H           1     -23.187  -5.366  -5.522  0.00  0.00     0.163 HD
HETATM   18  C           1     -21.704  -6.517  -4.651  0.00  0.00     0.249 C 
HETATM   19  O           1     -21.046  -5.996  -3.782  0.00  0.00    -0.271 OA
BRANCH  18  20
HETATM   20  C           1     -21.914  -8.012  -4.645  0.00  0.00     0.283 C 
BRANCH  20  21
HETATM   21  N           1     -21.062  -8.640  -5.708  0.00  0.00    -0.066 N 
HETATM   22  H           1     -21.672  -9.153  -6.384  0.00  0.00     0.275 HD
HETATM   23  H           1     -20.532  -7.895  -6.213  0.00  0.00     0.275 HD
HETATM   24  H           1     -20.391  -9.308  -5.267  0.00  0.00     0.275 HD
ENDBRANCH  20  21
BRANCH  20  25
HETATM   25  C           1     -21.524  -8.574  -3.285  0.00  0.00     0.113 C 
BRANCH  25  26
HETATM   26  S           1     -21.875 -10.354  -3.241  0.00  0.00    -0.180 SA
HETATM   27  H           1     -22.161 -10.409  -1.928  0.00  0.00     0.101 HD
ENDBRANCH  25  26
ENDBRANCH  20  25
ENDBRANCH  18  20
ENDBRANCH   1  16
TORSDOF 8
ENDMDL
MODEL 3
REMARK VINA RESULT:      -6.4      3.078      7.275
REMARK  8 active torsions:
REMARK  status: ('A' for Active; 'I' for Inactive)
REMARK    1  A    between atoms: C_8  and  C_14 
REMARK    2  A    between atoms: C_8  and  C_12 
REMARK    3  A    between atoms: C_8  and  N_16 
REMARK    4  A    between atoms: C_12  and  C_26 
REMARK       I    between atoms: C_13  and  N_16 
REMARK    5  A    between atoms: C_13  and  C_22 
REMARK    6  A    between atoms: N_19  and  C_22 
REMARK    7  A    between atoms: S_20  and  C_21 
REMARK    8  A    between atoms: C_21  and  C_22 
ROOT
HETATM    1  C           1     -20.001  -7.417  -5.306  0.00  0.00     0.190 C 
ENDROOT
BRANCH   1   2
HETATM    2  C           1     -19.049  -8.585  -5.228  0.00  0.00     0.197 C 
HETATM    3  O           1     -18.676  -9.014  -4.115  0.00  0.00    -0.646 OA
HETATM    4  O           1     -18.635  -9.125  -6.277  0.00  0.00    -0.646 OA
ENDBRANCH   1   2
BRANCH   1   5
HETATM    5  C           1     -21.396  -7.869  -4.897  0.00  0.00     0.077 C 
BRANCH   5   6
HETATM    6  C           1     -21.720  -7.325  -3.541  0.00  0.00    -0.028 A 
HETATM    7  C           1     -21.751  -8.064  -2.325  0.00  0.00    -0.002 A 
HETATM    8  C           1     -21.514  -9.411  -1.992  0.00  0.00     0.014 A 
HETATM    9  C           1     -22.097  -7.172  -1.310  0.00  0.00     0.042 A 
HETATM   10  C           1     -21.633  -9.818  -0.657  0.00  0.00     0.001 A 
HETATM   11  C           1     -21.981  -8.905   0.336  0.00  0.00     0.002 A 
HETATM   12  C           1     -22.221  -7.561   0.028  0.00  0.00     0.030 A 
HETATM   13  N           1     -22.270  -5.939  -1.897  0.00  0.00    -0.365 N 
HETATM   14  H           1     -22.537  -5.061  -1.385  0.00  0.00     0.165 HD
HETATM   15  C           1     -22.045  -6.020  -3.247  0.00  0.00     0.096 A 
ENDBRANCH   5   6
ENDBRANCH   1   5
BRANCH   1  16
HETATM   16  N           1     -20.036  -6.914  -6.665  0.00  0.00    -0.344 N 
HETATM   17  H           1     -19.992  -7.558  -7.445  0.00  0.00     0.163 HD
HETATM   18  C           1     -20.130  -5.568  -6.895  0.00  0.00     0.249 C 
HETATM   19  O           1     -19.128  -4.901  -6.997  0.00  0.00    -0.271 OA
BRANCH  18  20
HETATM   20  C           1     -21.486  -4.916  -7.021  0.00  0.00     0.283 C 
BRANCH  20  21
HETATM   21  N           1     -21.340  -3.430  -6.877  0.00  0.00    -0.066 N 
HETATM   22  H           1     -22.096  -2.952  -7.419  0.00  0.00     0.275 HD
HETATM   23  H           1     -21.416  -3.170  -5.869  0.00  0.00     0.275 HD
HETATM   24  H           1     -20.408  -3.134  -7.246  0.00  0.00     0.275 HD
ENDBRANCH  20  21
BRANCH  20  25
HETATM   25  C           1     -22.080  -5.238  -8.386  0.00  0.00     0.113 C 
BRANCH  25  26
HETATM   26  S           1     -21.341  -4.153  -9.640  0.00  0.00    -0.180 SA
HETATM   27  H           1     -22.165  -3.112  -9.429  0.00  0.00     0.101 HD
ENDBRANCH  25  26
ENDBRANCH  20  25
ENDBRANCH  18  20
ENDBRANCH   1  16
TORSDOF 8
ENDMDL
MODEL 4
REMARK VINA RESULT:      -6.4      3.472      7.844
REMARK  8 active torsions:
REMARK  status: ('A' for Active; 'I' for Inactive)
REMARK    1  A    between atoms: C_8  and  C_14 
REMARK    2  A    between atoms: C_8  and  C_12 
REMARK    3  A    between atoms: C_8  and  N_16 
REMARK    4  A    between atoms: C_12  and  C_26 
REMARK       I    between atoms: C_13  and  N_16 
REMARK    5  A    between atoms: C_13  and  C_22 
REMARK    6  A    between atoms: N_19  and  C_22 
REMARK    7  A    between atoms: S_20  and  C_21 
REMARK    8  A    between atoms: C_21  and  C_22 
ROOT
HETATM    1  C           1     -21.109  -7.557  -5.110  0.00  0.00     0.190 C 
ENDROOT
BRANCH   1   2
HETATM    2  C           1     -21.974  -6.507  -4.456  0.00  0.00     0.197 C 
HETATM    3  O           1     -23.045  -6.154  -4.997  0.00  0.00    -0.646 OA
HETATM    4  O           1     -21.621  -5.992  -3.373  0.00  0.00    -0.646 OA
ENDBRANCH   1   2
BRANCH   1   5
HETATM    5  C           1     -20.432  -8.398  -4.037  0.00  0.00     0.077 C 
BRANCH   5   6
HETATM    6  C           1     -21.335  -9.523  -3.638  0.00  0.00    -0.028 A 
HETATM    7  C           1     -22.009  -9.658  -2.392  0.00  0.00    -0.002 A 
HETATM    8  C           1     -22.068  -8.879  -1.222  0.00  0.00     0.014 A 
HETATM    9  C           1     -22.738 -10.846  -2.446  0.00  0.00     0.042 A 
HETATM   10  C           1     -22.852  -9.316  -0.147  0.00  0.00     0.001 A 
HETATM   11  C           1     -23.570 -10.507  -0.228  0.00  0.00     0.002 A 
HETATM   12  C           1     -23.526 -11.298  -1.382  0.00  0.00     0.030 A 
HETATM   13  N           1     -22.509 -11.406  -3.683  0.00  0.00    -0.365 N 
HETATM   14  H           1     -22.923 -12.311  -4.019  0.00  0.00     0.165 HD
HETATM   15  C           1     -21.661 -10.614  -4.412  0.00  0.00     0.096 A 
ENDBRANCH   5   6
ENDBRANCH   1   5
BRANCH   1  16
HETATM   16  N           1     -20.100  -6.911  -5.925  0.00  0.00    -0.344 N 
HETATM   17  H           1     -19.235  -7.392  -6.136  0.00  0.00     0.163 HD
HETATM   18  C           1     -20.317  -5.650  -6.411  0.00  0.00     0.249 C 
HETATM   19  O           1     -19.978  -4.686  -5.765  0.00  0.00    -0.271 OA
BRANCH  18  20
HETATM   20  C           1     -20.980  -5.462  -7.754  0.00  0.00     0.283 C 
BRANCH  20  21
HETATM   21  N           1     -22.216  -4.628  -7.588  0.00  0.00    -0.066 N 
HETATM   22  H           1     -22.780  -4.662  -8.467  0.00  0.00     0.275 HD
HETATM   23  H           1     -22.784  -5.003  -6.796  0.00  0.00     0.275 HD
HETATM   24  H           1     -21.944  -3.640  -7.386  0.00  0.00     0.275 HD
ENDBRANCH  20  21
BRANCH  20  25
HETATM   25  C           1     -20.018  -4.759  -8.702  0.00  0.00     0.113 C 
BRANCH  25  26
HETATM   26  S           1     -20.928  -4.151 -10.150  0.00  0.00    -0.180 SA
HETATM   27  H           1     -22.150  -4.485  -9.699  0.00  0.00     0.101 HD
ENDBRANCH  25  26
ENDBRANCH  20  25
ENDBRANCH  18  20
ENDBRANCH   1  16
TORSDOF 8
ENDMDL
MODEL 5
REMARK VINA RESULT:      -6.4      3.002      4.427
REMARK  8 active torsions:
REMARK  status: ('A' for Active; 'I' for Inactive)
REMARK    1  A    between atoms: C_8  and  C_14 
REMARK    2  A    between atoms: C_8  and  C_12 
REMARK    3  A    between atoms: C_8  and  N_16 
REMARK    4  A    between atoms: C_12  and  C_26 
REMARK       I    between atoms: C_13  and  N_16 
REMARK    5  A    between atoms: C_13  and  C_22 
REMARK    6  A    between atoms: N_19  and  C_22 
REMARK    7  A    between atoms: S_20  and  C_21 
REMARK    8  A    between atoms: C_21  and  C_22 
ROOT
HETATM    1  C           1     -21.446  -7.324  -3.887  0.00  0.00     0.190 C 
ENDROOT
BRANCH   1   2
HETATM    2  C           1     -21.590  -6.847  -2.462  0.00  0.00     0.197 C 
HETATM    3  O           1     -20.948  -7.408  -1.548  0.00  0.00    -0.646 OA
HETATM    4  O           1     -22.351  -5.892  -2.196  0.00  0.00    -0.646 OA
ENDBRANCH   1   2
BRANCH   1   5
HETATM    5  C           1     -22.169  -6.362  -4.820  0.00  0.00     0.077 C 
BRANCH   5   6
HETATM    6  C           1     -21.305  -6.072  -6.008  0.00  0.00    -0.028 A 
HETATM    7  C           1     -21.651  -5.253  -7.118  0.00  0.00    -0.002 A 
HETATM    8  C           1     -22.792  -4.505  -7.465  0.00  0.00     0.014 A 
HETATM    9  C           1     -20.561  -5.258  -7.988  0.00  0.00     0.042 A 
HETATM   10  C           1     -22.803  -3.791  -8.669  0.00  0.00     0.001 A 
HETATM   11  C           1     -21.699  -3.814  -9.519  0.00  0.00     0.002 A 
HETATM   12  C           1     -20.555  -4.550  -9.195  0.00  0.00     0.030 A 
HETATM   13  N           1     -19.593  -6.055  -7.419  0.00  0.00    -0.365 N 
HETATM   14  H           1     -18.653  -6.253  -7.843  0.00  0.00     0.165 HD
HETATM   15  C           1     -20.033  -6.553  -6.221  0.00  0.00     0.096 A 
ENDBRANCH   5   6
ENDBRANCH   1   5
BRANCH   1  16
HETATM   16  N           1     -22.025  -8.647  -4.014  0.00  0.00    -0.344 N 
HETATM   17  H           1     -23.028  -8.769  -3.947  0.00  0.00     0.163 HD
HETATM   18  C           1     -21.216  -9.730  -4.225  0.00  0.00     0.249 C 
HETATM   19  O           1     -20.773 -10.346  -3.285  0.00  0.00    -0.271 OA
BRANCH  18  20
HETATM   20  C           1     -20.878 -10.157  -5.633  0.00  0.00     0.283 C 
BRANCH  20  21
HETATM   21  N           1     -19.390 -10.119  -5.822  0.00  0.00    -0.066 N 
HETATM   22  H           1     -19.168  -9.694  -6.750  0.00  0.00     0.275 HD
HETATM   23  H           1     -18.959  -9.544  -5.064  0.00  0.00     0.275 HD
HETATM   24  H           1     -19.009 -11.091  -5.783  0.00  0.00     0.275 HD
ENDBRANCH  20  21
BRANCH  20  25
HETATM   25  C           1     -21.383 -11.573  -5.871  0.00  0.00     0.113 C 
BRANCH  25  26
HETATM   26  S           1     -20.195 -12.477  -6.903  0.00  0.00    -0.180 SA
HETATM   27  H           1     -21.106 -13.003  -7.739  0.00  0.00     0.101 HD
ENDBRANCH  25  26
ENDBRANCH  20  25
ENDBRANCH  18  20
ENDBRANCH   1  16
TORSDOF 8
ENDMDL
MODEL 6
REMARK VINA RESULT:      -6.2      3.230      7.230
REMARK  8 active torsions:
REMARK  status: ('A' for Active; 'I' for Inactive)
REMARK    1  A    between atoms: C_8  and  C_14 
REMARK    2  A    between atoms: C_8  and  C_12 
REMARK    3  A    between atoms: C_8  and  N_16 
REMARK    4  A    between atoms: C_12  and  C_26 
REMARK       I    between atoms: C_13  and  N_16 
REMARK    5  A    between atoms: C_13  and  C_22 
REMARK    6  A    between atoms: N_19  and  C_22 
REMARK    7  A    between atoms: S_20  and  C_21 
REMARK    8  A    between atoms: C_21  and  C_22 
ROOT
HETATM    1  C           1     -19.840  -7.918  -5.231  0.00  0.00     0.190 C 
ENDROOT
BRANCH   1   2
HETATM    2  C           1     -18.770  -8.982  -5.209  0.00  0.00     0.197 C 
HETATM    3  O           1     -18.499  -9.618  -6.251  0.00  0.00    -0.646 OA
HETATM    4  O           1     -18.153  -9.227  -4.150  0.00  0.00    -0.646 OA
ENDBRANCH   1   2
BRANCH   1   5
HETATM    5  C           1     -21.212  -8.578  -5.239  0.00  0.00     0.077 C 
BRANCH   5   6
HETATM    6  C           1     -21.516  -9.119  -3.877  0.00  0.00    -0.028 A 
HETATM    7  C           1     -21.785  -8.351  -2.709  0.00  0.00    -0.002 A 
HETATM    8  C           1     -21.858  -6.972  -2.440  0.00  0.00     0.014 A 
HETATM    9  C           1     -22.013  -9.252  -1.669  0.00  0.00     0.042 A 
HETATM   10  C           1     -22.155  -6.542  -1.141  0.00  0.00     0.001 A 
HETATM   11  C           1     -22.378  -7.464  -0.121  0.00  0.00     0.002 A 
HETATM   12  C           1     -22.310  -8.840  -0.365  0.00  0.00     0.030 A 
HETATM   13  N           1     -21.883 -10.518  -2.194  0.00  0.00    -0.365 N 
HETATM   14  H           1     -21.997 -11.409  -1.649  0.00  0.00     0.165 HD
HETATM   15  C           1     -21.582 -10.449  -3.529  0.00  0.00     0.096 A 
ENDBRANCH   5   6
ENDBRANCH   1   5
BRANCH   1  16
HETATM   16  N           1     -19.688  -7.106  -6.422  0.00  0.00    -0.344 N 
HETATM   17  H           1     -19.239  -7.491  -7.243  0.00  0.00     0.163 HD
HETATM   18  C           1     -20.152  -5.818  -6.436  0.00  0.00     0.249 C 
HETATM   19  O           1     -19.430  -4.912  -6.093  0.00  0.00    -0.271 OA
BRANCH  18  20
HETATM   20  C           1     -21.566  -5.530  -6.880  0.00  0.00     0.283 C 
BRANCH  20  21
HETATM   21  N           1     -22.468  -5.499  -5.681  0.00  0.00    -0.066 N 
HETATM   22  H           1     -22.622  -4.508  -5.388  0.00  0.00     0.275 HD
HETATM   23  H           1     -23.384  -5.937  -5.925  0.00  0.00     0.275 HD
HETATM   24  H           1     -22.024  -6.029  -4.898  0.00  0.00     0.275 HD
ENDBRANCH  20  21
BRANCH  20  25
HETATM   25  C           1     -21.612  -4.182  -7.585  0.00  0.00     0.113 C 
BRANCH  25  26
HETATM   26  S           1     -23.013  -4.148  -8.739  0.00  0.00    -0.180 SA
HETATM   27  H           1     -23.862  -3.513  -7.911  0.00  0.00     0.101 HD
ENDBRANCH  25  26
ENDBRANCH  20  25
ENDBRANCH  18  20
ENDBRANCH   1  16
TORSDOF 8
ENDMDL
MODEL 7
REMARK VINA RESULT:      -6.2      2.890      4.225
REMARK  8 active torsions:
REMARK  status: ('A' for Active; 'I' for Inactive)
REMARK    1  A    between atoms: C_8  and  C_14 
REMARK    2  A    between atoms: C_8  and  C_12 
REMARK    3  A    between atoms: C_8  and  N_16 
REMARK    4  A    between atoms: C_12  and  C_26 
REMARK       I    between atoms: C_13  and  N_16 
REMARK    5  A    between atoms: C_13  and  C_22 
REMARK    6  A    between atoms: N_19  and  C_22 
REMARK    7  A    between atoms: S_20  and  C_21 
REMARK    8  A    between atoms: C_21  and  C_22 
ROOT
HETATM    1  C           1     -20.790  -9.019  -4.198  0.00  0.00     0.190 C 
ENDROOT
BRANCH   1   2
HETATM    2  C           1     -20.922 -10.260  -5.047  0.00  0.00     0.197 C 
HETATM    3  O           1     -20.197 -10.408  -6.055  0.00  0.00    -0.646 OA
HETATM    4  O           1     -21.755 -11.141  -4.742  0.00  0.00    -0.646 OA
ENDBRANCH   1   2
BRANCH   1   5
HETATM    5  C           1     -20.024  -7.954  -4.970  0.00  0.00     0.077 C 
BRANCH   5   6
HETATM    6  C           1     -20.974  -6.899  -5.444  0.00  0.00    -0.028 A 
HETATM    7  C           1     -20.703  -5.903  -6.424  0.00  0.00    -0.002 A 
HETATM    8  C           1     -19.581  -5.584  -7.211  0.00  0.00     0.014 A 
HETATM    9  C           1     -21.859  -5.134  -6.558  0.00  0.00     0.042 A 
HETATM   10  C           1     -19.654  -4.508  -8.103  0.00  0.00     0.001 A 
HETATM   11  C           1     -20.821  -3.756  -8.216  0.00  0.00     0.002 A 
HETATM   12  C           1     -21.948  -4.054  -7.444  0.00  0.00     0.030 A 
HETATM   13  N           1     -22.792  -5.650  -5.688  0.00  0.00    -0.365 N 
HETATM   14  H           1     -23.766  -5.278  -5.561  0.00  0.00     0.165 HD
HETATM   15  C           1     -22.267  -6.718  -5.008  0.00  0.00     0.096 A 
ENDBRANCH   5   6
ENDBRANCH   1   5
BRANCH   1  16
HETATM   16  N           1     -20.072  -9.342  -2.981  0.00  0.00    -0.344 N 
HETATM   17  H           1     -19.078  -9.530  -3.014  0.00  0.00     0.163 HD
HETATM   18  C           1     -20.738  -9.392  -1.786  0.00  0.00     0.249 C 
HETATM   19  O           1     -21.230 -10.431  -1.412  0.00  0.00    -0.271 OA
BRANCH  18  20
HETATM   20  C           1     -20.859  -8.151  -0.936  0.00  0.00     0.283 C 
BRANCH  20  21
HETATM   21  N           1     -21.855  -7.217  -1.557  0.00  0.00    -0.066 N 
HETATM   22  H           1     -21.349  -6.459  -2.069  0.00  0.00     0.275 HD
HETATM   23  H           1     -22.458  -7.746  -2.224  0.00  0.00     0.275 HD
HETATM   24  H           1     -22.449  -6.793  -0.808  0.00  0.00     0.275 HD
ENDBRANCH  20  21
BRANCH  20  25
HETATM   25  C           1     -21.326  -8.535   0.461  0.00  0.00     0.113 C 
BRANCH  25  26
HETATM   26  S           1     -23.077  -8.102   0.656  0.00  0.00    -0.180 SA
HETATM   27  H           1     -23.375  -9.097   1.510  0.00  0.00     0.101 HD
ENDBRANCH  25  26
ENDBRANCH  20  25
ENDBRANCH  18  20
ENDBRANCH   1  16
TORSDOF 8
ENDMDL
MODEL 8
REMARK VINA RESULT:      -6.2      4.552      7.411
REMARK  8 active torsions:
REMARK  status: ('A' for Active; 'I' for Inactive)
REMARK    1  A    between atoms: C_8  and  C_14 
REMARK    2  A    between atoms: C_8  and  C_12 
REMARK    3  A    between atoms: C_8  and  N_16 
REMARK    4  A    between atoms: C_12  and  C_26 
REMARK       I    between atoms: C_13  and  N_16 
REMARK    5  A    between atoms: C_13  and  C_22 
REMARK    6  A    between atoms: N_19  and  C_22 
REMARK    7  A    between atoms: S_20  and  C_21 
REMARK    8  A    between atoms: C_21  and  C_22 
ROOT
HETATM    1  C           1     -21.389  -8.910  -2.056  0.00  0.00     0.190 C 
ENDROOT
BRANCH   1   2
HETATM    2  C           1     -21.908  -8.750  -0.648  0.00  0.00     0.197 C 
HETATM    3  O           1     -21.229  -8.134   0.202  0.00  0.00    -0.646 OA
HETATM    4  O           1     -23.017  -9.232  -0.332  0.00  0.00    -0.646 OA
ENDBRANCH   1   2
BRANCH   1   5
HETATM    5  C           1     -20.265  -9.937  -2.070  0.00  0.00     0.077 C 
BRANCH   5   6
HETATM    6  C           1     -19.683 -10.023  -3.447  0.00  0.00    -0.028 A 
HETATM    7  C           1     -18.308  -9.891  -3.787  0.00  0.00    -0.002 A 
HETATM    8  C           1     -17.134  -9.663  -3.045  0.00  0.00     0.014 A 
HETATM    9  C           1     -18.211 -10.038  -5.170  0.00  0.00     0.042 A 
HETATM   10  C           1     -15.906  -9.587  -3.713  0.00  0.00     0.001 A 
HETATM   11  C           1     -15.838  -9.737  -5.096  0.00  0.00     0.002 A 
HETATM   12  C           1     -16.992  -9.965  -5.854  0.00  0.00     0.030 A 
HETATM   13  N           1     -19.485 -10.249  -5.646  0.00  0.00    -0.365 N 
HETATM   14  H           1     -19.734 -10.394  -6.656  0.00  0.00     0.165 HD
HETATM   15  C           1     -20.385 -10.241  -4.611  0.00  0.00     0.096 A 
ENDBRANCH   5   6
ENDBRANCH   1   5
BRANCH   1  16
HETATM   16  N           1     -20.884  -7.636  -2.531  0.00  0.00    -0.344 N 
HETATM   17  H           1     -19.928  -7.367  -2.338  0.00  0.00     0.163 HD
HETATM   18  C           1     -21.700  -6.798  -3.241  0.00  0.00     0.249 C 
HETATM   19  O           1     -22.369  -5.974  -2.664  0.00  0.00    -0.271 OA
BRANCH  18  20
HETATM   20  C           1     -21.765  -6.903  -4.746  0.00  0.00     0.283 C 
BRANCH  20  21
HETATM   21  N           1     -22.764  -5.915  -5.272  0.00  0.00    -0.066 N 
HETATM   22  H           1     -22.467  -5.593  -6.221  0.00  0.00     0.275 HD
HETATM   23  H           1     -23.702  -6.370  -5.336  0.00  0.00     0.275 HD
HETATM   24  H           1     -22.816  -5.096  -4.626  0.00  0.00     0.275 HD
ENDBRANCH  20  21
BRANCH  20  25
HETATM   25  C           1     -20.394  -6.603  -5.336  0.00  0.00     0.113 C 
BRANCH  25  26
HETATM   26  S           1     -20.318  -4.860  -5.835  0.00  0.00    -0.180 SA
HETATM   27  H           1     -21.612  -4.756  -6.183  0.00  0.00     0.101 HD
ENDBRANCH  25  26
ENDBRANCH  20  25
ENDBRANCH  18  20
ENDBRANCH   1  16
TORSDOF 8
ENDMDL
MODEL 9
REMARK VINA RESULT:      -6.2      5.509      8.815
REMARK  8 active torsions:
REMARK  status: ('A' for Active; 'I' for Inactive)
REMARK    1  A    between atoms: C_8  and  C_14 
REMARK    2  A    between atoms: C_8  and  C_12 
REMARK    3  A    between atoms: C_8  and  N_16 
REMARK    4  A    between atoms: C_12  and  C_26 
REMARK       I    between atoms: C_13  and  N_16 
REMARK    5  A    between atoms: C_13  and  C_22 
REMARK    6  A    between atoms: N_19  and  C_22 
REMARK    7  A    between atoms: S_20  and  C_21 
REMARK    8  A    between atoms: C_21  and  C_22 
ROOT
HETATM    1  C           1     -21.199  -7.836  -2.939  0.00  0.00     0.190 C 
ENDROOT
BRANCH   1   2
HETATM    2  C           1     -21.648  -6.395  -2.974  0.00  0.00     0.197 C 
HETATM    3  O           1     -22.425  -5.961  -2.096  0.00  0.00    -0.646 OA
HETATM    4  O           1     -21.242  -5.636  -3.880  0.00  0.00    -0.646 OA
ENDBRANCH   1   2
BRANCH   1   5
HETATM    5  C           1     -20.473  -8.110  -1.629  0.00  0.00     0.077 C 
BRANCH   5   6
HETATM    6  C           1     -20.609  -9.558  -1.275  0.00  0.00    -0.028 A 
HETATM    7  C           1     -21.783 -10.195  -0.783  0.00  0.00    -0.002 A 
HETATM    8  C           1     -23.086  -9.753  -0.487  0.00  0.00     0.014 A 
HETATM    9  C           1     -21.469 -11.540  -0.588  0.00  0.00     0.042 A 
HETATM   10  C           1     -24.027 -10.671  -0.005  0.00  0.00     0.001 A 
HETATM   11  C           1     -23.685 -12.008   0.182  0.00  0.00     0.002 A 
HETATM   12  C           1     -22.397 -12.470  -0.106  0.00  0.00     0.030 A 
HETATM   13  N           1     -20.150 -11.704  -0.948  0.00  0.00    -0.365 N 
HETATM   14  H           1     -19.625 -12.613  -0.909  0.00  0.00     0.165 HD
HETATM   15  C           1     -19.621 -10.511  -1.366  0.00  0.00     0.096 A 
ENDBRANCH   5   6
ENDBRANCH   1   5
BRANCH   1  16
HETATM   16  N           1     -20.302  -8.088  -4.050  0.00  0.00    -0.344 N 
HETATM   17  H           1     -19.371  -7.692  -4.049  0.00  0.00     0.163 HD
HETATM   18  C           1     -20.715  -8.864  -5.099  0.00  0.00     0.249 C 
HETATM   19  O           1     -21.260  -8.354  -6.050  0.00  0.00    -0.271 OA
BRANCH  18  20
HETATM   20  C           1     -20.489 -10.356  -5.070  0.00  0.00     0.283 C 
BRANCH  20  21
HETATM   21  N           1     -20.962 -10.957  -6.360  0.00  0.00    -0.066 N 
HETATM   22  H           1     -21.987 -10.784  -6.469  0.00  0.00     0.275 HD
HETATM   23  H           1     -20.448 -10.519  -7.157  0.00  0.00     0.275 HD
HETATM   24  H           1     -20.781 -11.986  -6.352  0.00  0.00     0.275 HD
ENDBRANCH  20  21
BRANCH  20  25
HETATM   25  C           1     -19.004 -10.642  -4.892  0.00  0.00     0.113 C 
BRANCH  25  26
HETATM   26  S           1     -18.333 -11.347  -6.424  0.00  0.00    -0.180 SA
HETATM   27  H           1     -19.444 -11.167  -7.160  0.00  0.00     0.101 HD
ENDBRANCH  25  26
ENDBRANCH  20  25
ENDBRANCH  18  20
ENDBRANCH   1  16
TORSDOF 8
ENDMDL
