MODEL 1
REMARK VINA RESULT:      -7.8      0.000      0.000
REMARK  9 active torsions:
REMARK  status: ('A' for Active; 'I' for Inactive)
REMARK    1  A    between atoms: N_9  and  C_20 
REMARK    2  A    between atoms: O_14  and  P_15 
REMARK    3  A    between atoms: P_15  and  O_16 
REMARK    4  A    between atoms: O_16  and  C_17 
REMARK    5  A    between atoms: C_18  and  C_19 
REMARK    6  A    between atoms: C_19  and  C_20 
REMARK    7  A    between atoms: C_20  and  C_21 
REMARK       I    between atoms: C_21  and  N_22 
REMARK    8  A    between atoms: N_22  and  C_23 
REMARK    9  A    between atoms: C_23  and  C_25 
ROOT
HETATM    1  C           1     -20.548  -5.508  -7.881  0.00  0.00     0.081 C 
ENDROOT
BRANCH   1   2
HETATM    2  C           1     -21.158  -4.716  -8.996  0.00  0.00    -0.056 A 
HETATM    3  C           1     -22.477  -4.276  -8.898  0.00  0.00     0.010 A 
HETATM    4  C           1     -23.044  -3.538  -9.937  0.00  0.00     0.038 A 
HETATM    5  C           1     -22.292  -3.241 -11.074  0.00  0.00     0.081 A 
HETATM    6  C           1     -20.972  -3.681 -11.171  0.00  0.00     0.038 A 
HETATM    7  C           1     -20.405  -4.419 -10.131  0.00  0.00     0.010 A 
BRANCH   5   8
HETATM    8  O           1     -22.844  -2.524 -12.083  0.00  0.00    -0.247 OA
BRANCH   8   9
HETATM    9  P           1     -23.916  -3.262 -13.038  0.00  0.00     0.411 P 
HETATM   10  O           1     -23.673  -2.874 -14.446  0.00  0.00    -0.624 OA
HETATM   11  O           1     -25.285  -2.860 -12.644  0.00  0.00    -0.624 OA
BRANCH   9  12
HETATM   12  O           1     -23.762  -4.862 -12.888  0.00  0.00    -0.300 OA
HETATM   13  H           1     -23.412  -4.994 -12.024  0.00  0.00     0.223 HD
ENDBRANCH   9  12
ENDBRANCH   8   9
ENDBRANCH   5   8
ENDBRANCH   1   2
BRANCH   1  14
HETATM   14  C           1     -20.819  -4.809  -6.555  0.00  0.00     0.278 C 
BRANCH  14  15
HETATM   15  N           1     -19.516  -4.434  -5.912  0.00  0.00    -0.066 N 
HETATM   16  H           1     -18.871  -5.256  -5.931  0.00  0.00     0.275 HD
HETATM   17  H           1     -19.687  -4.147  -4.922  0.00  0.00     0.275 HD
HETATM   18  H           1     -19.084  -3.640  -6.436  0.00  0.00     0.275 HD
ENDBRANCH  14  15
BRANCH  14  19
HETATM   19  C           1     -21.581  -5.738  -5.642  0.00  0.00     0.249 C 
HETATM   20  O           1     -22.789  -5.735  -5.648  0.00  0.00    -0.271 OA
HETATM   21  N           1     -20.904  -6.585  -4.807  0.00  0.00    -0.349 N 
HETATM   22  H           1     -19.892  -6.589  -4.801  0.00  0.00     0.163 HD
BRANCH  21  23
HETATM   23  C           1     -21.635  -7.479  -3.931  0.00  0.00     0.235 C 
BRANCH  23  24
HETATM   24  C           1     -21.647  -6.916  -2.531  0.00  0.00     0.191 C 
HETATM   25  O           1     -22.372  -5.936  -2.258  0.00  0.00    -0.647 OA
HETATM   26  O           1     -20.929  -7.429  -1.645  0.00  0.00    -0.647 OA
ENDBRANCH  23  24
ENDBRANCH  21  23
ENDBRANCH  14  19
ENDBRANCH   1  14
TORSDOF 9
ENDMDL
MODEL 2
REMARK VINA RESULT:      -7.6      3.652      8.551
REMARK  9 active torsions:
REMARK  status: ('A' for Active; 'I' for Inactive)
REMARK    1  A    between atoms: N_9  and  C_20 
REMARK    2  A    between atoms: O_14  and  P_15 
REMARK    3  A    between atoms: P_15  and  O_16 
REMARK    4  A    between atoms: O_16  and  C_17 
REMARK    5  A    between atoms: C_18  and  C_19 
REMARK    6  A    between atoms: C_19  and  C_20 
REMARK    7  A    between atoms: C_20  and  C_21 
REMARK       I    between atoms: C_21  and  N_22 
REMARK    8  A    between atoms: N_22  and  C_23 
REMARK    9  A    between atoms: C_23  and  C_25 
ROOT
HETATM    1  C           1     -21.806  -3.469 -11.159  0.00  0.00     0.081 C 
ENDROOT
BRANCH   1   2
HETATM    2  C           1     -21.516  -3.907  -9.757  0.00  0.00    -0.056 A 
HETATM    3  C           1     -22.442  -3.659  -8.744  0.00  0.00     0.010 A 
HETATM    4  C           1     -22.171  -4.068  -7.438  0.00  0.00     0.038 A 
HETATM    5  C           1     -20.976  -4.725  -7.145  0.00  0.00     0.081 A 
HETATM    6  C           1     -20.051  -4.974  -8.159  0.00  0.00     0.038 A 
HETATM    7  C           1     -20.321  -4.565  -9.465  0.00  0.00     0.010 A 
BRANCH   5   8
HETATM    8  O           1     -20.714  -5.122  -5.876  0.00  0.00    -0.247 OA
BRANCH   8   9
HETATM    9  P           1     -21.435  -6.463  -5.338  0.00  0.00     0.411 P 
HETATM   10  O           1     -21.316  -7.531  -6.357  0.00  0.00    -0.624 OA
HETATM   11  O           1     -22.865  -6.184  -5.081  0.00  0.00    -0.624 OA
BRANCH   9  12
HETATM   12  O           1     -20.727  -6.945  -3.970  0.00  0.00    -0.300 OA
HETATM   13  H           1     -20.740  -6.189  -3.408  0.00  0.00     0.223 HD
ENDBRANCH   9  12
ENDBRANCH   8   9
ENDBRANCH   5   8
ENDBRANCH   1   2
BRANCH   1  14
HETATM   14  C           1     -23.252  -3.797 -11.505  0.00  0.00     0.278 C 
BRANCH  14  15
HETATM   15  N           1     -23.501  -5.259 -11.280  0.00  0.00    -0.066 N 
HETATM   16  H           1     -22.635  -5.705 -10.901  0.00  0.00     0.275 HD
HETATM   17  H           1     -23.758  -5.712 -12.186  0.00  0.00     0.275 HD
HETATM   18  H           1     -24.282  -5.379 -10.597  0.00  0.00     0.275 HD
ENDBRANCH  14  15
BRANCH  14  19
HETATM   19  C           1     -23.513  -3.460 -12.953  0.00  0.00     0.249 C 
HETATM   20  O           1     -24.437  -3.975 -13.537  0.00  0.00    -0.271 OA
HETATM   21  N           1     -22.703  -2.570 -13.605  0.00  0.00    -0.349 N 
HETATM   22  H           1     -21.929  -2.137 -13.117  0.00  0.00     0.163 HD
BRANCH  21  23
HETATM   23  C           1     -22.953  -2.245 -14.995  0.00  0.00     0.235 C 
BRANCH  23  24
HETATM   24  C           1     -23.782  -0.987 -15.078  0.00  0.00     0.191 C 
HETATM   25  O           1     -24.952  -0.980 -14.639  0.00  0.00    -0.647 OA
HETATM   26  O           1     -23.300   0.048 -15.588  0.00  0.00    -0.647 OA
ENDBRANCH  23  24
ENDBRANCH  21  23
ENDBRANCH  14  19
ENDBRANCH   1  14
TORSDOF 9
ENDMDL
MODEL 3
REMARK VINA RESULT:      -7.5      1.610      1.947
REMARK  9 active torsions:
REMARK  status: ('A' for Active; 'I' for Inactive)
REMARK    1  A    between atoms: N_9  and  C_20 
REMARK    2  A    between atoms: O_14  and  P_15 
REMARK    3  A    between atoms: P_15  and  O_16 
REMARK    4  A    between atoms: O_16  and  C_17 
REMARK    5  A    between atoms: C_18  and  C_19 
REMARK    6  A    between atoms: C_19  and  C_20 
REMARK    7  A    between atoms: C_20  and  C_21 
REMARK       I    between atoms: C_21  and  N_22 
REMARK    8  A    between atoms: N_22  and  C_23 
REMARK    9  A    between atoms: C_23  and  C_25 
ROOT
HETATM    1  C           1     -20.590  -5.569  -7.673  0.00  0.00     0.081 C 
ENDROOT
BRANCH   1   2
HETATM    2  C           1     -21.192  -4.767  -8.784  0.00  0.00    -0.056 A 
HETATM    3  C           1     -22.523  -4.357  -8.706  0.00  0.00     0.010 A 
HETATM    4  C           1     -23.083  -3.609  -9.742  0.00  0.00     0.038 A 
HETATM    5  C           1     -22.314  -3.272 -10.855  0.00  0.00     0.081 A 
HETATM    6  C           1     -20.982  -3.681 -10.933  0.00  0.00     0.038 A 
HETATM    7  C           1     -20.422  -4.429  -9.897  0.00  0.00     0.010 A 
BRANCH   5   8
HETATM    8  O           1     -22.859  -2.545 -11.861  0.00  0.00    -0.247 OA
BRANCH   8   9
HETATM    9  P           1     -23.886  -3.288 -12.862  0.00  0.00     0.411 P 
HETATM   10  O           1     -23.638  -2.834 -14.249  0.00  0.00    -0.624 OA
HETATM   11  O           1     -25.275  -2.958 -12.475  0.00  0.00    -0.624 OA
BRANCH   9  12
HETATM   12  O           1     -23.667  -4.885 -12.772  0.00  0.00    -0.300 OA
HETATM   13  H           1     -24.371  -5.257 -13.274  0.00  0.00     0.223 HD
ENDBRANCH   9  12
ENDBRANCH   8   9
ENDBRANCH   5   8
ENDBRANCH   1   2
BRANCH   1  14
HETATM   14  C           1     -21.147  -5.088  -6.340  0.00  0.00     0.278 C 
BRANCH  14  15
HETATM   15  N           1     -20.050  -4.445  -5.543  0.00  0.00    -0.066 N 
HETATM   16  H           1     -20.241  -3.422  -5.452  0.00  0.00     0.275 HD
HETATM   17  H           1     -19.137  -4.587  -6.031  0.00  0.00     0.275 HD
HETATM   18  H           1     -20.009  -4.878  -4.593  0.00  0.00     0.275 HD
ENDBRANCH  14  15
BRANCH  14  19
HETATM   19  C           1     -21.703  -6.263  -5.573  0.00  0.00     0.249 C 
HETATM   20  O           1     -22.784  -6.180  -5.039  0.00  0.00    -0.271 OA
HETATM   21  N           1     -20.983  -7.423  -5.481  0.00  0.00    -0.349 N 
HETATM   22  H           1     -20.077  -7.494  -5.928  0.00  0.00     0.163 HD
BRANCH  21  23
HETATM   23  C           1     -21.517  -8.553  -4.745  0.00  0.00     0.235 C 
BRANCH  23  24
HETATM   24  C           1     -20.763  -9.803  -5.123  0.00  0.00     0.191 C 
HETATM   25  O           1     -19.833 -10.215  -4.396  0.00  0.00    -0.647 OA
HETATM   26  O           1     -21.065 -10.427  -6.163  0.00  0.00    -0.647 OA
ENDBRANCH  23  24
ENDBRANCH  21  23
ENDBRANCH  14  19
ENDBRANCH   1  14
TORSDOF 9
ENDMDL
MODEL 4
REMARK VINA RESULT:      -7.4     13.068     15.027
REMARK  9 active torsions:
REMARK  status: ('A' for Active; 'I' for Inactive)
REMARK    1  A    between atoms: N_9  and  C_20 
REMARK    2  A    between atoms: O_14  and  P_15 
REMARK    3  A    between atoms: P_15  and  O_16 
REMARK    4  A    between atoms: O_16  and  C_17 
REMARK    5  A    between atoms: C_18  and  C_19 
REMARK    6  A    between atoms: C_19  and  C_20 
REMARK    7  A    between atoms: C_20  and  C_21 
REMARK       I    between atoms: C_21  and  N_22 
REMARK    8  A    between atoms: N_22  and  C_23 
REMARK    9  A    between atoms: C_23  and  C_25 
ROOT
HETATM    1  C           1     -34.734  -0.709 -12.250  0.00  0.00     0.081 C 
ENDROOT
BRANCH   1   2
HETATM    2  C           1     -34.343  -2.123 -11.950  0.00  0.00    -0.056 A 
HETATM    3  C           1     -34.348  -3.078 -12.966  0.00  0.00     0.010 A 
HETATM    4  C           1     -33.983  -4.395 -12.685  0.00  0.00     0.038 A 
HETATM    5  C           1     -33.613  -4.756 -11.390  0.00  0.00     0.081 A 
HETATM    6  C           1     -33.608  -3.800 -10.374  0.00  0.00     0.038 A 
HETATM    7  C           1     -33.973  -2.483 -10.654  0.00  0.00     0.010 A 
BRANCH   5   8
HETATM    8  O           1     -33.259  -6.036 -11.118  0.00  0.00    -0.247 OA
BRANCH   8   9
HETATM    9  P           1     -34.405  -7.043 -10.590  0.00  0.00     0.411 P 
HETATM   10  O           1     -35.175  -6.391  -9.507  0.00  0.00    -0.624 OA
HETATM   11  O           1     -33.774  -8.278 -10.073  0.00  0.00    -0.624 OA
BRANCH   9  12
HETATM   12  O           1     -35.399  -7.416 -11.806  0.00  0.00    -0.300 OA
HETATM   13  H           1     -34.843  -7.780 -12.473  0.00  0.00     0.223 HD
ENDBRANCH   9  12
ENDBRANCH   8   9
ENDBRANCH   5   8
ENDBRANCH   1   2
BRANCH   1  14
HETATM   14  C           1     -36.200  -0.663 -12.661  0.00  0.00     0.278 C 
BRANCH  14  15
HETATM   15  N           1     -36.394   0.396 -13.704  0.00  0.00    -0.066 N 
HETATM   16  H           1     -35.776   0.195 -14.523  0.00  0.00     0.275 HD
HETATM   17  H           1     -36.147   1.329 -13.302  0.00  0.00     0.275 HD
HETATM   18  H           1     -37.391   0.403 -14.014  0.00  0.00     0.275 HD
ENDBRANCH  14  15
BRANCH  14  19
HETATM   19  C           1     -37.052  -0.345 -11.456  0.00  0.00     0.249 C 
HETATM   20  O           1     -38.075  -0.956 -11.260  0.00  0.00    -0.271 OA
HETATM   21  N           1     -36.665   0.638 -10.585  0.00  0.00    -0.349 N 
HETATM   22  H           1     -35.807   1.150 -10.748  0.00  0.00     0.163 HD
BRANCH  21  23
HETATM   23  C           1     -37.482   0.944  -9.427  0.00  0.00     0.235 C 
BRANCH  23  24
HETATM   24  C           1     -36.623   0.935  -8.187  0.00  0.00     0.191 C 
HETATM   25  O           1     -35.614   0.200  -8.131  0.00  0.00    -0.647 OA
HETATM   26  O           1     -36.921   1.662  -7.215  0.00  0.00    -0.647 OA
ENDBRANCH  23  24
ENDBRANCH  21  23
ENDBRANCH  14  19
ENDBRANCH   1  14
TORSDOF 9
ENDMDL
MODEL 5
REMARK VINA RESULT:      -7.2      1.590      2.402
REMARK  9 active torsions:
REMARK  status: ('A' for Active; 'I' for Inactive)
REMARK    1  A    between atoms: N_9  and  C_20 
REMARK    2  A    between atoms: O_14  and  P_15 
REMARK    3  A    between atoms: P_15  and  O_16 
REMARK    4  A    between atoms: O_16  and  C_17 
REMARK    5  A    between atoms: C_18  and  C_19 
REMARK    6  A    between atoms: C_19  and  C_20 
REMARK    7  A    between atoms: C_20  and  C_21 
REMARK       I    between atoms: C_21  and  N_22 
REMARK    8  A    between atoms: N_22  and  C_23 
REMARK    9  A    between atoms: C_23  and  C_25 
ROOT
HETATM    1  C           1     -20.017  -4.867  -5.887  0.00  0.00     0.081 C 
ENDROOT
BRANCH   1   2
HETATM    2  C           1     -20.633  -4.477  -7.195  0.00  0.00    -0.056 A 
HETATM    3  C           1     -19.929  -4.670  -8.383  0.00  0.00     0.010 A 
HETATM    4  C           1     -20.504  -4.307  -9.601  0.00  0.00     0.038 A 
HETATM    5  C           1     -21.783  -3.752  -9.630  0.00  0.00     0.081 A 
HETATM    6  C           1     -22.488  -3.560  -8.442  0.00  0.00     0.038 A 
HETATM    7  C           1     -21.912  -3.922  -7.224  0.00  0.00     0.010 A 
BRANCH   5   8
HETATM    8  O           1     -22.342  -3.400 -10.814  0.00  0.00    -0.247 OA
BRANCH   8   9
HETATM    9  P           1     -23.760  -4.064 -11.210  0.00  0.00     0.411 P 
HETATM   10  O           1     -23.847  -5.423 -10.631  0.00  0.00    -0.624 OA
HETATM   11  O           1     -23.870  -4.146 -12.683  0.00  0.00    -0.624 OA
BRANCH   9  12
HETATM   12  O           1     -24.962  -3.156 -10.630  0.00  0.00    -0.300 OA
HETATM   13  H           1     -24.662  -2.268 -10.718  0.00  0.00     0.223 HD
ENDBRANCH   9  12
ENDBRANCH   8   9
ENDBRANCH   5   8
ENDBRANCH   1   2
BRANCH   1  14
HETATM   14  C           1     -20.449  -6.281  -5.523  0.00  0.00     0.278 C 
BRANCH  14  15
HETATM   15  N           1     -21.000  -6.964  -6.740  0.00  0.00    -0.066 N 
HETATM   16  H           1     -20.714  -6.435  -7.595  0.00  0.00     0.275 HD
HETATM   17  H           1     -22.043  -6.992  -6.681  0.00  0.00     0.275 HD
HETATM   18  H           1     -20.627  -7.938  -6.792  0.00  0.00     0.275 HD
ENDBRANCH  14  15
BRANCH  14  19
HETATM   19  C           1     -21.513  -6.224  -4.454  0.00  0.00     0.249 C 
HETATM   20  O           1     -22.681  -6.205  -4.764  0.00  0.00    -0.271 OA
HETATM   21  N           1     -21.155  -6.192  -3.134  0.00  0.00    -0.349 N 
HETATM   22  H           1     -20.177  -6.208  -2.873  0.00  0.00     0.163 HD
BRANCH  21  23
HETATM   23  C           1     -22.176  -6.138  -2.106  0.00  0.00     0.235 C 
BRANCH  23  24
HETATM   24  C           1     -22.071  -7.358  -1.225  0.00  0.00     0.191 C 
HETATM   25  O           1     -22.210  -7.248   0.013  0.00  0.00    -0.647 OA
HETATM   26  O           1     -21.844  -8.478  -1.731  0.00  0.00    -0.647 OA
ENDBRANCH  23  24
ENDBRANCH  21  23
ENDBRANCH  14  19
ENDBRANCH   1  14
TORSDOF 9
ENDMDL
MODEL 6
REMARK VINA RESULT:      -7.2      3.656      8.475
REMARK  9 active torsions:
REMARK  status: ('A' for Active; 'I' for Inactive)
REMARK    1  A    between atoms: N_9  and  C_20 
REMARK    2  A    between atoms: O_14  and  P_15 
REMARK    3  A    between atoms: P_15  and  O_16 
REMARK    4  A    between atoms: O_16  and  C_17 
REMARK    5  A    between atoms: C_18  and  C_19 
REMARK    6  A    between atoms: C_19  and  C_20 
REMARK    7  A    between atoms: C_20  and  C_21 
REMARK       I    between atoms: C_21  and  N_22 
REMARK    8  A    between atoms: N_22  and  C_23 
REMARK    9  A    between atoms: C_23  and  C_25 
ROOT
HETATM    1  C           1     -21.786  -3.643  -9.371  0.00  0.00     0.081 C 
ENDROOT
BRANCH   1   2
HETATM    2  C           1     -21.360  -4.473  -8.201  0.00  0.00    -0.056 A 
HETATM    3  C           1     -22.237  -4.683  -7.138  0.00  0.00     0.010 A 
HETATM    4  C           1     -21.839  -5.457  -6.048  0.00  0.00     0.038 A 
HETATM    5  C           1     -20.564  -6.023  -6.022  0.00  0.00     0.081 A 
HETATM    6  C           1     -19.687  -5.814  -7.086  0.00  0.00     0.038 A 
HETATM    7  C           1     -20.085  -5.039  -8.176  0.00  0.00     0.010 A 
BRANCH   5   8
HETATM    8  O           1     -20.178  -6.775  -4.963  0.00  0.00    -0.247 OA
BRANCH   8   9
HETATM    9  P           1     -20.185  -8.381  -5.132  0.00  0.00     0.411 P 
HETATM   10  O           1     -20.386  -9.016  -3.809  0.00  0.00    -0.624 OA
HETATM   11  O           1     -18.892  -8.822  -5.700  0.00  0.00    -0.624 OA
BRANCH   9  12
HETATM   12  O           1     -21.384  -8.814  -6.123  0.00  0.00    -0.300 OA
HETATM   13  H           1     -21.423  -8.133  -6.771  0.00  0.00     0.223 HD
ENDBRANCH   9  12
ENDBRANCH   8   9
ENDBRANCH   5   8
ENDBRANCH   1   2
BRANCH   1  14
HETATM   14  C           1     -21.457  -4.379 -10.663  0.00  0.00     0.278 C 
BRANCH  14  15
HETATM   15  N           1     -20.244  -3.762 -11.295  0.00  0.00    -0.066 N 
HETATM   16  H           1     -19.964  -4.322 -12.131  0.00  0.00     0.275 HD
HETATM   17  H           1     -19.460  -3.751 -10.604  0.00  0.00     0.275 HD
HETATM   18  H           1     -20.464  -2.783 -11.589  0.00  0.00     0.275 HD
ENDBRANCH  14  15
BRANCH  14  19
HETATM   19  C           1     -22.625  -4.278 -11.613  0.00  0.00     0.249 C 
HETATM   20  O           1     -23.642  -4.890 -11.388  0.00  0.00    -0.271 OA
HETATM   21  N           1     -22.534  -3.491 -12.730  0.00  0.00    -0.349 N 
HETATM   22  H           1     -21.682  -2.978 -12.919  0.00  0.00     0.163 HD
BRANCH  21  23
HETATM   23  C           1     -23.656  -3.393 -13.642  0.00  0.00     0.235 C 
BRANCH  23  24
HETATM   24  C           1     -23.358  -2.358 -14.699  0.00  0.00     0.191 C 
HETATM   25  O           1     -24.058  -1.326 -14.777  0.00  0.00    -0.647 OA
HETATM   26  O           1     -22.413  -2.534 -15.498  0.00  0.00    -0.647 OA
ENDBRANCH  23  24
ENDBRANCH  21  23
ENDBRANCH  14  19
ENDBRANCH   1  14
TORSDOF 9
ENDMDL
MODEL 7
REMARK VINA RESULT:      -6.9      2.519      3.168
REMARK  9 active torsions:
REMARK  status: ('A' for Active; 'I' for Inactive)
REMARK    1  A    between atoms: N_9  and  C_20 
REMARK    2  A    between atoms: O_14  and  P_15 
REMARK    3  A    between atoms: P_15  and  O_16 
REMARK    4  A    between atoms: O_16  and  C_17 
REMARK    5  A    between atoms: C_18  and  C_19 
REMARK    6  A    between atoms: C_19  and  C_20 
REMARK    7  A    between atoms: C_20  and  C_21 
REMARK       I    between atoms: C_21  and  N_22 
REMARK    8  A    between atoms: N_22  and  C_23 
REMARK    9  A    between atoms: C_23  and  C_25 
ROOT
HETATM    1  C           1     -20.251  -5.275  -5.775  0.00  0.00     0.081 C 
ENDROOT
BRANCH   1   2
HETATM    2  C           1     -20.807  -4.769  -7.070  0.00  0.00    -0.056 A 
HETATM    3  C           1     -22.070  -4.179  -7.103  0.00  0.00     0.010 A 
HETATM    4  C           1     -22.587  -3.707  -8.310  0.00  0.00     0.038 A 
HETATM    5  C           1     -21.841  -3.826  -9.483  0.00  0.00     0.081 A 
HETATM    6  C           1     -20.576  -4.415  -9.449  0.00  0.00     0.038 A 
HETATM    7  C           1     -20.060  -4.886  -8.242  0.00  0.00     0.010 A 
BRANCH   5   8
HETATM    8  O           1     -22.343  -3.367 -10.655  0.00  0.00    -0.247 OA
BRANCH   8   9
HETATM    9  P           1     -23.716  -4.021 -11.198  0.00  0.00     0.411 P 
HETATM   10  O           1     -23.819  -5.420 -10.722  0.00  0.00    -0.624 OA
HETATM   11  O           1     -23.720  -4.001 -12.677  0.00  0.00    -0.624 OA
BRANCH   9  12
HETATM   12  O           1     -24.974  -3.174 -10.645  0.00  0.00    -0.300 OA
HETATM   13  H           1     -25.610  -3.819 -10.389  0.00  0.00     0.223 HD
ENDBRANCH   9  12
ENDBRANCH   8   9
ENDBRANCH   5   8
ENDBRANCH   1   2
BRANCH   1  14
HETATM   14  C           1     -21.273  -6.182  -5.103  0.00  0.00     0.278 C 
BRANCH  14  15
HETATM   15  N           1     -21.359  -5.843  -3.644  0.00  0.00    -0.066 N 
HETATM   16  H           1     -20.867  -4.939  -3.468  0.00  0.00     0.275 HD
HETATM   17  H           1     -20.908  -6.601  -3.084  0.00  0.00     0.275 HD
HETATM   18  H           1     -22.362  -5.754  -3.366  0.00  0.00     0.275 HD
ENDBRANCH  14  15
BRANCH  14  19
HETATM   19  C           1     -20.849  -7.622  -5.260  0.00  0.00     0.249 C 
HETATM   20  O           1     -21.341  -8.306  -6.126  0.00  0.00    -0.271 OA
HETATM   21  N           1     -19.906  -8.153  -4.423  0.00  0.00    -0.349 N 
HETATM   22  H           1     -19.492  -7.581  -3.697  0.00  0.00     0.163 HD
BRANCH  21  23
HETATM   23  C           1     -19.497  -9.536  -4.574  0.00  0.00     0.235 C 
BRANCH  23  24
HETATM   24  C           1     -18.152  -9.593  -5.255  0.00  0.00     0.191 C 
HETATM   25  O           1     -18.068  -9.412  -6.489  0.00  0.00    -0.647 OA
HETATM   26  O           1     -17.121  -9.825  -4.586  0.00  0.00    -0.647 OA
ENDBRANCH  23  24
ENDBRANCH  21  23
ENDBRANCH  14  19
ENDBRANCH   1  14
TORSDOF 9
ENDMDL
MODEL 8
REMARK VINA RESULT:      -6.8      2.222      3.077
REMARK  9 active torsions:
REMARK  status: ('A' for Active; 'I' for Inactive)
REMARK    1  A    between atoms: N_9  and  C_20 
REMARK    2  A    between atoms: O_14  and  P_15 
REMARK    3  A    between atoms: P_15  and  O_16 
REMARK    4  A    between atoms: O_16  and  C_17 
REMARK    5  A    between atoms: C_18  and  C_19 
REMARK    6  A    between atoms: C_19  and  C_20 
REMARK    7  A    between atoms: C_20  and  C_21 
REMARK       I    between atoms: C_21  and  N_22 
REMARK    8  A    between atoms: N_22  and  C_23 
REMARK    9  A    between atoms: C_23  and  C_25 
ROOT
HETATM    1  C           1     -20.445  -5.846  -5.875  0.00  0.00     0.081 C 
ENDROOT
BRANCH   1   2
HETATM    2  C           1     -20.982  -5.159  -7.092  0.00  0.00    -0.056 A 
HETATM    3  C           1     -20.196  -5.059  -8.239  0.00  0.00     0.010 A 
HETATM    4  C           1     -20.698  -4.420  -9.373  0.00  0.00     0.038 A 
HETATM    5  C           1     -21.984  -3.881  -9.359  0.00  0.00     0.081 A 
HETATM    6  C           1     -22.770  -3.982  -8.211  0.00  0.00     0.038 A 
HETATM    7  C           1     -22.269  -4.622  -7.078  0.00  0.00     0.010 A 
BRANCH   5   8
HETATM    8  O           1     -22.471  -3.260 -10.462  0.00  0.00    -0.247 OA
BRANCH   8   9
HETATM    9  P           1     -23.771  -3.896 -11.178  0.00  0.00     0.411 P 
HETATM   10  O           1     -23.801  -5.357 -10.938  0.00  0.00    -0.624 OA
HETATM   11  O           1     -23.708  -3.636 -12.633  0.00  0.00    -0.624 OA
BRANCH   9  12
HETATM   12  O           1     -25.106  -3.224 -10.568  0.00  0.00    -0.300 OA
HETATM   13  H           1     -24.946  -2.297 -10.593  0.00  0.00     0.223 HD
ENDBRANCH   9  12
ENDBRANCH   8   9
ENDBRANCH   5   8
ENDBRANCH   1   2
BRANCH   1  14
HETATM   14  C           1     -21.585  -6.531  -5.133  0.00  0.00     0.278 C 
BRANCH  14  15
HETATM   15  N           1     -21.690  -5.966  -3.747  0.00  0.00    -0.066 N 
HETATM   16  H           1     -20.796  -5.486  -3.499  0.00  0.00     0.275 HD
HETATM   17  H           1     -21.870  -6.740  -3.069  0.00  0.00     0.275 HD
HETATM   18  H           1     -22.477  -5.279  -3.709  0.00  0.00     0.275 HD
ENDBRANCH  14  15
BRANCH  14  19
HETATM   19  C           1     -21.316  -8.013  -5.053  0.00  0.00     0.249 C 
HETATM   20  O           1     -21.205  -8.663  -6.065  0.00  0.00    -0.271 OA
HETATM   21  N           1     -21.198  -8.623  -3.833  0.00  0.00    -0.349 N 
HETATM   22  H           1     -21.290  -8.079  -2.984  0.00  0.00     0.163 HD
BRANCH  21  23
HETATM   23  C           1     -20.938 -10.047  -3.755  0.00  0.00     0.235 C 
BRANCH  23  24
HETATM   24  C           1     -22.206 -10.771  -3.376  0.00  0.00     0.191 C 
HETATM   25  O           1     -22.719 -10.587  -2.251  0.00  0.00    -0.647 OA
HETATM   26  O           1     -22.744 -11.557  -4.187  0.00  0.00    -0.647 OA
ENDBRANCH  23  24
ENDBRANCH  21  23
ENDBRANCH  14  19
ENDBRANCH   1  14
TORSDOF 9
ENDMDL
MODEL 9
REMARK VINA RESULT:      -6.7      3.656      8.997
REMARK  9 active torsions:
REMARK  status: ('A' for Active; 'I' for Inactive)
REMARK    1  A    between atoms: N_9  and  C_20 
REMARK    2  A    between atoms: O_14  and  P_15 
REMARK    3  A    between atoms: P_15  and  O_16 
REMARK    4  A    between atoms: O_16  and  C_17 
REMARK    5  A    between atoms: C_18  and  C_19 
REMARK    6  A    between atoms: C_19  and  C_20 
REMARK    7  A    between atoms: C_20  and  C_21 
REMARK       I    between atoms: C_21  and  N_22 
REMARK    8  A    between atoms: N_22  and  C_23 
REMARK    9  A    between atoms: C_23  and  C_25 
ROOT
HETATM    1  C           1     -21.594  -6.317  -6.710  0.00  0.00     0.081 C 
ENDROOT
BRANCH   1   2
HETATM    2  C           1     -21.351  -6.775  -5.306  0.00  0.00    -0.056 A 
HETATM    3  C           1     -21.176  -5.839  -4.287  0.00  0.00     0.010 A 
HETATM    4  C           1     -20.949  -6.267  -2.979  0.00  0.00     0.038 A 
HETATM    5  C           1     -20.898  -7.631  -2.689  0.00  0.00     0.081 A 
HETATM    6  C           1     -21.075  -8.567  -3.708  0.00  0.00     0.038 A 
HETATM    7  C           1     -21.301  -8.139  -5.016  0.00  0.00     0.010 A 
BRANCH   5   8
HETATM    8  O           1     -20.678  -8.046  -1.418  0.00  0.00    -0.247 OA
BRANCH   8   9
HETATM    9  P           1     -21.957  -8.230  -0.449  0.00  0.00     0.411 P 
HETATM   10  O           1     -21.500  -8.360   0.953  0.00  0.00    -0.624 OA
HETATM   11  O           1     -22.700  -9.448  -0.842  0.00  0.00    -0.624 OA
BRANCH   9  12
HETATM   12  O           1     -22.924  -6.944  -0.581  0.00  0.00    -0.300 OA
HETATM   13  H           1     -23.588  -7.069   0.075  0.00  0.00     0.223 HD
ENDBRANCH   9  12
ENDBRANCH   8   9
ENDBRANCH   5   8
ENDBRANCH   1   2
BRANCH   1  14
HETATM   14  C           1     -22.230  -4.933  -6.689  0.00  0.00     0.278 C 
BRANCH  14  15
HETATM   15  N           1     -23.680  -5.055  -6.325  0.00  0.00    -0.066 N 
HETATM   16  H           1     -24.082  -5.907  -6.778  0.00  0.00     0.275 HD
HETATM   17  H           1     -24.194  -4.208  -6.656  0.00  0.00     0.275 HD
HETATM   18  H           1     -23.774  -5.136  -5.287  0.00  0.00     0.275 HD
ENDBRANCH  14  15
BRANCH  14  19
HETATM   19  C           1     -22.106  -4.302  -8.054  0.00  0.00     0.249 C 
HETATM   20  O           1     -21.032  -3.906  -8.442  0.00  0.00    -0.271 OA
HETATM   21  N           1     -23.210  -4.176  -8.854  0.00  0.00    -0.349 N 
HETATM   22  H           1     -24.110  -4.508  -8.530  0.00  0.00     0.163 HD
BRANCH  21  23
HETATM   23  C           1     -23.091  -3.570 -10.165  0.00  0.00     0.235 C 
BRANCH  23  24
HETATM   24  C           1     -24.465  -3.247 -10.698  0.00  0.00     0.191 C 
HETATM   25  O           1     -24.618  -2.977 -11.909  0.00  0.00    -0.647 OA
HETATM   26  O           1     -25.450  -3.246  -9.929  0.00  0.00    -0.647 OA
ENDBRANCH  23  24
ENDBRANCH  21  23
ENDBRANCH  14  19
ENDBRANCH   1  14
TORSDOF 9
ENDMDL
