MODEL 1
REMARK VINA RESULT:      -6.6      0.000      0.000
REMARK  10 active torsions:
REMARK  status: ('A' for Active; 'I' for Inactive)
REMARK    1  A    between atoms: C_1  and  C_18 
REMARK    2  A    between atoms: C_1  and  C_19 
REMARK    3  A    between atoms: C_1  and  N_23 
REMARK    4  A    between atoms: N_2  and  C_15 
REMARK       I    between atoms: N_2  and  C_18 
REMARK    5  A    between atoms: C_4  and  C_10 
REMARK    6  A    between atoms: C_6  and  C_15 
REMARK    7  A    between atoms: C_8  and  C_19 
REMARK    8  A    between atoms: C_8  and  C_22 
REMARK    9  A    between atoms: C_9  and  C_10 
REMARK   10  A    between atoms: C_9  and  C_15 
REMARK       I    between atoms: N_21  and  C_22 
ROOT
HETATM    1  N           1     -35.228  -0.870 -12.276  0.00  0.00    -0.345 N 
HETATM    2  O           1     -34.672  -2.768 -13.314  0.00  0.00    -0.271 OA
HETATM    3  C           1     -34.485  -2.015 -12.388  0.00  0.00     0.249 C 
HETATM    4  H           1     -35.071  -0.239 -11.501  0.00  0.00     0.163 HD
ENDROOT
BRANCH   3   5
HETATM    5  C           1     -33.433  -2.336 -11.355  0.00  0.00     0.275 C 
BRANCH   5   6
HETATM    6  C           1     -33.061  -3.810 -11.448  0.00  0.00     0.052 C 
BRANCH   6   7
HETATM    7  C           1     -33.957  -4.619 -10.518  0.00  0.00     0.105 C 
BRANCH   7   8
HETATM    8  C           1     -34.485  -5.826 -11.253  0.00  0.00     0.215 C 
HETATM    9  O           1     -34.651  -6.868 -10.663  0.00  0.00    -0.274 OA
HETATM   10  N           1     -34.777  -5.741 -12.587  0.00  0.00    -0.370 N 
HETATM   11  H           1     -34.638  -4.869 -13.081  0.00  0.00     0.159 HD
HETATM   12  H           1     -35.132  -6.551 -13.080  0.00  0.00     0.159 HD
ENDBRANCH   7   8
ENDBRANCH   6   7
ENDBRANCH   5   6
BRANCH   5  13
HETATM   13  N           1     -33.972  -2.042  -9.986  0.00  0.00    -0.066 N 
HETATM   14  H           1     -34.786  -2.669  -9.790  0.00  0.00     0.275 HD
HETATM   15  H           1     -34.279  -1.044  -9.940  0.00  0.00     0.275 HD
HETATM   16  H           1     -33.226  -2.209  -9.274  0.00  0.00     0.275 HD
ENDBRANCH   5  13
ENDBRANCH   3   5
BRANCH   1  17
HETATM   17  C           1     -36.239  -0.563 -13.269  0.00  0.00     0.186 C 
BRANCH  17  18
HETATM   18  C           1     -35.686   0.437 -14.256  0.00  0.00     0.196 C 
HETATM   19  O           1     -36.089   0.435 -15.439  0.00  0.00    -0.646 OA
HETATM   20  O           1     -34.826   1.267 -13.889  0.00  0.00    -0.646 OA
ENDBRANCH  17  18
BRANCH  17  21
HETATM   21  C           1     -37.462   0.027 -12.580  0.00  0.00     0.046 C 
BRANCH  21  22
HETATM   22  C           1     -37.638  -0.623 -11.214  0.00  0.00     0.116 C 
BRANCH  22  23
HETATM   23  C           1     -37.281   0.369 -10.134  0.00  0.00     0.172 C 
HETATM   24  O           1     -38.066   1.303  -9.860  0.00  0.00    -0.648 OA
HETATM   25  O           1     -36.201   0.258  -9.514  0.00  0.00    -0.648 OA
ENDBRANCH  22  23
ENDBRANCH  21  22
ENDBRANCH  17  21
ENDBRANCH   1  17
TORSDOF 10
ENDMDL
MODEL 2
REMARK VINA RESULT:      -6.5     12.106     14.183
REMARK  10 active torsions:
REMARK  status: ('A' for Active; 'I' for Inactive)
REMARK    1  A    between atoms: C_1  and  C_18 
REMARK    2  A    between atoms: C_1  and  C_19 
REMARK    3  A    between atoms: C_1  and  N_23 
REMARK    4  A    between atoms: N_2  and  C_15 
REMARK       I    between atoms: N_2  and  C_18 
REMARK    5  A    between atoms: C_4  and  C_10 
REMARK    6  A    between atoms: C_6  and  C_15 
REMARK    7  A    between atoms: C_8  and  C_19 
REMARK    8  A    between atoms: C_8  and  C_22 
REMARK    9  A    between atoms: C_9  and  C_10 
REMARK   10  A    between atoms: C_9  and  C_15 
REMARK       I    between atoms: N_21  and  C_22 
ROOT
HETATM    1  N           1     -22.239  -4.895  -9.181  0.00  0.00    -0.345 N 
HETATM    2  O           1     -21.867  -3.588  -7.408  0.00  0.00    -0.271 OA
HETATM    3  C           1     -21.782  -4.685  -7.907  0.00  0.00     0.249 C 
HETATM    4  H           1     -22.167  -5.813  -9.599  0.00  0.00     0.163 HD
ENDROOT
BRANCH   3   5
HETATM    5  C           1     -21.170  -5.822  -7.128  0.00  0.00     0.275 C 
BRANCH   5   6
HETATM    6  C           1     -21.173  -5.482  -5.643  0.00  0.00     0.052 C 
BRANCH   6   7
HETATM    7  C           1     -22.200  -6.349  -4.926  0.00  0.00     0.105 C 
BRANCH   7   8
HETATM    8  C           1     -21.759  -6.576  -3.501  0.00  0.00     0.215 C 
HETATM    9  O           1     -20.871  -7.359  -3.260  0.00  0.00    -0.274 OA
HETATM   10  N           1     -22.366  -5.895  -2.480  0.00  0.00    -0.370 N 
HETATM   11  H           1     -23.111  -5.239  -2.681  0.00  0.00     0.159 HD
HETATM   12  H           1     -22.070  -6.047  -1.524  0.00  0.00     0.159 HD
ENDBRANCH   7   8
ENDBRANCH   6   7
ENDBRANCH   5   6
BRANCH   5  13
HETATM   13  N           1     -19.759  -6.041  -7.587  0.00  0.00    -0.066 N 
HETATM   14  H           1     -19.765  -6.492  -8.529  0.00  0.00     0.275 HD
HETATM   15  H           1     -19.263  -6.659  -6.905  0.00  0.00     0.275 HD
HETATM   16  H           1     -19.265  -5.122  -7.645  0.00  0.00     0.275 HD
ENDBRANCH   5  13
ENDBRANCH   3   5
BRANCH   1  17
HETATM   17  C           1     -22.826  -3.801  -9.930  0.00  0.00     0.186 C 
BRANCH  17  18
HETATM   18  C           1     -24.323  -3.809  -9.741  0.00  0.00     0.196 C 
HETATM   19  O           1     -24.962  -4.877  -9.856  0.00  0.00    -0.646 OA
HETATM   20  O           1     -24.924  -2.747  -9.469  0.00  0.00    -0.646 OA
ENDBRANCH  17  18
BRANCH  17  21
HETATM   21  C           1     -22.500  -3.967 -11.408  0.00  0.00     0.046 C 
BRANCH  21  22
HETATM   22  C           1     -22.701  -2.639 -12.126  0.00  0.00     0.116 C 
BRANCH  22  23
HETATM   23  C           1     -23.726  -2.808 -13.221  0.00  0.00     0.172 C 
HETATM   24  O           1     -23.370  -2.780 -14.419  0.00  0.00    -0.648 OA
HETATM   25  O           1     -24.930  -2.977 -12.930  0.00  0.00    -0.648 OA
ENDBRANCH  22  23
ENDBRANCH  21  22
ENDBRANCH  17  21
ENDBRANCH   1  17
TORSDOF 10
ENDMDL
MODEL 3
REMARK VINA RESULT:      -6.1      1.825      2.147
REMARK  10 active torsions:
REMARK  status: ('A' for Active; 'I' for Inactive)
REMARK    1  A    between atoms: C_1  and  C_18 
REMARK    2  A    between atoms: C_1  and  C_19 
REMARK    3  A    between atoms: C_1  and  N_23 
REMARK    4  A    between atoms: N_2  and  C_15 
REMARK       I    between atoms: N_2  and  C_18 
REMARK    5  A    between atoms: C_4  and  C_10 
REMARK    6  A    between atoms: C_6  and  C_15 
REMARK    7  A    between atoms: C_8  and  C_19 
REMARK    8  A    between atoms: C_8  and  C_22 
REMARK    9  A    between atoms: C_9  and  C_10 
REMARK   10  A    between atoms: C_9  and  C_15 
REMARK       I    between atoms: N_21  and  C_22 
ROOT
HETATM    1  N           1     -35.303  -1.887 -11.917  0.00  0.00    -0.345 N 
HETATM    2  O           1     -36.258  -3.555 -10.778  0.00  0.00    -0.271 OA
HETATM    3  C           1     -35.289  -3.143 -11.371  0.00  0.00     0.249 C 
HETATM    4  H           1     -34.491  -1.542 -12.413  0.00  0.00     0.163 HD
ENDROOT
BRANCH   3   5
HETATM    5  C           1     -34.063  -4.012 -11.510  0.00  0.00     0.275 C 
BRANCH   5   6
HETATM    6  C           1     -34.065  -5.072 -10.416  0.00  0.00     0.052 C 
BRANCH   6   7
HETATM    7  C           1     -33.668  -6.417 -11.011  0.00  0.00     0.105 C 
BRANCH   7   8
HETATM    8  C           1     -34.268  -7.530 -10.188  0.00  0.00     0.215 C 
HETATM    9  O           1     -35.282  -7.336  -9.560  0.00  0.00    -0.274 OA
HETATM   10  N           1     -33.664  -8.757 -10.152  0.00  0.00    -0.370 N 
HETATM   11  H           1     -32.814  -8.919 -10.678  0.00  0.00     0.159 HD
HETATM   12  H           1     -34.068  -9.503  -9.600  0.00  0.00     0.159 HD
ENDBRANCH   7   8
ENDBRANCH   6   7
ENDBRANCH   5   6
BRANCH   5  13
HETATM   13  N           1     -32.833  -3.164 -11.381  0.00  0.00    -0.066 N 
HETATM   14  H           1     -32.347  -3.113 -12.305  0.00  0.00     0.275 HD
HETATM   15  H           1     -32.192  -3.586 -10.671  0.00  0.00     0.275 HD
HETATM   16  H           1     -33.103  -2.202 -11.077  0.00  0.00     0.275 HD
ENDBRANCH   5  13
ENDBRANCH   3   5
BRANCH   1  17
HETATM   17  C           1     -36.481  -1.052 -11.783  0.00  0.00     0.186 C 
BRANCH  17  18
HETATM   18  C           1     -36.788  -0.400 -13.109  0.00  0.00     0.196 C 
HETATM   19  O           1     -35.999   0.443 -13.589  0.00  0.00    -0.646 OA
HETATM   20  O           1     -37.831  -0.704 -13.728  0.00  0.00    -0.646 OA
ENDBRANCH  17  18
BRANCH  17  21
HETATM   21  C           1     -36.222   0.024 -10.736  0.00  0.00     0.046 C 
BRANCH  21  22
HETATM   22  C           1     -37.544   0.465 -10.124  0.00  0.00     0.116 C 
BRANCH  22  23
HETATM   23  C           1     -37.278   1.282  -8.883  0.00  0.00     0.172 C 
HETATM   24  O           1     -38.073   2.186  -8.548  0.00  0.00    -0.648 OA
HETATM   25  O           1     -36.261   1.055  -8.191  0.00  0.00    -0.648 OA
ENDBRANCH  22  23
ENDBRANCH  21  22
ENDBRANCH  17  21
ENDBRANCH   1  17
TORSDOF 10
ENDMDL
MODEL 4
REMARK VINA RESULT:      -6.0     12.472     14.956
REMARK  10 active torsions:
REMARK  status: ('A' for Active; 'I' for Inactive)
REMARK    1  A    between atoms: C_1  and  C_18 
REMARK    2  A    between atoms: C_1  and  C_19 
REMARK    3  A    between atoms: C_1  and  N_23 
REMARK    4  A    between atoms: N_2  and  C_15 
REMARK       I    between atoms: N_2  and  C_18 
REMARK    5  A    between atoms: C_4  and  C_10 
REMARK    6  A    between atoms: C_6  and  C_15 
REMARK    7  A    between atoms: C_8  and  C_19 
REMARK    8  A    between atoms: C_8  and  C_22 
REMARK    9  A    between atoms: C_9  and  C_10 
REMARK   10  A    between atoms: C_9  and  C_15 
REMARK       I    between atoms: N_21  and  C_22 
ROOT
HETATM    1  N           1     -22.228  -5.230  -8.522  0.00  0.00    -0.345 N 
HETATM    2  O           1     -23.036  -3.147  -8.503  0.00  0.00    -0.271 OA
HETATM    3  C           1     -23.144  -4.283  -8.899  0.00  0.00     0.249 C 
HETATM    4  H           1     -22.319  -6.181  -8.854  0.00  0.00     0.163 HD
ENDROOT
BRANCH   3   5
HETATM    5  C           1     -24.288  -4.660  -9.808  0.00  0.00     0.275 C 
BRANCH   5   6
HETATM    6  C           1     -23.784  -4.769 -11.241  0.00  0.00     0.052 C 
BRANCH   6   7
HETATM    7  C           1     -23.870  -3.404 -11.914  0.00  0.00     0.105 C 
BRANCH   7   8
HETATM    8  C           1     -22.522  -3.038 -12.482  0.00  0.00     0.215 C 
HETATM    9  O           1     -21.652  -2.620 -11.754  0.00  0.00    -0.274 OA
HETATM   10  N           1     -22.283  -3.177 -13.823  0.00  0.00    -0.370 N 
HETATM   11  H           1     -23.012  -3.527 -14.433  0.00  0.00     0.159 HD
HETATM   12  H           1     -21.378  -2.931 -14.204  0.00  0.00     0.159 HD
ENDBRANCH   7   8
ENDBRANCH   6   7
ENDBRANCH   5   6
BRANCH   5  13
HETATM   13  N           1     -25.354  -3.608  -9.731  0.00  0.00    -0.066 N 
HETATM   14  H           1     -25.139  -2.950  -8.948  0.00  0.00     0.275 HD
HETATM   15  H           1     -26.280  -4.062  -9.562  0.00  0.00     0.275 HD
HETATM   16  H           1     -25.386  -3.078 -10.631  0.00  0.00     0.275 HD
ENDBRANCH   5  13
ENDBRANCH   3   5
BRANCH   1  17
HETATM   17  C           1     -21.129  -4.867  -7.648  0.00  0.00     0.186 C 
BRANCH  17  18
HETATM   18  C           1     -19.904  -4.572  -8.478  0.00  0.00     0.196 C 
HETATM   19  O           1     -18.859  -4.163  -7.927  0.00  0.00    -0.646 OA
HETATM   20  O           1     -19.934  -4.735  -9.717  0.00  0.00    -0.646 OA
ENDBRANCH  17  18
BRANCH  17  21
HETATM   21  C           1     -20.834  -6.022  -6.700  0.00  0.00     0.046 C 
BRANCH  21  22
HETATM   22  C           1     -20.868  -5.520  -5.263  0.00  0.00     0.116 C 
BRANCH  22  23
HETATM   23  C           1     -21.752  -6.420  -4.435  0.00  0.00     0.172 C 
HETATM   24  O           1     -22.096  -7.537  -4.878  0.00  0.00    -0.648 OA
HETATM   25  O           1     -22.140  -6.049  -3.306  0.00  0.00    -0.648 OA
ENDBRANCH  22  23
ENDBRANCH  21  22
ENDBRANCH  17  21
ENDBRANCH   1  17
TORSDOF 10
ENDMDL
MODEL 5
REMARK VINA RESULT:      -5.7     13.658     16.448
REMARK  10 active torsions:
REMARK  status: ('A' for Active; 'I' for Inactive)
REMARK    1  A    between atoms: C_1  and  C_18 
REMARK    2  A    between atoms: C_1  and  C_19 
REMARK    3  A    between atoms: C_1  and  N_23 
REMARK    4  A    between atoms: N_2  and  C_15 
REMARK       I    between atoms: N_2  and  C_18 
REMARK    5  A    between atoms: C_4  and  C_10 
REMARK    6  A    between atoms: C_6  and  C_15 
REMARK    7  A    between atoms: C_8  and  C_19 
REMARK    8  A    between atoms: C_8  and  C_22 
REMARK    9  A    between atoms: C_9  and  C_10 
REMARK   10  A    between atoms: C_9  and  C_15 
REMARK       I    between atoms: N_21  and  C_22 
ROOT
HETATM    1  N           1     -21.462  -5.715  -5.786  0.00  0.00    -0.345 N 
HETATM    2  O           1     -19.642  -4.428  -5.645  0.00  0.00    -0.271 OA
HETATM    3  C           1     -20.669  -4.689  -6.226  0.00  0.00     0.249 C 
HETATM    4  H           1     -22.322  -5.933  -6.273  0.00  0.00     0.163 HD
ENDROOT
BRANCH   3   5
HETATM    5  C           1     -21.077  -3.883  -7.434  0.00  0.00     0.275 C 
BRANCH   5   6
HETATM    6  C           1     -22.423  -4.379  -7.945  0.00  0.00     0.052 C 
BRANCH   6   7
HETATM    7  C           1     -22.442  -4.318  -9.467  0.00  0.00     0.105 C 
BRANCH   7   8
HETATM    8  C           1     -23.763  -3.756  -9.932  0.00  0.00     0.215 C 
HETATM    9  O           1     -24.057  -3.791 -11.103  0.00  0.00    -0.274 OA
HETATM   10  N           1     -24.629  -3.205  -9.026  0.00  0.00    -0.370 N 
HETATM   11  H           1     -24.383  -3.175  -8.044  0.00  0.00     0.159 HD
HETATM   12  H           1     -25.515  -2.828  -9.338  0.00  0.00     0.159 HD
ENDBRANCH   7   8
ENDBRANCH   6   7
ENDBRANCH   5   6
BRANCH   5  13
HETATM   13  N           1     -20.045  -4.041  -8.511  0.00  0.00    -0.066 N 
HETATM   14  H           1     -19.283  -4.671  -8.174  0.00  0.00     0.275 HD
HETATM   15  H           1     -19.646  -3.104  -8.750  0.00  0.00     0.275 HD
HETATM   16  H           1     -20.489  -4.456  -9.361  0.00  0.00     0.275 HD
ENDBRANCH   5  13
ENDBRANCH   3   5
BRANCH   1  17
HETATM   17  C           1     -21.070  -6.489  -4.624  0.00  0.00     0.186 C 
BRANCH  17  18
HETATM   18  C           1     -20.611  -7.858  -5.064  0.00  0.00     0.196 C 
HETATM   19  O           1     -19.690  -8.436  -4.448  0.00  0.00    -0.646 OA
HETATM   20  O           1     -21.153  -8.413  -6.044  0.00  0.00    -0.646 OA
ENDBRANCH  17  18
BRANCH  17  21
HETATM   21  C           1     -22.259  -6.629  -3.684  0.00  0.00     0.046 C 
BRANCH  21  22
HETATM   22  C           1     -21.869  -6.143  -2.295  0.00  0.00     0.116 C 
BRANCH  22  23
HETATM   23  C           1     -22.085  -7.252  -1.294  0.00  0.00     0.172 C 
HETATM   24  O           1     -21.504  -8.349  -1.442  0.00  0.00    -0.648 OA
HETATM   25  O           1     -22.845  -7.074  -0.317  0.00  0.00    -0.648 OA
ENDBRANCH  22  23
ENDBRANCH  21  22
ENDBRANCH  17  21
ENDBRANCH   1  17
TORSDOF 10
ENDMDL
MODEL 6
REMARK VINA RESULT:      -5.6     13.246     15.195
REMARK  10 active torsions:
REMARK  status: ('A' for Active; 'I' for Inactive)
REMARK    1  A    between atoms: C_1  and  C_18 
REMARK    2  A    between atoms: C_1  and  C_19 
REMARK    3  A    between atoms: C_1  and  N_23 
REMARK    4  A    between atoms: N_2  and  C_15 
REMARK       I    between atoms: N_2  and  C_18 
REMARK    5  A    between atoms: C_4  and  C_10 
REMARK    6  A    between atoms: C_6  and  C_15 
REMARK    7  A    between atoms: C_8  and  C_19 
REMARK    8  A    between atoms: C_8  and  C_22 
REMARK    9  A    between atoms: C_9  and  C_10 
REMARK   10  A    between atoms: C_9  and  C_15 
REMARK       I    between atoms: N_21  and  C_22 
ROOT
HETATM    1  N           1     -21.502  -4.875  -6.906  0.00  0.00    -0.345 N 
HETATM    2  O           1     -21.144  -7.079  -6.971  0.00  0.00    -0.271 OA
HETATM    3  C           1     -21.265  -6.081  -6.301  0.00  0.00     0.249 C 
HETATM    4  H           1     -21.604  -4.039  -6.345  0.00  0.00     0.163 HD
ENDROOT
BRANCH   3   5
HETATM    5  C           1     -21.158  -6.163  -4.799  0.00  0.00     0.275 C 
BRANCH   5   6
HETATM    6  C           1     -20.459  -7.459  -4.408  0.00  0.00     0.052 C 
BRANCH   6   7
HETATM    7  C           1     -21.499  -8.487  -3.982  0.00  0.00     0.105 C 
BRANCH   7   8
HETATM    8  C           1     -21.132  -9.838  -4.547  0.00  0.00     0.215 C 
HETATM    9  O           1     -20.930 -10.769  -3.803  0.00  0.00    -0.274 OA
HETATM   10  N           1     -21.027 -10.008  -5.901  0.00  0.00    -0.370 N 
HETATM   11  H           1     -21.196  -9.228  -6.523  0.00  0.00     0.159 HD
HETATM   12  H           1     -20.781 -10.914  -6.279  0.00  0.00     0.159 HD
ENDBRANCH   7   8
ENDBRANCH   6   7
ENDBRANCH   5   6
BRANCH   5  13
HETATM   13  N           1     -22.532  -6.135  -4.197  0.00  0.00    -0.066 N 
HETATM   14  H           1     -22.528  -5.528  -3.347  0.00  0.00     0.275 HD
HETATM   15  H           1     -22.815  -7.107  -3.933  0.00  0.00     0.275 HD
HETATM   16  H           1     -23.210  -5.754  -4.895  0.00  0.00     0.275 HD
ENDBRANCH   5  13
ENDBRANCH   3   5
BRANCH   1  17
HETATM   17  C           1     -21.606  -4.797  -8.351  0.00  0.00     0.186 C 
BRANCH  17  18
HETATM   18  C           1     -20.275  -4.381  -8.928  0.00  0.00     0.196 C 
HETATM   19  O           1     -20.052  -4.524 -10.150  0.00  0.00    -0.646 OA
HETATM   20  O           1     -19.397  -3.893  -8.185  0.00  0.00    -0.646 OA
ENDBRANCH  17  18
BRANCH  17  21
HETATM   21  C           1     -22.667  -3.771  -8.727  0.00  0.00     0.046 C 
BRANCH  21  22
HETATM   22  C           1     -23.800  -4.462  -9.474  0.00  0.00     0.116 C 
BRANCH  22  23
HETATM   23  C           1     -24.623  -3.431 -10.206  0.00  0.00     0.172 C 
HETATM   24  O           1     -24.152  -2.853 -11.209  0.00  0.00    -0.648 OA
HETATM   25  O           1     -25.777  -3.155  -9.809  0.00  0.00    -0.648 OA
ENDBRANCH  22  23
ENDBRANCH  21  22
ENDBRANCH  17  21
ENDBRANCH   1  17
TORSDOF 10
ENDMDL
MODEL 7
REMARK VINA RESULT:      -5.5     12.442     14.413
REMARK  10 active torsions:
REMARK  status: ('A' for Active; 'I' for Inactive)
REMARK    1  A    between atoms: C_1  and  C_18 
REMARK    2  A    between atoms: C_1  and  C_19 
REMARK    3  A    between atoms: C_1  and  N_23 
REMARK    4  A    between atoms: N_2  and  C_15 
REMARK       I    between atoms: N_2  and  C_18 
REMARK    5  A    between atoms: C_4  and  C_10 
REMARK    6  A    between atoms: C_6  and  C_15 
REMARK    7  A    between atoms: C_8  and  C_19 
REMARK    8  A    between atoms: C_8  and  C_22 
REMARK    9  A    between atoms: C_9  and  C_10 
REMARK   10  A    between atoms: C_9  and  C_15 
REMARK       I    between atoms: N_21  and  C_22 
ROOT
HETATM    1  N           1     -22.498  -3.574  -9.444  0.00  0.00    -0.345 N 
HETATM    2  O           1     -21.504  -5.483  -8.845  0.00  0.00    -0.271 OA
HETATM    3  C           1     -22.063  -4.469  -8.502  0.00  0.00     0.249 C 
HETATM    4  H           1     -22.967  -2.725  -9.156  0.00  0.00     0.163 HD
ENDROOT
BRANCH   3   5
HETATM    5  C           1     -22.285  -4.188  -7.036  0.00  0.00     0.275 C 
BRANCH   5   6
HETATM    6  C           1     -21.140  -4.783  -6.226  0.00  0.00     0.052 C 
BRANCH   6   7
HETATM    7  C           1     -21.665  -5.929  -5.371  0.00  0.00     0.105 C 
BRANCH   7   8
HETATM    8  C           1     -20.893  -7.186  -5.685  0.00  0.00     0.215 C 
HETATM    9  O           1     -19.884  -7.126  -6.347  0.00  0.00    -0.274 OA
HETATM   10  N           1     -21.336  -8.395  -5.221  0.00  0.00    -0.370 N 
HETATM   11  H           1     -22.182  -8.446  -4.667  0.00  0.00     0.159 HD
HETATM   12  H           1     -20.818  -9.239  -5.432  0.00  0.00     0.159 HD
ENDBRANCH   7   8
ENDBRANCH   6   7
ENDBRANCH   5   6
BRANCH   5  13
HETATM   13  N           1     -23.580  -4.807  -6.600  0.00  0.00    -0.066 N 
HETATM   14  H           1     -24.222  -4.061  -6.249  0.00  0.00     0.275 HD
HETATM   15  H           1     -23.395  -5.498  -5.836  0.00  0.00     0.275 HD
HETATM   16  H           1     -24.023  -5.296  -7.410  0.00  0.00     0.275 HD
ENDBRANCH   5  13
ENDBRANCH   3   5
BRANCH   1  17
HETATM   17  C           1     -22.286  -3.845 -10.853  0.00  0.00     0.186 C 
BRANCH  17  18
HETATM   18  C           1     -20.863  -3.499 -11.221  0.00  0.00     0.196 C 
HETATM   19  O           1     -20.519  -2.302 -11.331  0.00  0.00    -0.646 OA
HETATM   20  O           1     -20.030  -4.410 -11.418  0.00  0.00    -0.646 OA
ENDBRANCH  17  18
BRANCH  17  21
HETATM   21  C           1     -23.245  -3.000 -11.680  0.00  0.00     0.046 C 
BRANCH  21  22
HETATM   22  C           1     -23.527  -3.700 -13.003  0.00  0.00     0.116 C 
BRANCH  22  23
HETATM   23  C           1     -23.432  -2.703 -14.132  0.00  0.00     0.172 C 
HETATM   24  O           1     -22.612  -2.884 -15.058  0.00  0.00    -0.648 OA
HETATM   25  O           1     -24.173  -1.696 -14.141  0.00  0.00    -0.648 OA
ENDBRANCH  22  23
ENDBRANCH  21  22
ENDBRANCH  17  21
ENDBRANCH   1  17
TORSDOF 10
ENDMDL
MODEL 8
REMARK VINA RESULT:      -5.5     13.788     15.953
REMARK  10 active torsions:
REMARK  status: ('A' for Active; 'I' for Inactive)
REMARK    1  A    between atoms: C_1  and  C_18 
REMARK    2  A    between atoms: C_1  and  C_19 
REMARK    3  A    between atoms: C_1  and  N_23 
REMARK    4  A    between atoms: N_2  and  C_15 
REMARK       I    between atoms: N_2  and  C_18 
REMARK    5  A    between atoms: C_4  and  C_10 
REMARK    6  A    between atoms: C_6  and  C_15 
REMARK    7  A    between atoms: C_8  and  C_19 
REMARK    8  A    between atoms: C_8  and  C_22 
REMARK    9  A    between atoms: C_9  and  C_10 
REMARK   10  A    between atoms: C_9  and  C_15 
REMARK       I    between atoms: N_21  and  C_22 
ROOT
HETATM    1  N           1     -21.811  -5.545  -6.023  0.00  0.00    -0.345 N 
HETATM    2  O           1     -21.112  -7.629  -6.420  0.00  0.00    -0.271 OA
HETATM    3  C           1     -21.598  -6.843  -5.642  0.00  0.00     0.249 C 
HETATM    4  H           1     -22.219  -4.887  -5.372  0.00  0.00     0.163 HD
ENDROOT
BRANCH   3   5
HETATM    5  C           1     -21.973  -7.293  -4.252  0.00  0.00     0.275 C 
BRANCH   5   6
HETATM    6  C           1     -21.289  -6.398  -3.226  0.00  0.00     0.052 C 
BRANCH   6   7
HETATM    7  C           1     -22.209  -6.204  -2.027  0.00  0.00     0.105 C 
BRANCH   7   8
HETATM    8  C           1     -21.936  -7.280  -1.005  0.00  0.00     0.215 C 
HETATM    9  O           1     -20.893  -7.890  -1.034  0.00  0.00    -0.274 OA
HETATM   10  N           1     -22.869  -7.565  -0.046  0.00  0.00    -0.370 N 
HETATM   11  H           1     -23.743  -7.054  -0.022  0.00  0.00     0.159 HD
HETATM   12  H           1     -22.686  -8.286   0.640  0.00  0.00     0.159 HD
ENDBRANCH   7   8
ENDBRANCH   6   7
ENDBRANCH   5   6
BRANCH   5  13
HETATM   13  N           1     -21.531  -8.712  -4.049  0.00  0.00    -0.066 N 
HETATM   14  H           1     -20.582  -8.722  -3.614  0.00  0.00     0.275 HD
HETATM   15  H           1     -21.498  -9.201  -4.973  0.00  0.00     0.275 HD
HETATM   16  H           1     -22.208  -9.202  -3.422  0.00  0.00     0.275 HD
ENDBRANCH   5  13
ENDBRANCH   3   5
BRANCH   1  17
HETATM   17  C           1     -21.452  -5.114  -7.360  0.00  0.00     0.186 C 
BRANCH  17  18
HETATM   18  C           1     -20.105  -4.433  -7.323  0.00  0.00     0.196 C 
HETATM   19  O           1     -19.381  -4.535  -6.310  0.00  0.00    -0.646 OA
HETATM   20  O           1     -19.715  -3.767  -8.307  0.00  0.00    -0.646 OA
ENDBRANCH  17  18
BRANCH  17  21
HETATM   21  C           1     -22.501  -4.138  -7.877  0.00  0.00     0.046 C 
BRANCH  21  22
HETATM   22  C           1     -23.104  -4.677  -9.167  0.00  0.00     0.116 C 
BRANCH  22  23
HETATM   23  C           1     -23.270  -3.548 -10.155  0.00  0.00     0.172 C 
HETATM   24  O           1     -22.284  -3.132 -10.800  0.00  0.00    -0.648 OA
HETATM   25  O           1     -24.395  -3.029 -10.329  0.00  0.00    -0.648 OA
ENDBRANCH  22  23
ENDBRANCH  21  22
ENDBRANCH  17  21
ENDBRANCH   1  17
TORSDOF 10
ENDMDL
MODEL 9
REMARK VINA RESULT:      -5.4     11.642     13.283
REMARK  10 active torsions:
REMARK  status: ('A' for Active; 'I' for Inactive)
REMARK    1  A    between atoms: C_1  and  C_18 
REMARK    2  A    between atoms: C_1  and  C_19 
REMARK    3  A    between atoms: C_1  and  N_23 
REMARK    4  A    between atoms: N_2  and  C_15 
REMARK       I    between atoms: N_2  and  C_18 
REMARK    5  A    between atoms: C_4  and  C_10 
REMARK    6  A    between atoms: C_6  and  C_15 
REMARK    7  A    between atoms: C_8  and  C_19 
REMARK    8  A    between atoms: C_8  and  C_22 
REMARK    9  A    between atoms: C_9  and  C_10 
REMARK   10  A    between atoms: C_9  and  C_15 
REMARK       I    between atoms: N_21  and  C_22 
ROOT
HETATM    1  N           1     -23.154  -3.404 -10.952  0.00  0.00    -0.345 N 
HETATM    2  O           1     -24.963  -3.141  -9.669  0.00  0.00    -0.271 OA
HETATM    3  C           1     -23.775  -3.348  -9.733  0.00  0.00     0.249 C 
HETATM    4  H           1     -22.158  -3.577 -11.006  0.00  0.00     0.163 HD
ENDROOT
BRANCH   3   5
HETATM    5  C           1     -22.974  -3.544  -8.469  0.00  0.00     0.275 C 
BRANCH   5   6
HETATM    6  C           1     -21.736  -4.376  -8.775  0.00  0.00     0.052 C 
BRANCH   6   7
HETATM    7  C           1     -20.713  -4.193  -7.661  0.00  0.00     0.105 C 
BRANCH   7   8
HETATM    8  C           1     -20.684  -5.430  -6.796  0.00  0.00     0.215 C 
HETATM    9  O           1     -21.438  -5.528  -5.857  0.00  0.00    -0.274 OA
HETATM   10  N           1     -19.803  -6.439  -7.075  0.00  0.00    -0.370 N 
HETATM   11  H           1     -19.172  -6.357  -7.862  0.00  0.00     0.159 HD
HETATM   12  H           1     -19.784  -7.269  -6.495  0.00  0.00     0.159 HD
ENDBRANCH   7   8
ENDBRANCH   6   7
ENDBRANCH   5   6
BRANCH   5  13
HETATM   13  N           1     -23.814  -4.255  -7.450  0.00  0.00    -0.066 N 
HETATM   14  H           1     -23.401  -5.193  -7.251  0.00  0.00     0.275 HD
HETATM   15  H           1     -24.785  -4.371  -7.821  0.00  0.00     0.275 HD
HETATM   16  H           1     -23.844  -3.693  -6.569  0.00  0.00     0.275 HD
ENDBRANCH   5  13
ENDBRANCH   3   5
BRANCH   1  17
HETATM   17  C           1     -23.924  -3.215 -12.166  0.00  0.00     0.186 C 
BRANCH  17  18
HETATM   18  C           1     -24.142  -4.550 -12.836  0.00  0.00     0.196 C 
HETATM   19  O           1     -23.850  -5.606 -12.234  0.00  0.00    -0.646 OA
HETATM   20  O           1     -24.613  -4.600 -13.993  0.00  0.00    -0.646 OA
ENDBRANCH  17  18
BRANCH  17  21
HETATM   21  C           1     -23.164  -2.292 -13.109  0.00  0.00     0.046 C 
BRANCH  21  22
HETATM   22  C           1     -24.154  -1.494 -13.947  0.00  0.00     0.116 C 
BRANCH  22  23
HETATM   23  C           1     -23.464  -0.974 -15.184  0.00  0.00     0.172 C 
HETATM   24  O           1     -22.586  -1.663 -15.746  0.00  0.00    -0.648 OA
HETATM   25  O           1     -23.769   0.147 -15.646  0.00  0.00    -0.648 OA
ENDBRANCH  22  23
ENDBRANCH  21  22
ENDBRANCH  17  21
ENDBRANCH   1  17
TORSDOF 10
ENDMDL
