MODEL 1
REMARK VINA RESULT:      -6.6      0.000      0.000
REMARK  8 active torsions:
REMARK  status: ('A' for Active; 'I' for Inactive)
REMARK    1  A    between atoms: O_2  and  C_21 
REMARK    2  A    between atoms: O_2  and  P_3 
REMARK    3  A    between atoms: P_3  and  O_16 
REMARK    4  A    between atoms: N_10  and  C_12 
REMARK    5  A    between atoms: C_12  and  C_13 
REMARK       I    between atoms: C_13  and  N_14 
REMARK    6  A    between atoms: N_14  and  C_20 
REMARK    7  A    between atoms: C_18  and  C_20 
REMARK    8  A    between atoms: C_20  and  C_21 
ROOT
HETATM    1  C           1     -26.385  -6.737 -19.713  0.00  0.00     0.210 C 
ENDROOT
BRANCH   1   2
HETATM    2  N           1     -27.613  -7.283 -19.169  0.00  0.00    -0.343 N 
HETATM    3  H           1     -27.717  -8.284 -19.061  0.00  0.00     0.163 HD
HETATM    4  C           1     -28.631  -6.445 -18.800  0.00  0.00     0.248 C 
HETATM    5  O           1     -28.507  -5.251 -18.929  0.00  0.00    -0.271 OA
BRANCH   4   6
HETATM    6  C           1     -29.909  -7.014 -18.235  0.00  0.00     0.270 C 
HETATM    7  C           1     -30.558  -5.989 -17.314  0.00  0.00     0.050 C 
BRANCH   6   8
HETATM    8  N           1     -29.599  -8.258 -17.456  0.00  0.00    -0.067 N 
HETATM    9  H           1     -29.806  -8.097 -16.444  0.00  0.00     0.275 HD
HETATM   10  H           1     -30.186  -9.046 -17.809  0.00  0.00     0.275 HD
HETATM   11  H           1     -28.588  -8.498 -17.571  0.00  0.00     0.275 HD
ENDBRANCH   6   8
ENDBRANCH   4   6
ENDBRANCH   1   2
BRANCH   1  12
HETATM   12  C           1     -25.919  -7.595 -20.863  0.00  0.00     0.198 C 
HETATM   13  O           1     -26.656  -8.502 -21.305  0.00  0.00    -0.646 OA
HETATM   14  O           1     -24.795  -7.398 -21.373  0.00  0.00    -0.646 OA
ENDBRANCH   1  12
BRANCH   1  15
HETATM   15  C           1     -25.316  -6.716 -18.628  0.00  0.00     0.217 C 
BRANCH  15  16
HETATM   16  O           1     -25.822  -6.081 -17.485  0.00  0.00    -0.287 OA
BRANCH  16  17
HETATM   17  P           1     -25.401  -6.733 -16.068  0.00  0.00     0.406 P 
HETATM   18  O           1     -26.573  -7.409 -15.468  0.00  0.00    -0.624 OA
HETATM   19  O           1     -24.927  -5.666 -15.157  0.00  0.00    -0.624 OA
BRANCH  17  20
HETATM   20  O           1     -24.219  -7.808 -16.301  0.00  0.00    -0.300 OA
HETATM   21  H           1     -23.880  -7.615 -17.159  0.00  0.00     0.223 HD
ENDBRANCH  17  20
ENDBRANCH  16  17
ENDBRANCH  15  16
ENDBRANCH   1  15
TORSDOF 8
ENDMDL
MODEL 2
REMARK VINA RESULT:      -6.6      8.898     10.873
REMARK  8 active torsions:
REMARK  status: ('A' for Active; 'I' for Inactive)
REMARK    1  A    between atoms: O_2  and  C_21 
REMARK    2  A    between atoms: O_2  and  P_3 
REMARK    3  A    between atoms: P_3  and  O_16 
REMARK    4  A    between atoms: N_10  and  C_12 
REMARK    5  A    between atoms: C_12  and  C_13 
REMARK       I    between atoms: C_13  and  N_14 
REMARK    6  A    between atoms: N_14  and  C_20 
REMARK    7  A    between atoms: C_18  and  C_20 
REMARK    8  A    between atoms: C_20  and  C_21 
ROOT
HETATM    1  C           1     -22.758  -3.604 -10.033  0.00  0.00     0.210 C 
ENDROOT
BRANCH   1   2
HETATM    2  N           1     -22.088  -4.619  -9.244  0.00  0.00    -0.343 N 
HETATM    3  H           1     -21.904  -5.530  -9.644  0.00  0.00     0.163 HD
HETATM    4  C           1     -21.704  -4.345  -7.959  0.00  0.00     0.248 C 
HETATM    5  O           1     -21.923  -3.257  -7.482  0.00  0.00    -0.271 OA
BRANCH   4   6
HETATM    6  C           1     -21.008  -5.402  -7.138  0.00  0.00     0.270 C 
HETATM    7  C           1     -20.460  -4.776  -5.862  0.00  0.00     0.050 C 
BRANCH   6   8
HETATM    8  N           1     -19.876  -5.986  -7.932  0.00  0.00    -0.067 N 
HETATM    9  H           1     -19.225  -5.222  -8.225  0.00  0.00     0.275 HD
HETATM   10  H           1     -19.359  -6.678  -7.345  0.00  0.00     0.275 HD
HETATM   11  H           1     -20.258  -6.463  -8.780  0.00  0.00     0.275 HD
ENDBRANCH   6   8
ENDBRANCH   4   6
ENDBRANCH   1   2
BRANCH   1  12
HETATM   12  C           1     -24.251  -3.760  -9.892  0.00  0.00     0.198 C 
HETATM   13  O           1     -24.965  -2.763  -9.648  0.00  0.00    -0.646 OA
HETATM   14  O           1     -24.776  -4.888 -10.018  0.00  0.00    -0.646 OA
ENDBRANCH   1  12
BRANCH   1  15
HETATM   15  C           1     -22.366  -3.760 -11.497  0.00  0.00     0.217 C 
BRANCH  15  16
HETATM   16  O           1     -22.746  -2.613 -12.208  0.00  0.00    -0.287 OA
BRANCH  16  17
HETATM   17  P           1     -23.493  -2.869 -13.617  0.00  0.00     0.406 P 
HETATM   18  O           1     -24.327  -1.693 -13.955  0.00  0.00    -0.624 OA
HETATM   19  O           1     -24.354  -4.068 -13.508  0.00  0.00    -0.624 OA
BRANCH  17  20
HETATM   20  O           1     -22.391  -3.098 -14.775  0.00  0.00    -0.300 OA
HETATM   21  H           1     -21.903  -3.855 -14.500  0.00  0.00     0.223 HD
ENDBRANCH  17  20
ENDBRANCH  16  17
ENDBRANCH  15  16
ENDBRANCH   1  15
TORSDOF 8
ENDMDL
MODEL 3
REMARK VINA RESULT:      -5.9      2.079      4.106
REMARK  8 active torsions:
REMARK  status: ('A' for Active; 'I' for Inactive)
REMARK    1  A    between atoms: O_2  and  C_21 
REMARK    2  A    between atoms: O_2  and  P_3 
REMARK    3  A    between atoms: P_3  and  O_16 
REMARK    4  A    between atoms: N_10  and  C_12 
REMARK    5  A    between atoms: C_12  and  C_13 
REMARK       I    between atoms: C_13  and  N_14 
REMARK    6  A    between atoms: N_14  and  C_20 
REMARK    7  A    between atoms: C_18  and  C_20 
REMARK    8  A    between atoms: C_20  and  C_21 
ROOT
HETATM    1  C           1     -29.038  -7.058 -16.865  0.00  0.00     0.210 C 
ENDROOT
BRANCH   1   2
HETATM    2  N           1     -28.340  -6.943 -18.131  0.00  0.00    -0.343 N 
HETATM    3  H           1     -27.591  -6.270 -18.236  0.00  0.00     0.163 HD
HETATM    4  C           1     -28.692  -7.746 -19.183  0.00  0.00     0.248 C 
HETATM    5  O           1     -29.585  -8.549 -19.057  0.00  0.00    -0.271 OA
BRANCH   4   6
HETATM    6  C           1     -27.965  -7.625 -20.499  0.00  0.00     0.270 C 
HETATM    7  C           1     -27.882  -8.995 -21.161  0.00  0.00     0.050 C 
BRANCH   6   8
HETATM    8  N           1     -26.580  -7.103 -20.259  0.00  0.00    -0.067 N 
HETATM    9  H           1     -25.980  -7.309 -21.090  0.00  0.00     0.275 HD
HETATM   10  H           1     -26.618  -6.070 -20.105  0.00  0.00     0.275 HD
HETATM   11  H           1     -26.176  -7.566 -19.414  0.00  0.00     0.275 HD
ENDBRANCH   6   8
ENDBRANCH   4   6
ENDBRANCH   1   2
BRANCH   1  12
HETATM   12  C           1     -29.978  -5.890 -16.702  0.00  0.00     0.198 C 
HETATM   13  O           1     -30.524  -5.381 -17.704  0.00  0.00    -0.646 OA
HETATM   14  O           1     -30.212  -5.431 -15.562  0.00  0.00    -0.646 OA
ENDBRANCH   1  12
BRANCH   1  15
HETATM   15  C           1     -28.025  -7.059 -15.727  0.00  0.00     0.217 C 
BRANCH  15  16
HETATM   16  O           1     -27.123  -6.001 -15.903  0.00  0.00    -0.287 OA
BRANCH  16  17
HETATM   17  P           1     -25.582  -6.418 -16.148  0.00  0.00     0.406 P 
HETATM   18  O           1     -25.314  -6.484 -17.603  0.00  0.00    -0.624 OA
HETATM   19  O           1     -25.327  -7.743 -15.539  0.00  0.00    -0.624 OA
BRANCH  17  20
HETATM   20  O           1     -24.613  -5.317 -15.472  0.00  0.00    -0.300 OA
HETATM   21  H           1     -23.839  -5.312 -16.008  0.00  0.00     0.223 HD
ENDBRANCH  17  20
ENDBRANCH  16  17
ENDBRANCH  15  16
ENDBRANCH   1  15
TORSDOF 8
ENDMDL
MODEL 4
REMARK VINA RESULT:      -5.9      2.445      4.902
REMARK  8 active torsions:
REMARK  status: ('A' for Active; 'I' for Inactive)
REMARK    1  A    between atoms: O_2  and  C_21 
REMARK    2  A    between atoms: O_2  and  P_3 
REMARK    3  A    between atoms: P_3  and  O_16 
REMARK    4  A    between atoms: N_10  and  C_12 
REMARK    5  A    between atoms: C_12  and  C_13 
REMARK       I    between atoms: C_13  and  N_14 
REMARK    6  A    between atoms: N_14  and  C_20 
REMARK    7  A    between atoms: C_18  and  C_20 
REMARK    8  A    between atoms: C_20  and  C_21 
ROOT
HETATM    1  C           1     -26.316  -6.327 -17.553  0.00  0.00     0.210 C 
ENDROOT
BRANCH   1   2
HETATM    2  N           1     -26.132  -7.119 -18.753  0.00  0.00    -0.343 N 
HETATM    3  H           1     -26.856  -7.760 -19.052  0.00  0.00     0.163 HD
HETATM    4  C           1     -24.980  -6.999 -19.483  0.00  0.00     0.248 C 
HETATM    5  O           1     -24.116  -6.234 -19.126  0.00  0.00    -0.271 OA
BRANCH   4   6
HETATM    6  C           1     -24.789  -7.824 -20.732  0.00  0.00     0.270 C 
HETATM    7  C           1     -24.346  -6.920 -21.875  0.00  0.00     0.050 C 
BRANCH   6   8
HETATM    8  N           1     -26.084  -8.488 -21.095  0.00  0.00    -0.067 N 
HETATM    9  H           1     -26.650  -8.645 -20.230  0.00  0.00     0.275 HD
HETATM   10  H           1     -26.617  -7.877 -21.753  0.00  0.00     0.275 HD
HETATM   11  H           1     -25.887  -9.406 -21.554  0.00  0.00     0.275 HD
ENDBRANCH   6   8
ENDBRANCH   4   6
ENDBRANCH   1   2
BRANCH   1  12
HETATM   12  C           1     -25.887  -7.130 -16.350  0.00  0.00     0.198 C 
HETATM   13  O           1     -24.703  -7.520 -16.248  0.00  0.00    -0.646 OA
HETATM   14  O           1     -26.714  -7.405 -15.454  0.00  0.00    -0.646 OA
ENDBRANCH   1  12
BRANCH   1  15
HETATM   15  C           1     -27.786  -5.952 -17.415  0.00  0.00     0.217 C 
BRANCH  15  16
HETATM   16  O           1     -28.521  -6.547 -18.450  0.00  0.00    -0.287 OA
BRANCH  16  17
HETATM   17  P           1     -29.709  -7.540 -17.995  0.00  0.00     0.406 P 
HETATM   18  O           1     -30.101  -8.398 -19.136  0.00  0.00    -0.624 OA
HETATM   19  O           1     -30.876  -6.742 -17.554  0.00  0.00    -0.624 OA
BRANCH  17  20
HETATM   20  O           1     -29.198  -8.467 -16.775  0.00  0.00    -0.300 OA
HETATM   21  H           1     -28.754  -9.188 -17.187  0.00  0.00     0.223 HD
ENDBRANCH  17  20
ENDBRANCH  16  17
ENDBRANCH  15  16
ENDBRANCH   1  15
TORSDOF 8
ENDMDL
MODEL 5
REMARK VINA RESULT:      -5.8     10.633     12.539
REMARK  8 active torsions:
REMARK  status: ('A' for Active; 'I' for Inactive)
REMARK    1  A    between atoms: O_2  and  C_21 
REMARK    2  A    between atoms: O_2  and  P_3 
REMARK    3  A    between atoms: P_3  and  O_16 
REMARK    4  A    between atoms: N_10  and  C_12 
REMARK    5  A    between atoms: C_12  and  C_13 
REMARK       I    between atoms: C_13  and  N_14 
REMARK    6  A    between atoms: N_14  and  C_20 
REMARK    7  A    between atoms: C_18  and  C_20 
REMARK    8  A    between atoms: C_20  and  C_21 
ROOT
HETATM    1  C           1     -21.556  -4.963  -8.073  0.00  0.00     0.210 C 
ENDROOT
BRANCH   1   2
HETATM    2  N           1     -21.391  -5.061  -6.636  0.00  0.00    -0.343 N 
HETATM    3  H           1     -21.414  -4.224  -6.067  0.00  0.00     0.163 HD
HETATM    4  C           1     -21.204  -6.283  -6.049  0.00  0.00     0.248 C 
HETATM    5  O           1     -21.177  -7.281  -6.729  0.00  0.00    -0.271 OA
BRANCH   4   6
HETATM    6  C           1     -21.031  -6.384  -4.554  0.00  0.00     0.270 C 
HETATM    7  C           1     -20.513  -7.771  -4.194  0.00  0.00     0.050 C 
BRANCH   6   8
HETATM    8  N           1     -22.353  -6.156  -3.882  0.00  0.00    -0.067 N 
HETATM    9  H           1     -22.198  -5.951  -2.869  0.00  0.00     0.275 HD
HETATM   10  H           1     -22.838  -5.347  -4.331  0.00  0.00     0.275 HD
HETATM   11  H           1     -22.944  -7.013  -3.978  0.00  0.00     0.275 HD
ENDBRANCH   6   8
ENDBRANCH   4   6
ENDBRANCH   1   2
BRANCH   1  12
HETATM   12  C           1     -20.245  -4.566  -8.705  0.00  0.00     0.198 C 
HETATM   13  O           1     -19.309  -4.145  -7.992  0.00  0.00    -0.646 OA
HETATM   14  O           1     -20.095  -4.658  -9.943  0.00  0.00    -0.646 OA
ENDBRANCH   1  12
BRANCH   1  15
HETATM   15  C           1     -22.613  -3.912  -8.391  0.00  0.00     0.217 C 
BRANCH  15  16
HETATM   16  O           1     -23.619  -4.485  -9.182  0.00  0.00    -0.287 OA
BRANCH  16  17
HETATM   17  P           1     -23.704  -3.962 -10.707  0.00  0.00     0.406 P 
HETATM   18  O           1     -24.956  -3.196 -10.899  0.00  0.00    -0.624 OA
HETATM   19  O           1     -23.690  -5.123 -11.627  0.00  0.00    -0.624 OA
BRANCH  17  20
HETATM   20  O           1     -22.437  -3.011 -11.021  0.00  0.00    -0.300 OA
HETATM   21  H           1     -22.770  -2.132 -10.954  0.00  0.00     0.223 HD
ENDBRANCH  17  20
ENDBRANCH  16  17
ENDBRANCH  15  16
ENDBRANCH   1  15
TORSDOF 8
ENDMDL
MODEL 6
REMARK VINA RESULT:      -5.3      9.278     11.138
REMARK  8 active torsions:
REMARK  status: ('A' for Active; 'I' for Inactive)
REMARK    1  A    between atoms: O_2  and  C_21 
REMARK    2  A    between atoms: O_2  and  P_3 
REMARK    3  A    between atoms: P_3  and  O_16 
REMARK    4  A    between atoms: N_10  and  C_12 
REMARK    5  A    between atoms: C_12  and  C_13 
REMARK       I    between atoms: C_13  and  N_14 
REMARK    6  A    between atoms: N_14  and  C_20 
REMARK    7  A    between atoms: C_18  and  C_20 
REMARK    8  A    between atoms: C_20  and  C_21 
ROOT
HETATM    1  C           1     -21.867  -3.895  -9.184  0.00  0.00     0.210 C 
ENDROOT
BRANCH   1   2
HETATM    2  N           1     -22.451  -3.873 -10.510  0.00  0.00    -0.343 N 
HETATM    3  H           1     -21.943  -4.267 -11.292  0.00  0.00     0.163 HD
HETATM    4  C           1     -23.688  -3.320 -10.706  0.00  0.00     0.248 C 
HETATM    5  O           1     -24.293  -2.850  -9.772  0.00  0.00    -0.271 OA
BRANCH   4   6
HETATM    6  C           1     -24.294  -3.297 -12.087  0.00  0.00     0.270 C 
HETATM    7  C           1     -23.985  -4.607 -12.800  0.00  0.00     0.050 C 
BRANCH   6   8
HETATM    8  N           1     -23.713  -2.155 -12.867  0.00  0.00    -0.067 N 
HETATM    9  H           1     -22.968  -1.689 -12.301  0.00  0.00     0.275 HD
HETATM   10  H           1     -23.301  -2.515 -13.757  0.00  0.00     0.275 HD
HETATM   11  H           1     -24.467  -1.465 -13.087  0.00  0.00     0.275 HD
ENDBRANCH   6   8
ENDBRANCH   4   6
ENDBRANCH   1   2
BRANCH   1  12
HETATM   12  C           1     -20.381  -4.132  -9.291  0.00  0.00     0.198 C 
HETATM   13  O           1     -19.617  -3.732  -8.387  0.00  0.00    -0.646 OA
HETATM   14  O           1     -19.914  -4.729 -10.286  0.00  0.00    -0.646 OA
ENDBRANCH   1  12
BRANCH   1  15
HETATM   15  C           1     -22.503  -5.015  -8.369  0.00  0.00     0.217 C 
BRANCH  15  16
HETATM   16  O           1     -22.492  -4.670  -7.011  0.00  0.00    -0.287 OA
BRANCH  16  17
HETATM   17  P           1     -21.569  -5.586  -6.054  0.00  0.00     0.406 P 
HETATM   18  O           1     -21.032  -6.727  -6.830  0.00  0.00    -0.624 OA
HETATM   19  O           1     -22.381  -6.096  -4.926  0.00  0.00    -0.624 OA
BRANCH  17  20
HETATM   20  O           1     -20.345  -4.702  -5.481  0.00  0.00    -0.300 OA
HETATM   21  H           1     -20.737  -4.127  -4.846  0.00  0.00     0.223 HD
ENDBRANCH  17  20
ENDBRANCH  16  17
ENDBRANCH  15  16
ENDBRANCH   1  15
TORSDOF 8
ENDMDL
MODEL 7
REMARK VINA RESULT:      -5.1      9.258     11.154
REMARK  8 active torsions:
REMARK  status: ('A' for Active; 'I' for Inactive)
REMARK    1  A    between atoms: O_2  and  C_21 
REMARK    2  A    between atoms: O_2  and  P_3 
REMARK    3  A    between atoms: P_3  and  O_16 
REMARK    4  A    between atoms: N_10  and  C_12 
REMARK    5  A    between atoms: C_12  and  C_13 
REMARK       I    between atoms: C_13  and  N_14 
REMARK    6  A    between atoms: N_14  and  C_20 
REMARK    7  A    between atoms: C_18  and  C_20 
REMARK    8  A    between atoms: C_20  and  C_21 
ROOT
HETATM    1  C           1     -21.988  -4.596 -10.145  0.00  0.00     0.210 C 
ENDROOT
BRANCH   1   2
HETATM    2  N           1     -21.864  -5.278  -8.872  0.00  0.00    -0.343 N 
HETATM    3  H           1     -22.030  -6.275  -8.814  0.00  0.00     0.163 HD
HETATM    4  C           1     -21.522  -4.575  -7.748  0.00  0.00     0.248 C 
HETATM    5  O           1     -21.324  -3.386  -7.818  0.00  0.00    -0.271 OA
BRANCH   4   6
HETATM    6  C           1     -21.394  -5.285  -6.423  0.00  0.00     0.270 C 
HETATM    7  C           1     -20.271  -4.650  -5.613  0.00  0.00     0.050 C 
BRANCH   6   8
HETATM    8  N           1     -21.079  -6.733  -6.662  0.00  0.00    -0.067 N 
HETATM    9  H           1     -21.209  -6.956  -7.675  0.00  0.00     0.275 HD
HETATM   10  H           1     -20.090  -6.924  -6.387  0.00  0.00     0.275 HD
HETATM   11  H           1     -21.721  -7.326  -6.089  0.00  0.00     0.275 HD
ENDBRANCH   6   8
ENDBRANCH   4   6
ENDBRANCH   1   2
BRANCH   1  12
HETATM   12  C           1     -20.621  -4.181 -10.628  0.00  0.00     0.198 C 
HETATM   13  O           1     -20.439  -3.026 -11.073  0.00  0.00    -0.646 OA
HETATM   14  O           1     -19.670  -4.991 -10.584  0.00  0.00    -0.646 OA
ENDBRANCH   1  12
BRANCH   1  15
HETATM   15  C           1     -22.865  -3.362  -9.976  0.00  0.00     0.217 C 
BRANCH  15  16
HETATM   16  O           1     -24.093  -3.568 -10.620  0.00  0.00    -0.287 OA
BRANCH  16  17
HETATM   17  P           1     -24.112  -3.292 -12.211  0.00  0.00     0.406 P 
HETATM   18  O           1     -23.124  -2.240 -12.543  0.00  0.00    -0.624 OA
HETATM   19  O           1     -25.464  -2.844 -12.617  0.00  0.00    -0.624 OA
BRANCH  17  20
HETATM   20  O           1     -23.735  -4.651 -12.998  0.00  0.00    -0.300 OA
HETATM   21  H           1     -22.889  -4.898 -12.665  0.00  0.00     0.223 HD
ENDBRANCH  17  20
ENDBRANCH  16  17
ENDBRANCH  15  16
ENDBRANCH   1  15
TORSDOF 8
ENDMDL
MODEL 8
REMARK VINA RESULT:      -5.0     15.516     17.416
REMARK  8 active torsions:
REMARK  status: ('A' for Active; 'I' for Inactive)
REMARK    1  A    between atoms: O_2  and  C_21 
REMARK    2  A    between atoms: O_2  and  P_3 
REMARK    3  A    between atoms: P_3  and  O_16 
REMARK    4  A    between atoms: N_10  and  C_12 
REMARK    5  A    between atoms: C_12  and  C_13 
REMARK       I    between atoms: C_13  and  N_14 
REMARK    6  A    between atoms: N_14  and  C_20 
REMARK    7  A    between atoms: C_18  and  C_20 
REMARK    8  A    between atoms: C_20  and  C_21 
ROOT
HETATM    1  C           1     -21.172  -7.792  -2.222  0.00  0.00     0.210 C 
ENDROOT
BRANCH   1   2
HETATM    2  N           1     -21.303  -9.042  -1.498  0.00  0.00    -0.343 N 
HETATM    3  H           1     -22.167  -9.259  -1.018  0.00  0.00     0.163 HD
HETATM    4  C           1     -20.260  -9.927  -1.465  0.00  0.00     0.248 C 
HETATM    5  O           1     -19.229  -9.667  -2.038  0.00  0.00    -0.271 OA
BRANCH   4   6
HETATM    6  C           1     -20.397 -11.226  -0.711  0.00  0.00     0.270 C 
HETATM    7  C           1     -21.281 -11.015   0.511  0.00  0.00     0.050 C 
BRANCH   6   8
HETATM    8  N           1     -19.041 -11.693  -0.270  0.00  0.00    -0.067 N 
HETATM    9  H           1     -18.306 -11.231  -0.853  0.00  0.00     0.275 HD
HETATM   10  H           1     -18.896 -11.444   0.734  0.00  0.00     0.275 HD
HETATM   11  H           1     -18.975 -12.730  -0.384  0.00  0.00     0.275 HD
ENDBRANCH   6   8
ENDBRANCH   4   6
ENDBRANCH   1   2
BRANCH   1  12
HETATM   12  C           1     -22.126  -6.775  -1.647  0.00  0.00     0.198 C 
HETATM   13  O           1     -22.740  -7.023  -0.587  0.00  0.00    -0.646 OA
HETATM   14  O           1     -22.302  -5.683  -2.231  0.00  0.00    -0.646 OA
ENDBRANCH   1  12
BRANCH   1  15
HETATM   15  C           1     -21.500  -8.022  -3.692  0.00  0.00     0.217 C 
BRANCH  15  16
HETATM   16  O           1     -20.542  -7.380  -4.490  0.00  0.00    -0.287 OA
BRANCH  16  17
HETATM   17  P           1     -21.105  -6.261  -5.509  0.00  0.00     0.406 P 
HETATM   18  O           1     -20.936  -6.732  -6.903  0.00  0.00    -0.624 OA
HETATM   19  O           1     -20.352  -5.000  -5.320  0.00  0.00    -0.624 OA
BRANCH  17  20
HETATM   20  O           1     -22.671  -6.004  -5.214  0.00  0.00    -0.300 OA
HETATM   21  H           1     -22.909  -6.656  -4.578  0.00  0.00     0.223 HD
ENDBRANCH  17  20
ENDBRANCH  16  17
ENDBRANCH  15  16
ENDBRANCH   1  15
TORSDOF 8
ENDMDL
MODEL 9
REMARK VINA RESULT:      -5.0     15.875     17.676
REMARK  8 active torsions:
REMARK  status: ('A' for Active; 'I' for Inactive)
REMARK    1  A    between atoms: O_2  and  C_21 
REMARK    2  A    between atoms: O_2  and  P_3 
REMARK    3  A    between atoms: P_3  and  O_16 
REMARK    4  A    between atoms: N_10  and  C_12 
REMARK    5  A    between atoms: C_12  and  C_13 
REMARK       I    between atoms: C_13  and  N_14 
REMARK    6  A    between atoms: N_14  and  C_20 
REMARK    7  A    between atoms: C_18  and  C_20 
REMARK    8  A    between atoms: C_20  and  C_21 
ROOT
HETATM    1  C           1     -21.218  -7.957  -1.375  0.00  0.00     0.210 C 
ENDROOT
BRANCH   1   2
HETATM    2  N           1     -21.864  -9.255  -1.384  0.00  0.00    -0.343 N 
HETATM    3  H           1     -22.419  -9.537  -2.182  0.00  0.00     0.163 HD
HETATM    4  C           1     -21.723 -10.098  -0.315  0.00  0.00     0.248 C 
HETATM    5  O           1     -21.060  -9.761   0.636  0.00  0.00    -0.271 OA
BRANCH   4   6
HETATM    6  C           1     -22.396 -11.448  -0.325  0.00  0.00     0.270 C 
HETATM    7  C           1     -23.902 -11.267  -0.181  0.00  0.00     0.050 C 
BRANCH   6   8
HETATM    8  N           1     -21.882 -12.271   0.819  0.00  0.00    -0.067 N 
HETATM    9  H           1     -21.018 -11.828   1.207  0.00  0.00     0.275 HD
HETATM   10  H           1     -22.610 -12.324   1.565  0.00  0.00     0.275 HD
HETATM   11  H           1     -21.658 -13.234   0.481  0.00  0.00     0.275 HD
ENDBRANCH   6   8
ENDBRANCH   4   6
ENDBRANCH   1   2
BRANCH   1  12
HETATM   12  C           1     -22.257  -6.879  -1.193  0.00  0.00     0.198 C 
HETATM   13  O           1     -22.232  -5.858  -1.913  0.00  0.00    -0.646 OA
HETATM   14  O           1     -23.143  -7.007  -0.320  0.00  0.00    -0.646 OA
ENDBRANCH   1  12
BRANCH   1  15
HETATM   15  C           1     -20.491  -7.744  -2.697  0.00  0.00     0.217 C 
BRANCH  15  16
HETATM   16  O           1     -21.287  -8.217  -3.750  0.00  0.00    -0.287 OA
BRANCH  16  17
HETATM   17  P           1     -21.405  -7.251  -5.038  0.00  0.00     0.406 P 
HETATM   18  O           1     -21.425  -8.070  -6.271  0.00  0.00    -0.624 OA
HETATM   19  O           1     -20.243  -6.334  -5.074  0.00  0.00    -0.624 OA
BRANCH  17  20
HETATM   20  O           1     -22.768  -6.390  -4.941  0.00  0.00    -0.300 OA
HETATM   21  H           1     -22.721  -5.953  -4.108  0.00  0.00     0.223 HD
ENDBRANCH  17  20
ENDBRANCH  16  17
ENDBRANCH  15  16
ENDBRANCH   1  15
TORSDOF 8
ENDMDL
