MODEL 1
REMARK VINA RESULT:      -7.3      0.000      0.000
REMARK  7 active torsions:
REMARK  status: ('A' for Active; 'I' for Inactive)
REMARK    1  A    between atoms: C_2  and  C_5 
REMARK    2  A    between atoms: C_2  and  N_17 
REMARK    3  A    between atoms: N_4  and  C_11 
REMARK    4  A    between atoms: C_6  and  O_7 
REMARK    5  A    between atoms: C_11  and  C_23 
REMARK    6  A    between atoms: C_11  and  C_16 
REMARK    7  A    between atoms: C_14  and  C_16 
REMARK       I    between atoms: N_17  and  C_23 
ROOT
HETATM    1  C           1     -22.153  -5.116  -6.785  0.00  0.00     0.278 C 
ENDROOT
BRANCH   1   2
HETATM    2  N           1     -23.600  -4.906  -6.446  0.00  0.00    -0.066 N 
HETATM    3  H           1     -23.797  -3.883  -6.379  0.00  0.00     0.275 HD
HETATM    4  H           1     -24.197  -5.327  -7.194  0.00  0.00     0.275 HD
HETATM    5  H           1     -23.812  -5.362  -5.531  0.00  0.00     0.275 HD
ENDBRANCH   1   2
BRANCH   1   6
HETATM    6  C           1     -21.404  -5.538  -5.544  0.00  0.00     0.249 C 
HETATM    7  O           1     -20.215  -5.341  -5.462  0.00  0.00    -0.271 OA
HETATM    8  N           1     -22.071  -6.143  -4.514  0.00  0.00    -0.345 N 
HETATM    9  H           1     -23.067  -6.309  -4.584  0.00  0.00     0.163 HD
BRANCH   8  10
HETATM   10  C           1     -21.350  -6.549  -3.323  0.00  0.00     0.181 C 
HETATM   11  C           1     -22.159  -6.176  -2.088  0.00  0.00     0.043 C 
BRANCH  10  12
HETATM   12  C           1     -21.136  -8.042  -3.350  0.00  0.00     0.196 C 
HETATM   13  O           1     -20.320  -8.572  -2.566  0.00  0.00    -0.646 OA
HETATM   14  O           1     -21.776  -8.750  -4.158  0.00  0.00    -0.646 OA
ENDBRANCH  10  12
ENDBRANCH   8  10
ENDBRANCH   1   6
BRANCH   1  15
HETATM   15  C           1     -21.564  -3.818  -7.319  0.00  0.00     0.081 C 
BRANCH  15  16
HETATM   16  C           1     -21.613  -3.823  -8.815  0.00  0.00    -0.056 A 
HETATM   17  C           1     -20.466  -4.127  -9.548  0.00  0.00     0.010 A 
HETATM   18  C           1     -20.511  -4.133 -10.942  0.00  0.00     0.037 A 
HETATM   19  C           1     -21.703  -3.836 -11.602  0.00  0.00     0.065 A 
HETATM   20  C           1     -22.850  -3.533 -10.869  0.00  0.00     0.037 A 
HETATM   21  C           1     -22.805  -3.527  -9.476  0.00  0.00     0.010 A 
BRANCH  19  22
HETATM   22  O           1     -21.747  -3.841 -12.957  0.00  0.00    -0.361 OA
HETATM   23  H           1     -21.534  -4.740 -13.261  0.00  0.00     0.217 HD
ENDBRANCH  19  22
ENDBRANCH  15  16
ENDBRANCH   1  15
TORSDOF 7
ENDMDL
MODEL 2
REMARK VINA RESULT:      -7.1      1.361      1.605
REMARK  7 active torsions:
REMARK  status: ('A' for Active; 'I' for Inactive)
REMARK    1  A    between atoms: C_2  and  C_5 
REMARK    2  A    between atoms: C_2  and  N_17 
REMARK    3  A    between atoms: N_4  and  C_11 
REMARK    4  A    between atoms: C_6  and  O_7 
REMARK    5  A    between atoms: C_11  and  C_23 
REMARK    6  A    between atoms: C_11  and  C_16 
REMARK    7  A    between atoms: C_14  and  C_16 
REMARK       I    between atoms: N_17  and  C_23 
ROOT
HETATM    1  C           1     -21.905  -4.416  -7.287  0.00  0.00     0.278 C 
ENDROOT
BRANCH   1   2
HETATM    2  N           1     -21.572  -2.957  -7.182  0.00  0.00    -0.066 N 
HETATM    3  H           1     -21.360  -2.719  -6.187  0.00  0.00     0.275 HD
HETATM    4  H           1     -20.737  -2.748  -7.776  0.00  0.00     0.275 HD
HETATM    5  H           1     -22.386  -2.390  -7.510  0.00  0.00     0.275 HD
ENDBRANCH   1   2
BRANCH   1   6
HETATM    6  C           1     -21.221  -5.168  -6.170  0.00  0.00     0.249 C 
HETATM    7  O           1     -20.026  -5.075  -6.025  0.00  0.00    -0.271 OA
HETATM    8  N           1     -21.955  -5.955  -5.325  0.00  0.00    -0.345 N 
HETATM    9  H           1     -22.957  -6.034  -5.448  0.00  0.00     0.163 HD
BRANCH   8  10
HETATM   10  C           1     -21.297  -6.678  -4.253  0.00  0.00     0.181 C 
HETATM   11  C           1     -21.983  -6.362  -2.931  0.00  0.00     0.043 C 
BRANCH  10  12
HETATM   12  C           1     -21.383  -8.160  -4.522  0.00  0.00     0.196 C 
HETATM   13  O           1     -21.634  -8.952  -3.588  0.00  0.00    -0.646 OA
HETATM   14  O           1     -21.202  -8.597  -5.679  0.00  0.00    -0.646 OA
ENDBRANCH  10  12
ENDBRANCH   8  10
ENDBRANCH   1   6
BRANCH   1  15
HETATM   15  C           1     -21.425  -4.951  -8.629  0.00  0.00     0.081 C 
BRANCH  15  16
HETATM   16  C           1     -22.151  -4.251  -9.735  0.00  0.00    -0.056 A 
HETATM   17  C           1     -21.432  -3.661 -10.775  0.00  0.00     0.010 A 
HETATM   18  C           1     -22.107  -3.008 -11.807  0.00  0.00     0.037 A 
HETATM   19  C           1     -23.500  -2.946 -11.798  0.00  0.00     0.065 A 
HETATM   20  C           1     -24.219  -3.536 -10.759  0.00  0.00     0.037 A 
HETATM   21  C           1     -23.544  -4.189  -9.727  0.00  0.00     0.010 A 
BRANCH  19  22
HETATM   22  O           1     -24.157  -2.312 -12.800  0.00  0.00    -0.361 OA
HETATM   23  H           1     -25.102  -2.522 -12.720  0.00  0.00     0.217 HD
ENDBRANCH  19  22
ENDBRANCH  15  16
ENDBRANCH   1  15
TORSDOF 7
ENDMDL
MODEL 3
REMARK VINA RESULT:      -6.8      2.213      7.281
REMARK  7 active torsions:
REMARK  status: ('A' for Active; 'I' for Inactive)
REMARK    1  A    between atoms: C_2  and  C_5 
REMARK    2  A    between atoms: C_2  and  N_17 
REMARK    3  A    between atoms: N_4  and  C_11 
REMARK    4  A    between atoms: C_6  and  O_7 
REMARK    5  A    between atoms: C_11  and  C_23 
REMARK    6  A    between atoms: C_11  and  C_16 
REMARK    7  A    between atoms: C_14  and  C_16 
REMARK       I    between atoms: N_17  and  C_23 
ROOT
HETATM    1  C           1     -21.125  -5.706  -6.780  0.00  0.00     0.278 C 
ENDROOT
BRANCH   1   2
HETATM    2  N           1     -19.860  -6.196  -7.422  0.00  0.00    -0.066 N 
HETATM    3  H           1     -19.991  -7.183  -7.740  0.00  0.00     0.275 HD
HETATM    4  H           1     -19.632  -5.593  -8.245  0.00  0.00     0.275 HD
HETATM    5  H           1     -19.079  -6.155  -6.729  0.00  0.00     0.275 HD
ENDBRANCH   1   2
BRANCH   1   6
HETATM    6  C           1     -21.673  -4.545  -7.574  0.00  0.00     0.249 C 
HETATM    7  O           1     -21.621  -3.426  -7.121  0.00  0.00    -0.271 OA
HETATM    8  N           1     -22.229  -4.759  -8.807  0.00  0.00    -0.345 N 
HETATM    9  H           1     -22.272  -5.697  -9.185  0.00  0.00     0.163 HD
BRANCH   8  10
HETATM   10  C           1     -22.755  -3.643  -9.568  0.00  0.00     0.181 C 
HETATM   11  C           1     -22.124  -3.631 -10.954  0.00  0.00     0.043 C 
BRANCH  10  12
HETATM   12  C           1     -24.251  -3.788  -9.700  0.00  0.00     0.196 C 
HETATM   13  O           1     -24.753  -4.905  -9.951  0.00  0.00    -0.646 OA
HETATM   14  O           1     -24.991  -2.790  -9.556  0.00  0.00    -0.646 OA
ENDBRANCH  10  12
ENDBRANCH   8  10
ENDBRANCH   1   6
BRANCH   1  15
HETATM   15  C           1     -20.829  -5.254  -5.357  0.00  0.00     0.081 C 
BRANCH  15  16
HETATM   16  C           1     -21.130  -6.370  -4.405  0.00  0.00    -0.056 A 
HETATM   17  C           1     -21.220  -7.681  -4.874  0.00  0.00     0.010 A 
HETATM   18  C           1     -21.500  -8.720  -3.988  0.00  0.00     0.037 A 
HETATM   19  C           1     -21.689  -8.449  -2.633  0.00  0.00     0.065 A 
HETATM   20  C           1     -21.598  -7.139  -2.164  0.00  0.00     0.037 A 
HETATM   21  C           1     -21.318  -6.099  -3.050  0.00  0.00     0.010 A 
BRANCH  19  22
HETATM   22  O           1     -21.961  -9.459  -1.771  0.00  0.00    -0.361 OA
HETATM   23  H           1     -22.745  -9.209  -1.253  0.00  0.00     0.217 HD
ENDBRANCH  19  22
ENDBRANCH  15  16
ENDBRANCH   1  15
TORSDOF 7
ENDMDL
MODEL 4
REMARK VINA RESULT:      -6.5      2.365      7.833
REMARK  7 active torsions:
REMARK  status: ('A' for Active; 'I' for Inactive)
REMARK    1  A    between atoms: C_2  and  C_5 
REMARK    2  A    between atoms: C_2  and  N_17 
REMARK    3  A    between atoms: N_4  and  C_11 
REMARK    4  A    between atoms: C_6  and  O_7 
REMARK    5  A    between atoms: C_11  and  C_23 
REMARK    6  A    between atoms: C_11  and  C_16 
REMARK    7  A    between atoms: C_14  and  C_16 
REMARK       I    between atoms: N_17  and  C_23 
ROOT
HETATM    1  C           1     -21.368  -7.569  -4.956  0.00  0.00     0.278 C 
ENDROOT
BRANCH   1   2
HETATM    2  N           1     -21.112  -8.648  -5.968  0.00  0.00    -0.066 N 
HETATM    3  H           1     -20.745  -8.220  -6.847  0.00  0.00     0.275 HD
HETATM    4  H           1     -20.408  -9.321  -5.588  0.00  0.00     0.275 HD
HETATM    5  H           1     -22.004  -9.151  -6.172  0.00  0.00     0.275 HD
ENDBRANCH   1   2
BRANCH   1   6
HETATM    6  C           1     -21.105  -6.221  -5.583  0.00  0.00     0.249 C 
HETATM    7  O           1     -20.749  -5.294  -4.895  0.00  0.00    -0.271 OA
HETATM    8  N           1     -21.271  -6.048  -6.931  0.00  0.00    -0.345 N 
HETATM    9  H           1     -21.571  -6.825  -7.507  0.00  0.00     0.163 HD
BRANCH   8  10
HETATM   10  C           1     -21.020  -4.754  -7.532  0.00  0.00     0.181 C 
HETATM   11  C           1     -20.045  -4.912  -8.691  0.00  0.00     0.043 C 
BRANCH  10  12
HETATM   12  C           1     -22.317  -4.177  -8.043  0.00  0.00     0.196 C 
HETATM   13  O           1     -23.374  -4.344  -7.397  0.00  0.00    -0.646 OA
HETATM   14  O           1     -22.336  -3.532  -9.114  0.00  0.00    -0.646 OA
ENDBRANCH  10  12
ENDBRANCH   8  10
ENDBRANCH   1   6
BRANCH   1  15
HETATM   15  C           1     -20.443  -7.764  -3.763  0.00  0.00     0.081 C 
BRANCH  15  16
HETATM   16  C           1     -21.255  -7.849  -2.509  0.00  0.00    -0.056 A 
HETATM   17  C           1     -21.753  -6.685  -1.920  0.00  0.00     0.010 A 
HETATM   18  C           1     -22.511  -6.764  -0.752  0.00  0.00     0.037 A 
HETATM   19  C           1     -22.771  -8.006  -0.172  0.00  0.00     0.065 A 
HETATM   20  C           1     -22.274  -9.168  -0.760  0.00  0.00     0.037 A 
HETATM   21  C           1     -21.516  -9.090  -1.928  0.00  0.00     0.010 A 
BRANCH  19  22
HETATM   22  O           1     -23.507  -8.083   0.963  0.00  0.00    -0.361 OA
HETATM   23  H           1     -23.102  -8.752   1.539  0.00  0.00     0.217 HD
ENDBRANCH  19  22
ENDBRANCH  15  16
ENDBRANCH   1  15
TORSDOF 7
ENDMDL
MODEL 5
REMARK VINA RESULT:      -6.4      1.634      1.995
REMARK  7 active torsions:
REMARK  status: ('A' for Active; 'I' for Inactive)
REMARK    1  A    between atoms: C_2  and  C_5 
REMARK    2  A    between atoms: C_2  and  N_17 
REMARK    3  A    between atoms: N_4  and  C_11 
REMARK    4  A    between atoms: C_6  and  O_7 
REMARK    5  A    between atoms: C_11  and  C_23 
REMARK    6  A    between atoms: C_11  and  C_16 
REMARK    7  A    between atoms: C_14  and  C_16 
REMARK       I    between atoms: N_17  and  C_23 
ROOT
HETATM    1  C           1     -21.008  -5.012  -6.374  0.00  0.00     0.278 C 
ENDROOT
BRANCH   1   2
HETATM    2  N           1     -19.831  -4.476  -5.613  0.00  0.00    -0.066 N 
HETATM    3  H           1     -18.950  -4.713  -6.123  0.00  0.00     0.275 HD
HETATM    4  H           1     -19.915  -3.438  -5.529  0.00  0.00     0.275 HD
HETATM    5  H           1     -19.807  -4.905  -4.661  0.00  0.00     0.275 HD
ENDBRANCH   1   2
BRANCH   1   6
HETATM    6  C           1     -21.686  -6.086  -5.556  0.00  0.00     0.249 C 
HETATM    7  O           1     -22.871  -6.017  -5.334  0.00  0.00    -0.271 OA
HETATM    8  N           1     -20.957  -7.136  -5.066  0.00  0.00    -0.345 N 
HETATM    9  H           1     -19.964  -7.192  -5.252  0.00  0.00     0.163 HD
BRANCH   8  10
HETATM   10  C           1     -21.609  -8.166  -4.280  0.00  0.00     0.181 C 
HETATM   11  C           1     -21.202  -9.537  -4.803  0.00  0.00     0.043 C 
BRANCH  10  12
HETATM   12  C           1     -21.190  -8.035  -2.837  0.00  0.00     0.196 C 
HETATM   13  O           1     -21.218  -6.918  -2.275  0.00  0.00    -0.646 OA
HETATM   14  O           1     -20.815  -9.043  -2.200  0.00  0.00    -0.646 OA
ENDBRANCH  10  12
ENDBRANCH   8  10
ENDBRANCH   1   6
BRANCH   1  15
HETATM   15  C           1     -20.533  -5.602  -7.694  0.00  0.00     0.081 C 
BRANCH  15  16
HETATM   16  C           1     -21.091  -4.802  -8.829  0.00  0.00    -0.056 A 
HETATM   17  C           1     -20.275  -4.458  -9.907  0.00  0.00     0.010 A 
HETATM   18  C           1     -20.794  -3.713 -10.965  0.00  0.00     0.037 A 
HETATM   19  C           1     -22.130  -3.313 -10.946  0.00  0.00     0.065 A 
HETATM   20  C           1     -22.947  -3.657  -9.870  0.00  0.00     0.037 A 
HETATM   21  C           1     -22.427  -4.402  -8.811  0.00  0.00     0.010 A 
BRANCH  19  22
HETATM   22  O           1     -22.636  -2.589 -11.975  0.00  0.00    -0.361 OA
HETATM   23  H           1     -21.933  -2.004 -12.304  0.00  0.00     0.217 HD
ENDBRANCH  19  22
ENDBRANCH  15  16
ENDBRANCH   1  15
TORSDOF 7
ENDMDL
MODEL 6
REMARK VINA RESULT:      -6.2      2.889      7.840
REMARK  7 active torsions:
REMARK  status: ('A' for Active; 'I' for Inactive)
REMARK    1  A    between atoms: C_2  and  C_5 
REMARK    2  A    between atoms: C_2  and  N_17 
REMARK    3  A    between atoms: N_4  and  C_11 
REMARK    4  A    between atoms: C_6  and  O_7 
REMARK    5  A    between atoms: C_11  and  C_23 
REMARK    6  A    between atoms: C_11  and  C_16 
REMARK    7  A    between atoms: C_14  and  C_16 
REMARK       I    between atoms: N_17  and  C_23 
ROOT
HETATM    1  C           1     -21.223  -4.302 -10.309  0.00  0.00     0.278 C 
ENDROOT
BRANCH   1   2
HETATM    2  N           1     -20.072  -4.712 -11.180  0.00  0.00    -0.066 N 
HETATM    3  H           1     -19.183  -4.650 -10.634  0.00  0.00     0.275 HD
HETATM    4  H           1     -20.214  -5.696 -11.503  0.00  0.00     0.275 HD
HETATM    5  H           1     -20.017  -4.076 -12.007  0.00  0.00     0.275 HD
ENDBRANCH   1   2
BRANCH   1   6
HETATM    6  C           1     -22.212  -3.506 -11.128  0.00  0.00     0.249 C 
HETATM    7  O           1     -23.058  -2.844 -10.575  0.00  0.00    -0.271 OA
HETATM    8  N           1     -22.151  -3.537 -12.495  0.00  0.00    -0.345 N 
HETATM    9  H           1     -21.442  -4.093 -12.957  0.00  0.00     0.163 HD
BRANCH   8  10
HETATM   10  C           1     -23.101  -2.774 -13.280  0.00  0.00     0.181 C 
HETATM   11  C           1     -22.626  -2.704 -14.725  0.00  0.00     0.043 C 
BRANCH  10  12
HETATM   12  C           1     -24.451  -3.446 -13.227  0.00  0.00     0.196 C 
HETATM   13  O           1     -24.619  -4.556 -13.776  0.00  0.00    -0.646 OA
HETATM   14  O           1     -25.401  -2.893 -12.633  0.00  0.00    -0.646 OA
ENDBRANCH  10  12
ENDBRANCH   8  10
ENDBRANCH   1   6
BRANCH   1  15
HETATM   15  C           1     -20.710  -3.446  -9.160  0.00  0.00     0.081 C 
BRANCH  15  16
HETATM   16  C           1     -20.880  -4.187  -7.870  0.00  0.00    -0.056 A 
HETATM   17  C           1     -22.140  -4.659  -7.499  0.00  0.00     0.010 A 
HETATM   18  C           1     -22.299  -5.350  -6.298  0.00  0.00     0.037 A 
HETATM   19  C           1     -21.199  -5.568  -5.468  0.00  0.00     0.065 A 
HETATM   20  C           1     -19.941  -5.096  -5.839  0.00  0.00     0.037 A 
HETATM   21  C           1     -19.781  -4.406  -7.040  0.00  0.00     0.010 A 
BRANCH  19  22
HETATM   22  O           1     -21.354  -6.239  -4.300  0.00  0.00    -0.361 OA
HETATM   23  H           1     -20.552  -6.104  -3.768  0.00  0.00     0.217 HD
ENDBRANCH  19  22
ENDBRANCH  15  16
ENDBRANCH   1  15
TORSDOF 7
ENDMDL
MODEL 7
REMARK VINA RESULT:      -6.1      2.141      7.308
REMARK  7 active torsions:
REMARK  status: ('A' for Active; 'I' for Inactive)
REMARK    1  A    between atoms: C_2  and  C_5 
REMARK    2  A    between atoms: C_2  and  N_17 
REMARK    3  A    between atoms: N_4  and  C_11 
REMARK    4  A    between atoms: C_6  and  O_7 
REMARK    5  A    between atoms: C_11  and  C_23 
REMARK    6  A    between atoms: C_11  and  C_16 
REMARK    7  A    between atoms: C_14  and  C_16 
REMARK       I    between atoms: N_17  and  C_23 
ROOT
HETATM    1  C           1     -21.326  -3.968  -8.238  0.00  0.00     0.278 C 
ENDROOT
BRANCH   1   2
HETATM    2  N           1     -22.609  -4.048  -7.464  0.00  0.00    -0.066 N 
HETATM    3  H           1     -22.446  -3.719  -6.486  0.00  0.00     0.275 HD
HETATM    4  H           1     -23.329  -3.441  -7.920  0.00  0.00     0.275 HD
HETATM    5  H           1     -22.944  -5.037  -7.447  0.00  0.00     0.275 HD
ENDBRANCH   1   2
BRANCH   1   6
HETATM    6  C           1     -21.633  -3.969  -9.717  0.00  0.00     0.249 C 
HETATM    7  O           1     -20.731  -3.921 -10.520  0.00  0.00    -0.271 OA
HETATM    8  N           1     -22.931  -4.022 -10.148  0.00  0.00    -0.345 N 
HETATM    9  H           1     -23.686  -4.061  -9.474  0.00  0.00     0.163 HD
BRANCH   8  10
HETATM   10  C           1     -23.224  -4.023 -11.567  0.00  0.00     0.181 C 
HETATM   11  C           1     -23.446  -5.453 -12.040  0.00  0.00     0.043 C 
BRANCH  10  12
HETATM   12  C           1     -24.470  -3.211 -11.822  0.00  0.00     0.196 C 
HETATM   13  O           1     -25.318  -3.064 -10.915  0.00  0.00    -0.646 OA
HETATM   14  O           1     -24.656  -2.684 -12.941  0.00  0.00    -0.646 OA
ENDBRANCH  10  12
ENDBRANCH   8  10
ENDBRANCH   1   6
BRANCH   1  15
HETATM   15  C           1     -20.453  -5.168  -7.899  0.00  0.00     0.081 C 
BRANCH  15  16
HETATM   16  C           1     -20.766  -5.638  -6.513  0.00  0.00    -0.056 A 
HETATM   17  C           1     -21.458  -6.835  -6.323  0.00  0.00     0.010 A 
HETATM   18  C           1     -21.749  -7.274  -5.031  0.00  0.00     0.037 A 
HETATM   19  C           1     -21.349  -6.516  -3.931  0.00  0.00     0.065 A 
HETATM   20  C           1     -20.657  -5.321  -4.121  0.00  0.00     0.037 A 
HETATM   21  C           1     -20.366  -4.881  -5.412  0.00  0.00     0.010 A 
BRANCH  19  22
HETATM   22  O           1     -21.632  -6.943  -2.675  0.00  0.00    -0.361 OA
HETATM   23  H           1     -22.207  -7.723  -2.746  0.00  0.00     0.217 HD
ENDBRANCH  19  22
ENDBRANCH  15  16
ENDBRANCH   1  15
TORSDOF 7
ENDMDL
MODEL 8
REMARK VINA RESULT:      -6.0      2.874      8.141
REMARK  7 active torsions:
REMARK  status: ('A' for Active; 'I' for Inactive)
REMARK    1  A    between atoms: C_2  and  C_5 
REMARK    2  A    between atoms: C_2  and  N_17 
REMARK    3  A    between atoms: N_4  and  C_11 
REMARK    4  A    between atoms: C_6  and  O_7 
REMARK    5  A    between atoms: C_11  and  C_23 
REMARK    6  A    between atoms: C_11  and  C_16 
REMARK    7  A    between atoms: C_14  and  C_16 
REMARK       I    between atoms: N_17  and  C_23 
ROOT
HETATM    1  C           1     -21.371  -8.212  -4.577  0.00  0.00     0.278 C 
ENDROOT
BRANCH   1   2
HETATM    2  N           1     -20.589  -8.955  -5.620  0.00  0.00    -0.066 N 
HETATM    3  H           1     -19.716  -8.425  -5.844  0.00  0.00     0.275 HD
HETATM    4  H           1     -20.337  -9.902  -5.257  0.00  0.00     0.275 HD
HETATM    5  H           1     -21.167  -9.053  -6.485  0.00  0.00     0.275 HD
ENDBRANCH   1   2
BRANCH   1   6
HETATM    6  C           1     -21.407  -6.744  -4.929  0.00  0.00     0.249 C 
HETATM    7  O           1     -21.798  -5.939  -4.118  0.00  0.00    -0.271 OA
HETATM    8  N           1     -20.997  -6.326  -6.166  0.00  0.00    -0.345 N 
HETATM    9  H           1     -20.670  -7.001  -6.846  0.00  0.00     0.163 HD
BRANCH   8  10
HETATM   10  C           1     -21.033  -4.916  -6.503  0.00  0.00     0.181 C 
HETATM   11  C           1     -19.693  -4.501  -7.096  0.00  0.00     0.043 C 
BRANCH  10  12
HETATM   12  C           1     -22.127  -4.670  -7.513  0.00  0.00     0.196 C 
HETATM   13  O           1     -21.862  -4.670  -8.735  0.00  0.00    -0.646 OA
HETATM   14  O           1     -23.298  -4.465  -7.128  0.00  0.00    -0.646 OA
ENDBRANCH  10  12
ENDBRANCH   8  10
ENDBRANCH   1   6
BRANCH   1  15
HETATM   15  C           1     -20.706  -8.394  -3.220  0.00  0.00     0.081 C 
BRANCH  15  16
HETATM   16  C           1     -21.639  -9.116  -2.299  0.00  0.00    -0.056 A 
HETATM   17  C           1     -22.187 -10.341  -2.682  0.00  0.00     0.010 A 
HETATM   18  C           1     -23.056 -11.014  -1.824  0.00  0.00     0.037 A 
HETATM   19  C           1     -23.377 -10.463  -0.583  0.00  0.00     0.065 A 
HETATM   20  C           1     -22.829  -9.239  -0.200  0.00  0.00     0.037 A 
HETATM   21  C           1     -21.960  -8.566  -1.058  0.00  0.00     0.010 A 
BRANCH  19  22
HETATM   22  O           1     -24.222 -11.118   0.251  0.00  0.00    -0.361 OA
HETATM   23  H           1     -25.095 -11.152  -0.173  0.00  0.00     0.217 HD
ENDBRANCH  19  22
ENDBRANCH  15  16
ENDBRANCH   1  15
TORSDOF 7
ENDMDL
MODEL 9
REMARK VINA RESULT:      -5.9      3.475      8.013
REMARK  7 active torsions:
REMARK  status: ('A' for Active; 'I' for Inactive)
REMARK    1  A    between atoms: C_2  and  C_5 
REMARK    2  A    between atoms: C_2  and  N_17 
REMARK    3  A    between atoms: N_4  and  C_11 
REMARK    4  A    between atoms: C_6  and  O_7 
REMARK    5  A    between atoms: C_11  and  C_23 
REMARK    6  A    between atoms: C_11  and  C_16 
REMARK    7  A    between atoms: C_14  and  C_16 
REMARK       I    between atoms: N_17  and  C_23 
ROOT
HETATM    1  C           1     -19.680  -9.631  -3.773  0.00  0.00     0.278 C 
ENDROOT
BRANCH   1   2
HETATM    2  N           1     -18.420 -10.208  -4.348  0.00  0.00    -0.066 N 
HETATM    3  H           1     -18.463 -11.251  -4.302  0.00  0.00     0.275 HD
HETATM    4  H           1     -18.323  -9.908  -5.344  0.00  0.00     0.275 HD
HETATM    5  H           1     -17.599  -9.870  -3.797  0.00  0.00     0.275 HD
ENDBRANCH   1   2
BRANCH   1   6
HETATM    6  C           1     -20.440  -8.906  -4.858  0.00  0.00     0.249 C 
HETATM    7  O           1     -21.146  -9.527  -5.617  0.00  0.00    -0.271 OA
HETATM    8  N           1     -20.329  -7.548  -4.982  0.00  0.00    -0.345 N 
HETATM    9  H           1     -19.736  -7.029  -4.346  0.00  0.00     0.163 HD
BRANCH   8  10
HETATM   10  C           1     -21.058  -6.853  -6.025  0.00  0.00     0.181 C 
HETATM   11  C           1     -22.269  -6.156  -5.420  0.00  0.00     0.043 C 
BRANCH  10  12
HETATM   12  C           1     -20.158  -5.828  -6.669  0.00  0.00     0.196 C 
HETATM   13  O           1     -19.732  -4.861  -6.000  0.00  0.00    -0.646 OA
HETATM   14  O           1     -19.838  -5.944  -7.872  0.00  0.00    -0.646 OA
ENDBRANCH  10  12
ENDBRANCH   8  10
ENDBRANCH   1   6
BRANCH   1  15
HETATM   15  C           1     -19.328  -8.653  -2.660  0.00  0.00     0.081 C 
BRANCH  15  16
HETATM   16  C           1     -20.501  -8.493  -1.745  0.00  0.00    -0.056 A 
HETATM   17  C           1     -21.182  -7.276  -1.692  0.00  0.00     0.010 A 
HETATM   18  C           1     -22.276  -7.125  -0.841  0.00  0.00     0.037 A 
HETATM   19  C           1     -22.689  -8.192  -0.042  0.00  0.00     0.065 A 
HETATM   20  C           1     -22.010  -9.408  -0.095  0.00  0.00     0.037 A 
HETATM   21  C           1     -20.916  -9.558  -0.947  0.00  0.00     0.010 A 
BRANCH  19  22
HETATM   22  O           1     -23.753  -8.046   0.786  0.00  0.00    -0.361 OA
HETATM   23  H           1     -24.116  -8.929   0.966  0.00  0.00     0.217 HD
ENDBRANCH  19  22
ENDBRANCH  15  16
ENDBRANCH   1  15
TORSDOF 7
ENDMDL
