MODEL 1
REMARK VINA RESULT:      -7.8      0.000      0.000
REMARK  11 active torsions:
REMARK  status: ('A' for Active; 'I' for Inactive)
REMARK       I    between atoms: N_2  and  C_27 
REMARK       I    between atoms: N_6  and  C_27 
REMARK    1  A    between atoms: N_6  and  C_9 
REMARK    2  A    between atoms: C_9  and  C_23 
REMARK    3  A    between atoms: C_10  and  C_26 
REMARK       I    between atoms: C_10  and  N_11 
REMARK    4  A    between atoms: N_13  and  C_24 
REMARK    5  A    between atoms: C_16  and  C_21 
REMARK       I    between atoms: C_17  and  N_18 
REMARK    6  A    between atoms: C_17  and  C_24 
REMARK    7  A    between atoms: N_18  and  C_21 
REMARK    8  A    between atoms: C_21  and  C_22 
REMARK    9  A    between atoms: C_22  and  C_23 
REMARK   10  A    between atoms: C_24  and  C_25 
REMARK   11  A    between atoms: C_25  and  C_26 
ROOT
HETATM    1  H           1     -22.117  -5.876  -9.275  0.00  0.00     0.163 HD
HETATM    2  C           1     -21.610  -4.738  -7.622  0.00  0.00     0.249 C 
HETATM    3  N           1     -22.091  -4.941  -8.888  0.00  0.00    -0.345 N 
HETATM    4  O           1     -21.579  -3.622  -7.160  0.00  0.00    -0.271 OA
ENDROOT
BRANCH   3   5
HETATM    5  C           1     -22.564  -3.817  -9.673  0.00  0.00     0.185 C 
BRANCH   5   6
HETATM    6  C           1     -24.070  -3.854  -9.748  0.00  0.00     0.196 C 
HETATM    7  O           1     -24.736  -2.846  -9.428  0.00  0.00    -0.646 OA
HETATM    8  O           1     -24.652  -4.892 -10.128  0.00  0.00    -0.646 OA
ENDBRANCH   5   6
BRANCH   5   9
HETATM    9  C           1     -21.982  -3.900 -11.078  0.00  0.00     0.038 C 
BRANCH   9  10
HETATM   10  C           1     -22.357  -2.648 -11.859  0.00  0.00     0.023 C 
BRANCH  10  11
HETATM   11  C           1     -23.218  -3.033 -13.055  0.00  0.00     0.138 C 
BRANCH  11  12
HETATM   12  N           1     -23.916  -1.843 -13.561  0.00  0.00    -0.227 N 
HETATM   13  C           1     -23.657  -1.402 -14.720  0.00  0.00     0.665 C 
HETATM   14  N           1     -22.797  -1.986 -15.442  0.00  0.00    -0.235 N 
HETATM   15  N           1     -24.274  -0.349 -15.167  0.00  0.00    -0.235 N 
HETATM   16  H           1     -22.299  -2.837 -15.080  0.00  0.00     0.174 HD
HETATM   17  H           1     -22.583  -1.621 -16.402  0.00  0.00     0.174 HD
HETATM   18  H           1     -24.984   0.134 -14.571  0.00  0.00     0.174 HD
HETATM   19  H           1     -24.061   0.015 -16.124  0.00  0.00     0.174 HD
HETATM   20  H           1     -24.629  -1.358 -12.962  0.00  0.00     0.177 HD
ENDBRANCH  11  12
ENDBRANCH  10  11
ENDBRANCH   9  10
ENDBRANCH   5   9
ENDBRANCH   3   5
BRANCH   2  21
HETATM   21  C           1     -21.119  -5.908  -6.805  0.00  0.00     0.275 C 
BRANCH  21  22
HETATM   22  N           1     -19.709  -6.236  -7.201  0.00  0.00    -0.066 N 
HETATM   23  H           1     -19.290  -6.882  -6.495  0.00  0.00     0.275 HD
HETATM   24  H           1     -19.710  -6.699  -8.138  0.00  0.00     0.275 HD
HETATM   25  H           1     -19.147  -5.357  -7.246  0.00  0.00     0.275 HD
ENDBRANCH  21  22
BRANCH  21  26
HETATM   26  C           1     -21.159  -5.547  -5.326  0.00  0.00     0.052 C 
BRANCH  26  27
HETATM   27  C           1     -22.086  -6.510  -4.593  0.00  0.00     0.105 C 
BRANCH  27  28
HETATM   28  C           1     -21.684  -6.587  -3.141  0.00  0.00     0.215 C 
HETATM   29  N           1     -22.300  -5.786  -2.218  0.00  0.00    -0.370 N 
HETATM   30  H           1     -22.030  -5.838  -1.243  0.00  0.00     0.159 HD
HETATM   31  H           1     -23.025  -5.143  -2.508  0.00  0.00     0.159 HD
HETATM   32  O           1     -20.819  -7.355  -2.795  0.00  0.00    -0.274 OA
ENDBRANCH  27  28
ENDBRANCH  26  27
ENDBRANCH  21  26
ENDBRANCH   2  21
TORSDOF 11
ENDMDL
MODEL 2
REMARK VINA RESULT:      -6.9      2.194      8.398
REMARK  11 active torsions:
REMARK  status: ('A' for Active; 'I' for Inactive)
REMARK       I    between atoms: N_2  and  C_27 
REMARK       I    between atoms: N_6  and  C_27 
REMARK    1  A    between atoms: N_6  and  C_9 
REMARK    2  A    between atoms: C_9  and  C_23 
REMARK    3  A    between atoms: C_10  and  C_26 
REMARK       I    between atoms: C_10  and  N_11 
REMARK    4  A    between atoms: N_13  and  C_24 
REMARK    5  A    between atoms: C_16  and  C_21 
REMARK       I    between atoms: C_17  and  N_18 
REMARK    6  A    between atoms: C_17  and  C_24 
REMARK    7  A    between atoms: N_18  and  C_21 
REMARK    8  A    between atoms: C_21  and  C_22 
REMARK    9  A    between atoms: C_22  and  C_23 
REMARK   10  A    between atoms: C_24  and  C_25 
REMARK   11  A    between atoms: C_25  and  C_26 
ROOT
HETATM    1  H           1     -22.207  -5.934  -8.420  0.00  0.00     0.163 HD
HETATM    2  C           1     -23.083  -4.118  -8.889  0.00  0.00     0.249 C 
HETATM    3  N           1     -22.161  -4.932  -8.286  0.00  0.00    -0.345 N 
HETATM    4  O           1     -23.029  -2.922  -8.729  0.00  0.00    -0.271 OA
ENDROOT
BRANCH   3   5
HETATM    5  C           1     -21.119  -4.357  -7.458  0.00  0.00     0.185 C 
BRANCH   5   6
HETATM    6  C           1     -19.788  -4.501  -8.152  0.00  0.00     0.196 C 
HETATM    7  O           1     -18.727  -4.366  -7.504  0.00  0.00    -0.646 OA
HETATM    8  O           1     -19.744  -4.754  -9.375  0.00  0.00    -0.646 OA
ENDBRANCH   5   6
BRANCH   5   9
HETATM    9  C           1     -21.076  -5.084  -6.120  0.00  0.00     0.038 C 
BRANCH   9  10
HETATM   10  C           1     -21.178  -6.586  -6.354  0.00  0.00     0.023 C 
BRANCH  10  11
HETATM   11  C           1     -21.512  -7.282  -5.041  0.00  0.00     0.138 C 
BRANCH  11  12
HETATM   12  N           1     -21.940  -6.283  -4.051  0.00  0.00    -0.227 N 
HETATM   13  C           1     -21.834  -6.532  -2.814  0.00  0.00     0.665 C 
HETATM   14  N           1     -21.359  -7.641  -2.430  0.00  0.00    -0.235 N 
HETATM   15  N           1     -22.213  -5.649  -1.939  0.00  0.00    -0.235 N 
HETATM   16  H           1     -21.053  -8.354  -3.137  0.00  0.00     0.174 HD
HETATM   17  H           1     -21.271  -7.847  -1.405  0.00  0.00     0.174 HD
HETATM   18  H           1     -22.605  -4.733  -2.255  0.00  0.00     0.174 HD
HETATM   19  H           1     -22.125  -5.854  -0.917  0.00  0.00     0.174 HD
HETATM   20  H           1     -22.334  -5.364  -4.370  0.00  0.00     0.177 HD
ENDBRANCH  11  12
ENDBRANCH  10  11
ENDBRANCH   9  10
ENDBRANCH   5   9
ENDBRANCH   3   5
BRANCH   2  21
HETATM   21  C           1     -24.167  -4.716  -9.752  0.00  0.00     0.275 C 
BRANCH  21  22
HETATM   22  N           1     -25.355  -3.799  -9.768  0.00  0.00    -0.066 N 
HETATM   23  H           1     -25.951  -3.987  -8.930  0.00  0.00     0.275 HD
HETATM   24  H           1     -25.028  -2.807  -9.746  0.00  0.00     0.275 HD
HETATM   25  H           1     -25.911  -3.965 -10.636  0.00  0.00     0.275 HD
ENDBRANCH  21  22
BRANCH  21  26
HETATM   26  C           1     -23.646  -4.895 -11.172  0.00  0.00     0.052 C 
BRANCH  26  27
HETATM   27  C           1     -23.950  -3.644 -11.987  0.00  0.00     0.105 C 
BRANCH  27  28
HETATM   28  C           1     -22.666  -3.080 -12.541  0.00  0.00     0.215 C 
HETATM   29  N           1     -22.403  -3.169 -13.882  0.00  0.00    -0.370 N 
HETATM   30  H           1     -21.541  -2.792 -14.255  0.00  0.00     0.159 HD
HETATM   31  H           1     -23.070  -3.612 -14.501  0.00  0.00     0.159 HD
HETATM   32  O           1     -21.869  -2.552 -11.803  0.00  0.00    -0.274 OA
ENDBRANCH  27  28
ENDBRANCH  26  27
ENDBRANCH  21  26
ENDBRANCH   2  21
TORSDOF 11
ENDMDL
MODEL 3
REMARK VINA RESULT:      -6.7      2.283      3.385
REMARK  11 active torsions:
REMARK  status: ('A' for Active; 'I' for Inactive)
REMARK       I    between atoms: N_2  and  C_27 
REMARK       I    between atoms: N_6  and  C_27 
REMARK    1  A    between atoms: N_6  and  C_9 
REMARK    2  A    between atoms: C_9  and  C_23 
REMARK    3  A    between atoms: C_10  and  C_26 
REMARK       I    between atoms: C_10  and  N_11 
REMARK    4  A    between atoms: N_13  and  C_24 
REMARK    5  A    between atoms: C_16  and  C_21 
REMARK       I    between atoms: C_17  and  N_18 
REMARK    6  A    between atoms: C_17  and  C_24 
REMARK    7  A    between atoms: N_18  and  C_21 
REMARK    8  A    between atoms: C_21  and  C_22 
REMARK    9  A    between atoms: C_22  and  C_23 
REMARK   10  A    between atoms: C_24  and  C_25 
REMARK   11  A    between atoms: C_25  and  C_26 
ROOT
HETATM    1  H           1     -21.574  -4.099  -6.150  0.00  0.00     0.163 HD
HETATM    2  C           1     -21.210  -6.135  -6.193  0.00  0.00     0.249 C 
HETATM    3  N           1     -21.515  -4.918  -6.741  0.00  0.00    -0.345 N 
HETATM    4  O           1     -21.140  -7.114  -6.897  0.00  0.00    -0.271 OA
ENDROOT
BRANCH   3   5
HETATM    5  C           1     -21.753  -4.804  -8.166  0.00  0.00     0.185 C 
BRANCH   5   6
HETATM    6  C           1     -20.495  -4.331  -8.850  0.00  0.00     0.196 C 
HETATM    7  O           1     -19.563  -3.844  -8.175  0.00  0.00    -0.646 OA
HETATM    8  O           1     -20.384  -4.425 -10.091  0.00  0.00    -0.646 OA
ENDBRANCH   5   6
BRANCH   5   9
HETATM    9  C           1     -22.874  -3.803  -8.414  0.00  0.00     0.038 C 
BRANCH   9  10
HETATM   10  C           1     -23.877  -4.394  -9.396  0.00  0.00     0.023 C 
BRANCH  10  11
HETATM   11  C           1     -24.086  -3.427 -10.553  0.00  0.00     0.138 C 
BRANCH  11  12
HETATM   12  N           1     -23.022  -3.617 -11.549  0.00  0.00    -0.227 N 
HETATM   13  C           1     -23.130  -3.094 -12.698  0.00  0.00     0.665 C 
HETATM   14  N           1     -24.153  -2.407 -12.987  0.00  0.00    -0.235 N 
HETATM   15  N           1     -22.189  -3.262 -13.579  0.00  0.00    -0.235 N 
HETATM   16  H           1     -24.913  -2.272 -12.276  0.00  0.00     0.174 HD
HETATM   17  H           1     -24.242  -1.974 -13.939  0.00  0.00     0.174 HD
HETATM   18  H           1     -21.344  -3.829 -13.340  0.00  0.00     0.174 HD
HETATM   19  H           1     -22.277  -2.831 -14.527  0.00  0.00     0.174 HD
HETATM   20  H           1     -22.173  -4.186 -11.309  0.00  0.00     0.177 HD
ENDBRANCH  11  12
ENDBRANCH  10  11
ENDBRANCH   9  10
ENDBRANCH   5   9
ENDBRANCH   3   5
BRANCH   2  21
HETATM   21  C           1     -20.961  -6.254  -4.709  0.00  0.00     0.275 C 
BRANCH  21  22
HETATM   22  N           1     -22.270  -6.200  -3.978  0.00  0.00    -0.066 N 
HETATM   23  H           1     -22.910  -5.526  -4.457  0.00  0.00     0.275 HD
HETATM   24  H           1     -22.706  -7.150  -3.975  0.00  0.00     0.275 HD
HETATM   25  H           1     -22.108  -5.887  -2.995  0.00  0.00     0.275 HD
ENDBRANCH  21  22
BRANCH  21  26
HETATM   26  C           1     -20.270  -7.579  -4.414  0.00  0.00     0.052 C 
BRANCH  26  27
HETATM   27  C           1     -21.212  -8.478  -3.622  0.00  0.00     0.105 C 
BRANCH  27  28
HETATM   28  C           1     -21.517  -9.718  -4.426  0.00  0.00     0.215 C 
HETATM   29  N           1     -20.966  -9.880  -5.668  0.00  0.00    -0.370 N 
HETATM   30  H           1     -21.170 -10.712  -6.209  0.00  0.00     0.159 HD
HETATM   31  H           1     -20.352  -9.170  -6.047  0.00  0.00     0.159 HD
HETATM   32  O           1     -22.249 -10.566  -3.974  0.00  0.00    -0.274 OA
ENDBRANCH  27  28
ENDBRANCH  26  27
ENDBRANCH  21  26
ENDBRANCH   2  21
TORSDOF 11
ENDMDL
MODEL 4
REMARK VINA RESULT:      -6.6      2.061      9.400
REMARK  11 active torsions:
REMARK  status: ('A' for Active; 'I' for Inactive)
REMARK       I    between atoms: N_2  and  C_27 
REMARK       I    between atoms: N_6  and  C_27 
REMARK    1  A    between atoms: N_6  and  C_9 
REMARK    2  A    between atoms: C_9  and  C_23 
REMARK    3  A    between atoms: C_10  and  C_26 
REMARK       I    between atoms: C_10  and  N_11 
REMARK    4  A    between atoms: N_13  and  C_24 
REMARK    5  A    between atoms: C_16  and  C_21 
REMARK       I    between atoms: C_17  and  N_18 
REMARK    6  A    between atoms: C_17  and  C_24 
REMARK    7  A    between atoms: N_18  and  C_21 
REMARK    8  A    between atoms: C_21  and  C_22 
REMARK    9  A    between atoms: C_22  and  C_23 
REMARK   10  A    between atoms: C_24  and  C_25 
REMARK   11  A    between atoms: C_25  and  C_26 
ROOT
HETATM    1  H           1     -22.693  -6.305  -7.509  0.00  0.00     0.163 HD
HETATM    2  C           1     -22.469  -4.291  -7.931  0.00  0.00     0.249 C 
HETATM    3  N           1     -22.237  -5.445  -7.232  0.00  0.00    -0.345 N 
HETATM    4  O           1     -21.925  -3.264  -7.600  0.00  0.00    -0.271 OA
ENDROOT
BRANCH   3   5
HETATM    5  C           1     -21.337  -5.435  -6.095  0.00  0.00     0.185 C 
BRANCH   5   6
HETATM    6  C           1     -19.943  -5.780  -6.554  0.00  0.00     0.196 C 
HETATM    7  O           1     -19.594  -6.977  -6.650  0.00  0.00    -0.646 OA
HETATM    8  O           1     -19.134  -4.870  -6.839  0.00  0.00    -0.646 OA
ENDBRANCH   5   6
BRANCH   5   9
HETATM    9  C           1     -21.804  -6.460  -5.070  0.00  0.00     0.038 C 
BRANCH   9  10
HETATM   10  C           1     -21.325  -6.049  -3.684  0.00  0.00     0.023 C 
BRANCH  10  11
HETATM   11  C           1     -21.224  -7.282  -2.795  0.00  0.00     0.138 C 
BRANCH  11  12
HETATM   12  N           1     -21.952  -7.042  -1.541  0.00  0.00    -0.227 N 
HETATM   13  C           1     -22.287  -8.019  -0.807  0.00  0.00     0.665 C 
HETATM   14  N           1     -21.995  -9.200  -1.154  0.00  0.00    -0.235 N 
HETATM   15  N           1     -22.931  -7.807   0.302  0.00  0.00    -0.235 N 
HETATM   16  H           1     -21.475  -9.371  -2.050  0.00  0.00     0.174 HD
HETATM   17  H           1     -22.272 -10.009  -0.545  0.00  0.00     0.174 HD
HETATM   18  H           1     -23.172  -6.831   0.589  0.00  0.00     0.174 HD
HETATM   19  H           1     -23.207  -8.612   0.909  0.00  0.00     0.174 HD
HETATM   20  H           1     -22.194  -6.062  -1.253  0.00  0.00     0.177 HD
ENDBRANCH  11  12
ENDBRANCH  10  11
ENDBRANCH   9  10
ENDBRANCH   5   9
ENDBRANCH   3   5
BRANCH   2  21
HETATM   21  C           1     -23.406  -4.302  -9.115  0.00  0.00     0.275 C 
BRANCH  21  22
HETATM   22  N           1     -24.438  -3.226  -8.944  0.00  0.00    -0.066 N 
HETATM   23  H           1     -25.300  -3.483  -9.476  0.00  0.00     0.275 HD
HETATM   24  H           1     -24.672  -3.127  -7.930  0.00  0.00     0.275 HD
HETATM   25  H           1     -24.062  -2.322  -9.305  0.00  0.00     0.275 HD
ENDBRANCH  21  22
BRANCH  21  26
HETATM   26  C           1     -22.615  -4.047 -10.391  0.00  0.00     0.052 C 
BRANCH  26  27
HETATM   27  C           1     -23.334  -4.689 -11.571  0.00  0.00     0.105 C 
BRANCH  27  28
HETATM   28  C           1     -23.869  -3.611 -12.481  0.00  0.00     0.215 C 
HETATM   29  N           1     -23.307  -3.414 -13.713  0.00  0.00    -0.370 N 
HETATM   30  H           1     -23.665  -2.690 -14.324  0.00  0.00     0.159 HD
HETATM   31  H           1     -22.532  -3.991 -14.015  0.00  0.00     0.159 HD
HETATM   32  O           1     -24.793  -2.921 -12.121  0.00  0.00    -0.274 OA
ENDBRANCH  27  28
ENDBRANCH  26  27
ENDBRANCH  21  26
ENDBRANCH   2  21
TORSDOF 11
ENDMDL
MODEL 5
REMARK VINA RESULT:      -6.6      2.042      2.606
REMARK  11 active torsions:
REMARK  status: ('A' for Active; 'I' for Inactive)
REMARK       I    between atoms: N_2  and  C_27 
REMARK       I    between atoms: N_6  and  C_27 
REMARK    1  A    between atoms: N_6  and  C_9 
REMARK    2  A    between atoms: C_9  and  C_23 
REMARK    3  A    between atoms: C_10  and  C_26 
REMARK       I    between atoms: C_10  and  N_11 
REMARK    4  A    between atoms: N_13  and  C_24 
REMARK    5  A    between atoms: C_16  and  C_21 
REMARK       I    between atoms: C_17  and  N_18 
REMARK    6  A    between atoms: C_17  and  C_24 
REMARK    7  A    between atoms: N_18  and  C_21 
REMARK    8  A    between atoms: C_21  and  C_22 
REMARK    9  A    between atoms: C_22  and  C_23 
REMARK   10  A    between atoms: C_24  and  C_25 
REMARK   11  A    between atoms: C_25  and  C_26 
ROOT
HETATM    1  H           1     -22.133  -4.286  -6.739  0.00  0.00     0.163 HD
HETATM    2  C           1     -20.710  -5.786  -6.840  0.00  0.00     0.249 C 
HETATM    3  N           1     -21.602  -4.885  -7.358  0.00  0.00    -0.345 N 
HETATM    4  O           1     -20.076  -6.501  -7.579  0.00  0.00    -0.271 OA
ENDROOT
BRANCH   3   5
HETATM    5  C           1     -21.785  -4.790  -8.793  0.00  0.00     0.185 C 
BRANCH   5   6
HETATM    6  C           1     -20.539  -4.220  -9.423  0.00  0.00     0.196 C 
HETATM    7  O           1     -19.827  -3.416  -8.782  0.00  0.00    -0.646 OA
HETATM    8  O           1     -20.218  -4.549 -10.585  0.00  0.00    -0.646 OA
ENDBRANCH   5   6
BRANCH   5   9
HETATM    9  C           1     -22.969  -3.880  -9.094  0.00  0.00     0.038 C 
BRANCH   9  10
HETATM   10  C           1     -24.042  -4.667  -9.834  0.00  0.00     0.023 C 
BRANCH  10  11
HETATM   11  C           1     -23.655  -4.795 -11.302  0.00  0.00     0.138 C 
BRANCH  11  12
HETATM   12  N           1     -24.077  -3.588 -12.027  0.00  0.00    -0.227 N 
HETATM   13  C           1     -23.263  -2.995 -12.796  0.00  0.00     0.665 C 
HETATM   14  N           1     -22.088  -3.442 -12.940  0.00  0.00    -0.235 N 
HETATM   15  N           1     -23.636  -1.927 -13.437  0.00  0.00    -0.235 N 
HETATM   16  H           1     -21.787  -4.304 -12.422  0.00  0.00     0.174 HD
HETATM   17  H           1     -21.414  -2.950 -13.577  0.00  0.00     0.174 HD
HETATM   18  H           1     -24.606  -1.558 -13.319  0.00  0.00     0.174 HD
HETATM   19  H           1     -22.965  -1.438 -14.072  0.00  0.00     0.174 HD
HETATM   20  H           1     -25.051  -3.217 -11.908  0.00  0.00     0.177 HD
ENDBRANCH  11  12
ENDBRANCH  10  11
ENDBRANCH   9  10
ENDBRANCH   5   9
ENDBRANCH   3   5
BRANCH   2  21
HETATM   21  C           1     -20.519  -5.885  -5.347  0.00  0.00     0.275 C 
BRANCH  21  22
HETATM   22  N           1     -20.158  -4.535  -4.799  0.00  0.00    -0.066 N 
HETATM   23  H           1     -20.193  -4.562  -3.755  0.00  0.00     0.275 HD
HETATM   24  H           1     -19.192  -4.282  -5.108  0.00  0.00     0.275 HD
HETATM   25  H           1     -20.836  -3.823  -5.152  0.00  0.00     0.275 HD
ENDBRANCH  21  22
BRANCH  21  26
HETATM   26  C           1     -21.811  -6.365  -4.699  0.00  0.00     0.052 C 
BRANCH  26  27
HETATM   27  C           1     -21.501  -7.491  -3.720  0.00  0.00     0.105 C 
BRANCH  27  28
HETATM   28  C           1     -21.653  -6.984  -2.307  0.00  0.00     0.215 C 
HETATM   29  N           1     -22.266  -5.783  -2.074  0.00  0.00    -0.370 N 
HETATM   30  H           1     -22.368  -5.441  -1.126  0.00  0.00     0.159 HD
HETATM   31  H           1     -22.619  -5.235  -2.848  0.00  0.00     0.159 HD
HETATM   32  O           1     -21.231  -7.637  -1.383  0.00  0.00    -0.274 OA
ENDBRANCH  27  28
ENDBRANCH  26  27
ENDBRANCH  21  26
ENDBRANCH   2  21
TORSDOF 11
ENDMDL
MODEL 6
REMARK VINA RESULT:      -6.5      2.012      2.799
REMARK  11 active torsions:
REMARK  status: ('A' for Active; 'I' for Inactive)
REMARK       I    between atoms: N_2  and  C_27 
REMARK       I    between atoms: N_6  and  C_27 
REMARK    1  A    between atoms: N_6  and  C_9 
REMARK    2  A    between atoms: C_9  and  C_23 
REMARK    3  A    between atoms: C_10  and  C_26 
REMARK       I    between atoms: C_10  and  N_11 
REMARK    4  A    between atoms: N_13  and  C_24 
REMARK    5  A    between atoms: C_16  and  C_21 
REMARK       I    between atoms: C_17  and  N_18 
REMARK    6  A    between atoms: C_17  and  C_24 
REMARK    7  A    between atoms: N_18  and  C_21 
REMARK    8  A    between atoms: C_21  and  C_22 
REMARK    9  A    between atoms: C_22  and  C_23 
REMARK   10  A    between atoms: C_24  and  C_25 
REMARK   11  A    between atoms: C_25  and  C_26 
ROOT
HETATM    1  H           1     -21.722  -7.208  -7.717  0.00  0.00     0.163 HD
HETATM    2  C           1     -20.907  -6.581  -5.921  0.00  0.00     0.249 C 
HETATM    3  N           1     -21.402  -6.408  -7.186  0.00  0.00    -0.345 N 
HETATM    4  O           1     -20.524  -5.627  -5.287  0.00  0.00    -0.271 OA
ENDROOT
BRANCH   3   5
HETATM    5  C           1     -21.467  -5.080  -7.764  0.00  0.00     0.185 C 
BRANCH   5   6
HETATM    6  C           1     -22.856  -4.522  -7.585  0.00  0.00     0.196 C 
HETATM    7  O           1     -23.464  -4.692  -6.506  0.00  0.00    -0.646 OA
HETATM    8  O           1     -23.401  -3.890  -8.516  0.00  0.00    -0.646 OA
ENDBRANCH   5   6
BRANCH   5   9
HETATM    9  C           1     -21.137  -5.157  -9.249  0.00  0.00     0.038 C 
BRANCH   9  10
HETATM   10  C           1     -20.176  -4.034  -9.616  0.00  0.00     0.023 C 
BRANCH  10  11
HETATM   11  C           1     -20.505  -3.519 -11.011  0.00  0.00     0.138 C 
BRANCH  11  12
HETATM   12  N           1     -21.891  -3.031 -11.039  0.00  0.00    -0.227 N 
HETATM   13  C           1     -22.543  -3.039 -12.125  0.00  0.00     0.665 C 
HETATM   14  N           1     -22.002  -3.468 -13.185  0.00  0.00    -0.235 N 
HETATM   15  N           1     -23.769  -2.606 -12.149  0.00  0.00    -0.235 N 
HETATM   16  H           1     -21.012  -3.817 -13.165  0.00  0.00     0.174 HD
HETATM   17  H           1     -22.543  -3.474 -14.085  0.00  0.00     0.174 HD
HETATM   18  H           1     -24.217  -2.252 -11.274  0.00  0.00     0.174 HD
HETATM   19  H           1     -24.308  -2.613 -13.045  0.00  0.00     0.174 HD
HETATM   20  H           1     -22.340  -2.675 -10.159  0.00  0.00     0.177 HD
ENDBRANCH  11  12
ENDBRANCH  10  11
ENDBRANCH   9  10
ENDBRANCH   5   9
ENDBRANCH   3   5
BRANCH   2  21
HETATM   21  C           1     -20.839  -7.963  -5.320  0.00  0.00     0.275 C 
BRANCH  21  22
HETATM   22  N           1     -19.459  -8.208  -4.785  0.00  0.00    -0.066 N 
HETATM   23  H           1     -18.952  -7.298  -4.698  0.00  0.00     0.275 HD
HETATM   24  H           1     -19.526  -8.660  -3.845  0.00  0.00     0.275 HD
HETATM   25  H           1     -18.938  -8.835  -5.438  0.00  0.00     0.275 HD
ENDBRANCH  21  22
BRANCH  21  26
HETATM   26  C           1     -21.849  -8.074  -4.185  0.00  0.00     0.052 C 
BRANCH  26  27
HETATM   27  C           1     -21.120  -8.020  -2.848  0.00  0.00     0.105 C 
BRANCH  27  28
HETATM   28  C           1     -21.799  -7.020  -1.945  0.00  0.00     0.215 C 
HETATM   29  N           1     -22.295  -5.856  -2.466  0.00  0.00    -0.370 N 
HETATM   30  H           1     -22.750  -5.184  -1.861  0.00  0.00     0.159 HD
HETATM   31  H           1     -22.208  -5.666  -3.456  0.00  0.00     0.159 HD
HETATM   32  O           1     -21.902  -7.246  -0.763  0.00  0.00    -0.274 OA
ENDBRANCH  27  28
ENDBRANCH  26  27
ENDBRANCH  21  26
ENDBRANCH   2  21
TORSDOF 11
ENDMDL
MODEL 7
REMARK VINA RESULT:      -6.5      3.126      9.333
REMARK  11 active torsions:
REMARK  status: ('A' for Active; 'I' for Inactive)
REMARK       I    between atoms: N_2  and  C_27 
REMARK       I    between atoms: N_6  and  C_27 
REMARK    1  A    between atoms: N_6  and  C_9 
REMARK    2  A    between atoms: C_9  and  C_23 
REMARK    3  A    between atoms: C_10  and  C_26 
REMARK       I    between atoms: C_10  and  N_11 
REMARK    4  A    between atoms: N_13  and  C_24 
REMARK    5  A    between atoms: C_16  and  C_21 
REMARK       I    between atoms: C_17  and  N_18 
REMARK    6  A    between atoms: C_17  and  C_24 
REMARK    7  A    between atoms: N_18  and  C_21 
REMARK    8  A    between atoms: C_21  and  C_22 
REMARK    9  A    between atoms: C_22  and  C_23 
REMARK   10  A    between atoms: C_24  and  C_25 
REMARK   11  A    between atoms: C_25  and  C_26 
ROOT
HETATM    1  H           1     -21.471  -6.726  -7.110  0.00  0.00     0.163 HD
HETATM    2  C           1     -20.657  -4.939  -6.457  0.00  0.00     0.249 C 
HETATM    3  N           1     -20.994  -6.262  -6.348  0.00  0.00    -0.345 N 
HETATM    4  O           1     -20.087  -4.384  -5.548  0.00  0.00    -0.271 OA
ENDROOT
BRANCH   3   5
HETATM    5  C           1     -20.666  -6.995  -5.141  0.00  0.00     0.185 C 
BRANCH   5   6
HETATM    6  C           1     -20.258  -8.402  -5.503  0.00  0.00     0.196 C 
HETATM    7  O           1     -19.049  -8.685  -5.643  0.00  0.00    -0.646 OA
HETATM    8  O           1     -21.129  -9.284  -5.665  0.00  0.00    -0.646 OA
ENDBRANCH   5   6
BRANCH   5   9
HETATM    9  C           1     -21.884  -7.038  -4.228  0.00  0.00     0.038 C 
BRANCH   9  10
HETATM   10  C           1     -21.572  -6.310  -2.928  0.00  0.00     0.023 C 
BRANCH  10  11
HETATM   11  C           1     -21.288  -7.327  -1.831  0.00  0.00     0.138 C 
BRANCH  11  12
HETATM   12  N           1     -22.256  -7.154  -0.739  0.00  0.00    -0.227 N 
HETATM   13  C           1     -22.738  -8.169  -0.154  0.00  0.00     0.665 C 
HETATM   14  N           1     -22.387  -9.331  -0.510  0.00  0.00    -0.235 N 
HETATM   15  N           1     -23.595  -8.016   0.812  0.00  0.00    -0.235 N 
HETATM   16  H           1     -21.695  -9.455  -1.290  0.00  0.00     0.174 HD
HETATM   17  H           1     -22.787 -10.172  -0.025  0.00  0.00     0.174 HD
HETATM   18  H           1     -23.885  -7.056   1.107  0.00  0.00     0.174 HD
HETATM   19  H           1     -23.993  -8.853   1.295  0.00  0.00     0.174 HD
HETATM   20  H           1     -22.548  -6.190  -0.443  0.00  0.00     0.177 HD
ENDBRANCH  11  12
ENDBRANCH  10  11
ENDBRANCH   9  10
ENDBRANCH   5   9
ENDBRANCH   3   5
BRANCH   2  21
HETATM   21  C           1     -20.997  -4.175  -7.713  0.00  0.00     0.275 C 
BRANCH  21  22
HETATM   22  N           1     -20.326  -4.822  -8.889  0.00  0.00    -0.066 N 
HETATM   23  H           1     -20.825  -5.708  -9.132  0.00  0.00     0.275 HD
HETATM   24  H           1     -20.354  -4.172  -9.707  0.00  0.00     0.275 HD
HETATM   25  H           1     -19.333  -5.038  -8.648  0.00  0.00     0.275 HD
ENDBRANCH  21  22
BRANCH  21  26
HETATM   26  C           1     -22.506  -4.186  -7.922  0.00  0.00     0.052 C 
BRANCH  26  27
HETATM   27  C           1     -22.834  -3.604  -9.292  0.00  0.00     0.105 C 
BRANCH  27  28
HETATM   28  C           1     -24.033  -4.316  -9.866  0.00  0.00     0.215 C 
HETATM   29  N           1     -25.291  -3.823  -9.648  0.00  0.00    -0.370 N 
HETATM   30  H           1     -26.096  -4.300 -10.033  0.00  0.00     0.159 HD
HETATM   31  H           1     -25.417  -2.980  -9.102  0.00  0.00     0.159 HD
HETATM   32  O           1     -23.883  -5.322 -10.518  0.00  0.00    -0.274 OA
ENDBRANCH  27  28
ENDBRANCH  26  27
ENDBRANCH  21  26
ENDBRANCH   2  21
TORSDOF 11
ENDMDL
MODEL 8
REMARK VINA RESULT:      -6.5      2.869      9.713
REMARK  11 active torsions:
REMARK  status: ('A' for Active; 'I' for Inactive)
REMARK       I    between atoms: N_2  and  C_27 
REMARK       I    between atoms: N_6  and  C_27 
REMARK    1  A    between atoms: N_6  and  C_9 
REMARK    2  A    between atoms: C_9  and  C_23 
REMARK    3  A    between atoms: C_10  and  C_26 
REMARK       I    between atoms: C_10  and  N_11 
REMARK    4  A    between atoms: N_13  and  C_24 
REMARK    5  A    between atoms: C_16  and  C_21 
REMARK       I    between atoms: C_17  and  N_18 
REMARK    6  A    between atoms: C_17  and  C_24 
REMARK    7  A    between atoms: N_18  and  C_21 
REMARK    8  A    between atoms: C_21  and  C_22 
REMARK    9  A    between atoms: C_22  and  C_23 
REMARK   10  A    between atoms: C_24  and  C_25 
REMARK   11  A    between atoms: C_25  and  C_26 
ROOT
HETATM    1  H           1     -21.826  -7.199  -6.330  0.00  0.00     0.163 HD
HETATM    2  C           1     -21.000  -5.302  -6.273  0.00  0.00     0.249 C 
HETATM    3  N           1     -21.287  -6.546  -5.776  0.00  0.00    -0.345 N 
HETATM    4  O           1     -20.357  -4.521  -5.613  0.00  0.00    -0.271 OA
ENDROOT
BRANCH   3   5
HETATM    5  C           1     -20.819  -6.925  -4.457  0.00  0.00     0.185 C 
BRANCH   5   6
HETATM    6  C           1     -20.091  -8.243  -4.542  0.00  0.00     0.196 C 
HETATM    7  O           1     -19.663  -8.651  -5.643  0.00  0.00    -0.646 OA
HETATM    8  O           1     -19.918  -8.930  -3.512  0.00  0.00    -0.646 OA
ENDBRANCH   5   6
BRANCH   5   9
HETATM    9  C           1     -22.008  -7.059  -3.516  0.00  0.00     0.038 C 
BRANCH   9  10
HETATM   10  C           1     -21.891  -6.034  -2.396  0.00  0.00     0.023 C 
BRANCH  10  11
HETATM   11  C           1     -22.268  -6.684  -1.072  0.00  0.00     0.138 C 
BRANCH  11  12
HETATM   12  N           1     -22.001  -8.128  -1.140  0.00  0.00    -0.227 N 
HETATM   13  C           1     -22.638  -8.925  -0.391  0.00  0.00     0.665 C 
HETATM   14  N           1     -23.505  -8.480   0.416  0.00  0.00    -0.235 N 
HETATM   15  N           1     -22.401 -10.202  -0.451  0.00  0.00    -0.235 N 
HETATM   16  H           1     -23.697  -7.448   0.465  0.00  0.00     0.174 HD
HETATM   17  H           1     -24.034  -9.141   1.037  0.00  0.00     0.174 HD
HETATM   18  H           1     -21.685 -10.571  -1.117  0.00  0.00     0.174 HD
HETATM   19  H           1     -22.927 -10.861   0.167  0.00  0.00     0.174 HD
HETATM   20  H           1     -21.281  -8.497  -1.809  0.00  0.00     0.177 HD
ENDBRANCH  11  12
ENDBRANCH  10  11
ENDBRANCH   9  10
ENDBRANCH   5   9
ENDBRANCH   3   5
BRANCH   2  21
HETATM   21  C           1     -21.487  -4.908  -7.646  0.00  0.00     0.275 C 
BRANCH  21  22
HETATM   22  N           1     -22.704  -4.039  -7.513  0.00  0.00    -0.066 N 
HETATM   23  H           1     -23.542  -4.557  -7.861  0.00  0.00     0.275 HD
HETATM   24  H           1     -22.843  -3.788  -6.508  0.00  0.00     0.275 HD
HETATM   25  H           1     -22.573  -3.169  -8.076  0.00  0.00     0.275 HD
ENDBRANCH  21  22
BRANCH  21  26
HETATM   26  C           1     -20.392  -4.138  -8.373  0.00  0.00     0.052 C 
BRANCH  26  27
HETATM   27  C           1     -20.281  -4.644  -9.806  0.00  0.00     0.105 C 
BRANCH  27  28
HETATM   28  C           1     -21.061  -3.733 -10.722  0.00  0.00     0.215 C 
HETATM   29  N           1     -20.399  -2.906 -11.589  0.00  0.00    -0.370 N 
HETATM   30  H           1     -20.921  -2.294 -12.203  0.00  0.00     0.159 HD
HETATM   31  H           1     -19.387  -2.906 -11.616  0.00  0.00     0.159 HD
HETATM   32  O           1     -22.268  -3.733 -10.689  0.00  0.00    -0.274 OA
ENDBRANCH  27  28
ENDBRANCH  26  27
ENDBRANCH  21  26
ENDBRANCH   2  21
TORSDOF 11
ENDMDL
MODEL 9
REMARK VINA RESULT:      -6.3      3.635      9.676
REMARK  11 active torsions:
REMARK  status: ('A' for Active; 'I' for Inactive)
REMARK       I    between atoms: N_2  and  C_27 
REMARK       I    between atoms: N_6  and  C_27 
REMARK    1  A    between atoms: N_6  and  C_9 
REMARK    2  A    between atoms: C_9  and  C_23 
REMARK    3  A    between atoms: C_10  and  C_26 
REMARK       I    between atoms: C_10  and  N_11 
REMARK    4  A    between atoms: N_13  and  C_24 
REMARK    5  A    between atoms: C_16  and  C_21 
REMARK       I    between atoms: C_17  and  N_18 
REMARK    6  A    between atoms: C_17  and  C_24 
REMARK    7  A    between atoms: N_18  and  C_21 
REMARK    8  A    between atoms: C_21  and  C_22 
REMARK    9  A    between atoms: C_22  and  C_23 
REMARK   10  A    between atoms: C_24  and  C_25 
REMARK   11  A    between atoms: C_25  and  C_26 
ROOT
HETATM    1  H           1     -19.691  -6.829  -4.908  0.00  0.00     0.163 HD
HETATM    2  C           1     -21.304  -5.808  -5.708  0.00  0.00     0.249 C 
HETATM    3  N           1     -20.698  -6.724  -4.890  0.00  0.00    -0.345 N 
HETATM    4  O           1     -22.505  -5.682  -5.688  0.00  0.00    -0.271 OA
ENDROOT
BRANCH   3   5
HETATM    5  C           1     -21.498  -7.542  -4.000  0.00  0.00     0.185 C 
BRANCH   5   6
HETATM    6  C           1     -21.560  -6.892  -2.640  0.00  0.00     0.196 C 
HETATM    7  O           1     -20.792  -7.272  -1.731  0.00  0.00    -0.646 OA
HETATM    8  O           1     -22.381  -5.975  -2.422  0.00  0.00    -0.646 OA
ENDBRANCH   5   6
BRANCH   5   9
HETATM    9  C           1     -20.867  -8.923  -3.876  0.00  0.00     0.038 C 
BRANCH   9  10
HETATM   10  C           1     -21.961  -9.973  -3.742  0.00  0.00     0.023 C 
BRANCH  10  11
HETATM   11  C           1     -21.879 -10.619  -2.366  0.00  0.00     0.138 C 
BRANCH  11  12
HETATM   12  N           1     -22.877 -10.009  -1.476  0.00  0.00    -0.227 N 
HETATM   13  C           1     -22.532  -9.587  -0.332  0.00  0.00     0.665 C 
HETATM   14  N           1     -21.328  -9.693   0.044  0.00  0.00    -0.235 N 
HETATM   15  N           1     -23.414  -9.047   0.454  0.00  0.00    -0.235 N 
HETATM   16  H           1     -20.615 -10.129  -0.591  0.00  0.00     0.174 HD
HETATM   17  H           1     -21.043  -9.343   0.992  0.00  0.00     0.174 HD
HETATM   18  H           1     -24.409  -8.960   0.144  0.00  0.00     0.174 HD
HETATM   19  H           1     -23.130  -8.699   1.398  0.00  0.00     0.174 HD
HETATM   20  H           1     -23.875  -9.921  -1.788  0.00  0.00     0.177 HD
ENDBRANCH  11  12
ENDBRANCH  10  11
ENDBRANCH   9  10
ENDBRANCH   5   9
ENDBRANCH   3   5
BRANCH   2  21
HETATM   21  C           1     -20.471  -4.956  -6.634  0.00  0.00     0.275 C 
BRANCH  21  22
HETATM   22  N           1     -19.951  -5.803  -7.758  0.00  0.00    -0.066 N 
HETATM   23  H           1     -20.354  -6.764  -7.686  0.00  0.00     0.275 HD
HETATM   24  H           1     -20.229  -5.377  -8.672  0.00  0.00     0.275 HD
HETATM   25  H           1     -18.909  -5.857  -7.700  0.00  0.00     0.275 HD
ENDBRANCH  21  22
BRANCH  21  26
HETATM   26  C           1     -21.329  -3.833  -7.201  0.00  0.00     0.052 C 
BRANCH  26  27
HETATM   27  C           1     -21.512  -4.039  -8.700  0.00  0.00     0.105 C 
BRANCH  27  28
HETATM   28  C           1     -22.959  -4.349  -8.992  0.00  0.00     0.215 C 
HETATM   29  N           1     -23.920  -4.065  -8.060  0.00  0.00    -0.370 N 
HETATM   30  H           1     -24.892  -4.273  -8.255  0.00  0.00     0.159 HD
HETATM   31  H           1     -23.662  -3.647  -7.176  0.00  0.00     0.159 HD
HETATM   32  O           1     -23.269  -4.849 -10.047  0.00  0.00    -0.274 OA
ENDBRANCH  27  28
ENDBRANCH  26  27
ENDBRANCH  21  26
ENDBRANCH   2  21
TORSDOF 11
ENDMDL
