MODEL 1
REMARK VINA RESULT:      -7.7      0.000      0.000
REMARK  8 active torsions:
REMARK  status: ('A' for Active; 'I' for Inactive)
REMARK    1  A    between atoms: C_1  and  C_2 
REMARK    2  A    between atoms: C_1  and  C_15 
REMARK    3  A    between atoms: C_2  and  C_3 
REMARK    4  A    between atoms: C_2  and  N_20 
REMARK       I    between atoms: C_3  and  N_5 
REMARK    5  A    between atoms: C_4  and  C_22 
REMARK    6  A    between atoms: N_5  and  C_22 
REMARK    7  A    between atoms: O_13  and  C_16 
REMARK    8  A    between atoms: C_16  and  C_22 
ROOT
HETATM    1  C           1     -35.934  -0.560 -11.151  0.00  0.00     0.278 C 
ENDROOT
BRANCH   1   2
HETATM    2  C           1     -36.340  -1.955 -10.695  0.00  0.00     0.081 C 
BRANCH   2   3
HETATM    3  C           1     -35.217  -2.911 -10.949  0.00  0.00    -0.056 A 
HETATM    4  C           1     -35.450  -4.286 -10.915  0.00  0.00     0.007 A 
HETATM    5  C           1     -34.402  -5.177 -11.152  0.00  0.00     0.001 A 
HETATM    6  C           1     -33.123  -4.692 -11.423  0.00  0.00     0.000 A 
HETATM    7  C           1     -32.890  -3.319 -11.458  0.00  0.00     0.001 A 
HETATM    8  C           1     -33.937  -2.428 -11.220  0.00  0.00     0.007 A 
ENDBRANCH   2   3
ENDBRANCH   1   2
BRANCH   1   9
HETATM    9  C           1     -36.511  -0.291 -12.520  0.00  0.00     0.249 C 
HETATM   10  N           1     -35.687   0.083 -13.549  0.00  0.00    -0.343 N 
HETATM   11  H           1     -34.692   0.178 -13.390  0.00  0.00     0.163 HD
HETATM   12  O           1     -37.698  -0.406 -12.709  0.00  0.00    -0.271 OA
BRANCH  10  13
HETATM   13  C           1     -36.241   0.341 -14.863  0.00  0.00     0.209 C 
BRANCH  13  14
HETATM   14  C           1     -35.870  -0.786 -15.795  0.00  0.00     0.198 C 
HETATM   15  O           1     -36.313  -0.803 -16.963  0.00  0.00    -0.646 OA
HETATM   16  O           1     -35.121  -1.704 -15.397  0.00  0.00    -0.646 OA
ENDBRANCH  13  14
BRANCH  13  17
HETATM   17  C           1     -35.681   1.651 -15.402  0.00  0.00     0.200 C 
BRANCH  17  18
HETATM   18  O           1     -36.576   2.194 -16.334  0.00  0.00    -0.398 OA
HETATM   19  H           1     -37.443   1.962 -16.048  0.00  0.00     0.209 HD
ENDBRANCH  17  18
ENDBRANCH  13  17
ENDBRANCH  10  13
ENDBRANCH   1   9
BRANCH   1  20
HETATM   20  N           1     -36.458   0.455 -10.180  0.00  0.00    -0.066 N 
HETATM   21  H           1     -36.132   1.407 -10.463  0.00  0.00     0.275 HD
HETATM   22  H           1     -36.104   0.237  -9.222  0.00  0.00     0.275 HD
HETATM   23  H           1     -37.502   0.430 -10.179  0.00  0.00     0.275 HD
ENDBRANCH   1  20
TORSDOF 8
ENDMDL
MODEL 2
REMARK VINA RESULT:      -6.8     14.924     17.134
REMARK  8 active torsions:
REMARK  status: ('A' for Active; 'I' for Inactive)
REMARK    1  A    between atoms: C_1  and  C_2 
REMARK    2  A    between atoms: C_1  and  C_15 
REMARK    3  A    between atoms: C_2  and  C_3 
REMARK    4  A    between atoms: C_2  and  N_20 
REMARK       I    between atoms: C_3  and  N_5 
REMARK    5  A    between atoms: C_4  and  C_22 
REMARK    6  A    between atoms: N_5  and  C_22 
REMARK    7  A    between atoms: O_13  and  C_16 
REMARK    8  A    between atoms: C_16  and  C_22 
ROOT
HETATM    1  C           1     -22.223  -5.099  -6.763  0.00  0.00     0.278 C 
ENDROOT
BRANCH   1   2
HETATM    2  C           1     -21.641  -3.824  -7.359  0.00  0.00     0.081 C 
BRANCH   2   3
HETATM    3  C           1     -21.586  -3.950  -8.850  0.00  0.00    -0.056 A 
HETATM    4  C           1     -22.742  -3.762  -9.609  0.00  0.00     0.007 A 
HETATM    5  C           1     -22.691  -3.879 -10.998  0.00  0.00     0.001 A 
HETATM    6  C           1     -21.485  -4.185 -11.628  0.00  0.00     0.000 A 
HETATM    7  C           1     -20.330  -4.372 -10.870  0.00  0.00     0.001 A 
HETATM    8  C           1     -20.381  -4.255  -9.481  0.00  0.00     0.007 A 
ENDBRANCH   2   3
ENDBRANCH   1   2
BRANCH   1   9
HETATM    9  C           1     -21.459  -5.465  -5.514  0.00  0.00     0.249 C 
HETATM   10  N           1     -22.080  -6.158  -4.510  0.00  0.00    -0.343 N 
HETATM   11  H           1     -23.053  -6.425  -4.606  0.00  0.00     0.163 HD
HETATM   12  O           1     -20.299  -5.148  -5.400  0.00  0.00    -0.271 OA
BRANCH  10  13
HETATM   13  C           1     -21.347  -6.510  -3.310  0.00  0.00     0.209 C 
BRANCH  13  14
HETATM   14  C           1     -21.024  -7.983  -3.333  0.00  0.00     0.198 C 
HETATM   15  O           1     -21.797  -8.784  -3.901  0.00  0.00    -0.646 OA
HETATM   16  O           1     -19.984  -8.403  -2.782  0.00  0.00    -0.646 OA
ENDBRANCH  13  14
BRANCH  13  17
HETATM   17  C           1     -22.195  -6.194  -2.085  0.00  0.00     0.200 C 
BRANCH  17  18
HETATM   18  O           1     -22.186  -7.294  -1.214  0.00  0.00    -0.398 OA
HETATM   19  H           1     -23.086  -7.517  -1.047  0.00  0.00     0.209 HD
ENDBRANCH  17  18
ENDBRANCH  13  17
ENDBRANCH  10  13
ENDBRANCH   1   9
BRANCH   1  20
HETATM   20  N           1     -23.666  -4.875  -6.418  0.00  0.00    -0.066 N 
HETATM   21  H           1     -24.067  -5.752  -6.016  0.00  0.00     0.275 HD
HETATM   22  H           1     -24.194  -4.614  -7.281  0.00  0.00     0.275 HD
HETATM   23  H           1     -23.740  -4.103  -5.718  0.00  0.00     0.275 HD
ENDBRANCH   1  20
TORSDOF 8
ENDMDL
MODEL 3
REMARK VINA RESULT:      -6.7     13.530     15.417
REMARK  8 active torsions:
REMARK  status: ('A' for Active; 'I' for Inactive)
REMARK    1  A    between atoms: C_1  and  C_2 
REMARK    2  A    between atoms: C_1  and  C_15 
REMARK    3  A    between atoms: C_2  and  C_3 
REMARK    4  A    between atoms: C_2  and  N_20 
REMARK       I    between atoms: C_3  and  N_5 
REMARK    5  A    between atoms: C_4  and  C_22 
REMARK    6  A    between atoms: N_5  and  C_22 
REMARK    7  A    between atoms: O_13  and  C_16 
REMARK    8  A    between atoms: C_16  and  C_22 
ROOT
HETATM    1  C           1     -21.105  -5.662  -6.796  0.00  0.00     0.278 C 
ENDROOT
BRANCH   1   2
HETATM    2  C           1     -20.740  -5.236  -5.380  0.00  0.00     0.081 C 
BRANCH   2   3
HETATM    3  C           1     -21.074  -6.340  -4.425  0.00  0.00    -0.056 A 
HETATM    4  C           1     -21.186  -7.652  -4.887  0.00  0.00     0.007 A 
HETATM    5  C           1     -21.497  -8.680  -3.997  0.00  0.00     0.001 A 
HETATM    6  C           1     -21.697  -8.397  -2.646  0.00  0.00     0.000 A 
HETATM    7  C           1     -21.586  -7.086  -2.185  0.00  0.00     0.001 A 
HETATM    8  C           1     -21.275  -6.057  -3.074  0.00  0.00     0.007 A 
ENDBRANCH   2   3
ENDBRANCH   1   2
BRANCH   1   9
HETATM    9  C           1     -21.657  -4.477  -7.551  0.00  0.00     0.249 C 
HETATM   10  N           1     -22.338  -4.669  -8.723  0.00  0.00    -0.343 N 
HETATM   11  H           1     -22.472  -5.606  -9.083  0.00  0.00     0.163 HD
HETATM   12  O           1     -21.499  -3.359  -7.121  0.00  0.00    -0.271 OA
BRANCH  10  13
HETATM   13  C           1     -22.869  -3.532  -9.448  0.00  0.00     0.209 C 
BRANCH  13  14
HETATM   14  C           1     -24.348  -3.726  -9.674  0.00  0.00     0.198 C 
HETATM   15  O           1     -25.131  -2.760  -9.548  0.00  0.00    -0.646 OA
HETATM   16  O           1     -24.790  -4.853  -9.986  0.00  0.00    -0.646 OA
ENDBRANCH  13  14
BRANCH  13  17
HETATM   17  C           1     -22.161  -3.411 -10.791  0.00  0.00     0.200 C 
BRANCH  17  18
HETATM   18  O           1     -23.083  -3.015 -11.771  0.00  0.00    -0.398 OA
HETATM   19  H           1     -23.881  -3.487 -11.603  0.00  0.00     0.209 HD
ENDBRANCH  17  18
ENDBRANCH  13  17
ENDBRANCH  10  13
ENDBRANCH   1   9
BRANCH   1  20
HETATM   20  N           1     -19.879  -6.171  -7.494  0.00  0.00    -0.066 N 
HETATM   21  H           1     -19.879  -7.216  -7.476  0.00  0.00     0.275 HD
HETATM   22  H           1     -19.026  -5.815  -7.008  0.00  0.00     0.275 HD
HETATM   23  H           1     -19.879  -5.839  -8.485  0.00  0.00     0.275 HD
ENDBRANCH   1  20
TORSDOF 8
ENDMDL
MODEL 4
REMARK VINA RESULT:      -6.7     12.162     14.010
REMARK  8 active torsions:
REMARK  status: ('A' for Active; 'I' for Inactive)
REMARK    1  A    between atoms: C_1  and  C_2 
REMARK    2  A    between atoms: C_1  and  C_15 
REMARK    3  A    between atoms: C_2  and  C_3 
REMARK    4  A    between atoms: C_2  and  N_20 
REMARK       I    between atoms: C_3  and  N_5 
REMARK    5  A    between atoms: C_4  and  C_22 
REMARK    6  A    between atoms: N_5  and  C_22 
REMARK    7  A    between atoms: O_13  and  C_16 
REMARK    8  A    between atoms: C_16  and  C_22 
ROOT
HETATM    1  C           1     -21.230  -4.258 -10.633  0.00  0.00     0.278 C 
ENDROOT
BRANCH   1   2
HETATM    2  C           1     -21.725  -3.625  -9.340  0.00  0.00     0.081 C 
BRANCH   2   3
HETATM    3  C           1     -21.338  -4.490  -8.180  0.00  0.00    -0.056 A 
HETATM    4  C           1     -22.238  -4.699  -7.135  0.00  0.00     0.007 A 
HETATM    5  C           1     -21.876  -5.505  -6.055  0.00  0.00     0.001 A 
HETATM    6  C           1     -20.615  -6.100  -6.020  0.00  0.00     0.000 A 
HETATM    7  C           1     -19.716  -5.890  -7.065  0.00  0.00     0.001 A 
HETATM    8  C           1     -20.077  -5.085  -8.144  0.00  0.00     0.007 A 
ENDBRANCH   2   3
ENDBRANCH   1   2
BRANCH   1   9
HETATM    9  C           1     -22.360  -4.309 -11.632  0.00  0.00     0.249 C 
HETATM   10  N           1     -22.575  -3.253 -12.478  0.00  0.00    -0.343 N 
HETATM   11  H           1     -21.976  -2.438 -12.432  0.00  0.00     0.163 HD
HETATM   12  O           1     -23.074  -5.282 -11.688  0.00  0.00    -0.271 OA
BRANCH  10  13
HETATM   13  C           1     -23.660  -3.302 -13.437  0.00  0.00     0.209 C 
BRANCH  13  14
HETATM   14  C           1     -23.309  -2.455 -14.636  0.00  0.00     0.198 C 
HETATM   15  O           1     -22.378  -2.801 -15.395  0.00  0.00    -0.646 OA
HETATM   16  O           1     -23.949  -1.407 -14.869  0.00  0.00    -0.646 OA
ENDBRANCH  13  14
BRANCH  13  17
HETATM   17  C           1     -24.932  -2.769 -12.794  0.00  0.00     0.200 C 
BRANCH  17  18
HETATM   18  O           1     -24.954  -3.122 -11.437  0.00  0.00    -0.398 OA
HETATM   19  H           1     -24.103  -3.470 -11.231  0.00  0.00     0.209 HD
ENDBRANCH  17  18
ENDBRANCH  13  17
ENDBRANCH  10  13
ENDBRANCH   1   9
BRANCH   1  20
HETATM   20  N           1     -20.106  -3.436 -11.192  0.00  0.00    -0.066 N 
HETATM   21  H           1     -20.148  -2.472 -10.791  0.00  0.00     0.275 HD
HETATM   22  H           1     -20.195  -3.385 -12.232  0.00  0.00     0.275 HD
HETATM   23  H           1     -19.193  -3.879 -10.942  0.00  0.00     0.275 HD
ENDBRANCH   1  20
TORSDOF 8
ENDMDL
MODEL 5
REMARK VINA RESULT:      -6.4     14.120     16.487
REMARK  8 active torsions:
REMARK  status: ('A' for Active; 'I' for Inactive)
REMARK    1  A    between atoms: C_1  and  C_2 
REMARK    2  A    between atoms: C_1  and  C_15 
REMARK    3  A    between atoms: C_2  and  C_3 
REMARK    4  A    between atoms: C_2  and  N_20 
REMARK       I    between atoms: C_3  and  N_5 
REMARK    5  A    between atoms: C_4  and  C_22 
REMARK    6  A    between atoms: N_5  and  C_22 
REMARK    7  A    between atoms: O_13  and  C_16 
REMARK    8  A    between atoms: C_16  and  C_22 
ROOT
HETATM    1  C           1     -21.667  -4.479  -7.645  0.00  0.00     0.278 C 
ENDROOT
BRANCH   1   2
HETATM    2  C           1     -21.004  -4.526  -9.015  0.00  0.00     0.081 C 
BRANCH   2   3
HETATM    3  C           1     -21.949  -3.988 -10.045  0.00  0.00    -0.056 A 
HETATM    4  C           1     -23.326  -4.086  -9.847  0.00  0.00     0.007 A 
HETATM    5  C           1     -24.206  -3.585 -10.807  0.00  0.00     0.001 A 
HETATM    6  C           1     -23.708  -2.986 -11.964  0.00  0.00     0.000 A 
HETATM    7  C           1     -22.331  -2.889 -12.162  0.00  0.00     0.001 A 
HETATM    8  C           1     -21.452  -3.390 -11.203  0.00  0.00     0.007 A 
ENDBRANCH   2   3
ENDBRANCH   1   2
BRANCH   1   9
HETATM    9  C           1     -20.947  -5.416  -6.706  0.00  0.00     0.249 C 
HETATM   10  N           1     -21.591  -5.906  -5.600  0.00  0.00    -0.343 N 
HETATM   11  H           1     -22.550  -5.639  -5.414  0.00  0.00     0.163 HD
HETATM   12  O           1     -19.804  -5.735  -6.929  0.00  0.00    -0.271 OA
BRANCH  10  13
HETATM   13  C           1     -20.901  -6.805  -4.698  0.00  0.00     0.209 C 
BRANCH  13  14
HETATM   14  C           1     -21.355  -8.221  -4.956  0.00  0.00     0.198 C 
HETATM   15  O           1     -21.165  -8.746  -6.073  0.00  0.00    -0.646 OA
HETATM   16  O           1     -21.924  -8.869  -4.050  0.00  0.00    -0.646 OA
ENDBRANCH  13  14
BRANCH  13  17
HETATM   17  C           1     -21.218  -6.424  -3.259  0.00  0.00     0.200 C 
BRANCH  17  18
HETATM   18  O           1     -22.572  -6.073  -3.155  0.00  0.00    -0.398 OA
HETATM   19  H           1     -22.756  -5.961  -2.238  0.00  0.00     0.209 HD
ENDBRANCH  17  18
ENDBRANCH  13  17
ENDBRANCH  10  13
ENDBRANCH   1   9
BRANCH   1  20
HETATM   20  N           1     -21.597  -3.081  -7.105  0.00  0.00    -0.066 N 
HETATM   21  H           1     -20.744  -2.980  -6.510  0.00  0.00     0.275 HD
HETATM   22  H           1     -22.447  -2.886  -6.530  0.00  0.00     0.275 HD
HETATM   23  H           1     -21.551  -2.403  -7.899  0.00  0.00     0.275 HD
ENDBRANCH   1  20
TORSDOF 8
ENDMDL
MODEL 6
REMARK VINA RESULT:      -6.2      3.017      5.332
REMARK  8 active torsions:
REMARK  status: ('A' for Active; 'I' for Inactive)
REMARK    1  A    between atoms: C_1  and  C_2 
REMARK    2  A    between atoms: C_1  and  C_15 
REMARK    3  A    between atoms: C_2  and  C_3 
REMARK    4  A    between atoms: C_2  and  N_20 
REMARK       I    between atoms: C_3  and  N_5 
REMARK    5  A    between atoms: C_4  and  C_22 
REMARK    6  A    between atoms: N_5  and  C_22 
REMARK    7  A    between atoms: O_13  and  C_16 
REMARK    8  A    between atoms: C_16  and  C_22 
ROOT
HETATM    1  C           1     -35.485  -1.213 -11.516  0.00  0.00     0.278 C 
ENDROOT
BRANCH   1   2
HETATM    2  C           1     -34.392  -1.650 -10.550  0.00  0.00     0.081 C 
BRANCH   2   3
HETATM    3  C           1     -34.022  -3.075 -10.829  0.00  0.00    -0.056 A 
HETATM    4  C           1     -32.829  -3.368 -11.491  0.00  0.00     0.007 A 
HETATM    5  C           1     -32.484  -4.695 -11.750  0.00  0.00     0.001 A 
HETATM    6  C           1     -33.332  -5.727 -11.348  0.00  0.00     0.000 A 
HETATM    7  C           1     -34.523  -5.433 -10.686  0.00  0.00     0.001 A 
HETATM    8  C           1     -34.869  -4.107 -10.427  0.00  0.00     0.007 A 
ENDBRANCH   2   3
ENDBRANCH   1   2
BRANCH   1   9
HETATM    9  C           1     -36.677  -0.717 -10.734  0.00  0.00     0.249 C 
HETATM   10  N           1     -36.562  -0.472  -9.391  0.00  0.00    -0.343 N 
HETATM   11  H           1     -35.677  -0.624  -8.923  0.00  0.00     0.163 HD
HETATM   12  O           1     -37.733  -0.534 -11.292  0.00  0.00    -0.271 OA
BRANCH  10  13
HETATM   13  C           1     -37.706   0.004  -8.640  0.00  0.00     0.209 C 
BRANCH  13  14
HETATM   14  C           1     -37.567   1.487  -8.398  0.00  0.00     0.198 C 
HETATM   15  O           1     -36.943   1.901  -7.397  0.00  0.00    -0.646 OA
HETATM   16  O           1     -38.075   2.301  -9.198  0.00  0.00    -0.646 OA
ENDBRANCH  13  14
BRANCH  13  17
HETATM   17  C           1     -37.777  -0.724  -7.305  0.00  0.00     0.200 C 
BRANCH  17  18
HETATM   18  O           1     -38.060   0.195  -6.284  0.00  0.00    -0.398 OA
HETATM   19  H           1     -38.373  -0.301  -5.547  0.00  0.00     0.209 HD
ENDBRANCH  17  18
ENDBRANCH  13  17
ENDBRANCH  10  13
ENDBRANCH   1   9
BRANCH   1  20
HETATM   20  N           1     -34.967  -0.109 -12.389  0.00  0.00    -0.066 N 
HETATM   21  H           1     -35.202  -0.315 -13.386  0.00  0.00     0.275 HD
HETATM   22  H           1     -33.930  -0.039 -12.283  0.00  0.00     0.275 HD
HETATM   23  H           1     -35.407   0.796 -12.106  0.00  0.00     0.275 HD
ENDBRANCH   1  20
TORSDOF 8
ENDMDL
MODEL 7
REMARK VINA RESULT:      -6.1     15.412     17.440
REMARK  8 active torsions:
REMARK  status: ('A' for Active; 'I' for Inactive)
REMARK    1  A    between atoms: C_1  and  C_2 
REMARK    2  A    between atoms: C_1  and  C_15 
REMARK    3  A    between atoms: C_2  and  C_3 
REMARK    4  A    between atoms: C_2  and  N_20 
REMARK       I    between atoms: C_3  and  N_5 
REMARK    5  A    between atoms: C_4  and  C_22 
REMARK    6  A    between atoms: N_5  and  C_22 
REMARK    7  A    between atoms: O_13  and  C_16 
REMARK    8  A    between atoms: C_16  and  C_22 
ROOT
HETATM    1  C           1     -21.508  -8.068  -4.478  0.00  0.00     0.278 C 
ENDROOT
BRANCH   1   2
HETATM    2  C           1     -20.632  -8.228  -3.243  0.00  0.00     0.081 C 
BRANCH   2   3
HETATM    3  C           1     -21.500  -8.416  -2.037  0.00  0.00    -0.056 A 
HETATM    4  C           1     -21.987  -9.684  -1.718  0.00  0.00     0.007 A 
HETATM    5  C           1     -22.795  -9.858  -0.595  0.00  0.00     0.001 A 
HETATM    6  C           1     -23.117  -8.765   0.209  0.00  0.00     0.000 A 
HETATM    7  C           1     -22.630  -7.498  -0.109  0.00  0.00     0.001 A 
HETATM    8  C           1     -21.823  -7.323  -1.232  0.00  0.00     0.007 A 
ENDBRANCH   2   3
ENDBRANCH   1   2
BRANCH   1   9
HETATM    9  C           1     -21.380  -6.659  -5.006  0.00  0.00     0.249 C 
HETATM   10  N           1     -21.092  -6.447  -6.328  0.00  0.00    -0.343 N 
HETATM   11  H           1     -20.965  -7.235  -6.951  0.00  0.00     0.163 HD
HETATM   12  O           1     -21.532  -5.719  -4.263  0.00  0.00    -0.271 OA
BRANCH  10  13
HETATM   13  C           1     -20.968  -5.095  -6.835  0.00  0.00     0.209 C 
BRANCH  13  14
HETATM   14  C           1     -22.164  -4.770  -7.696  0.00  0.00     0.198 C 
HETATM   15  O           1     -23.244  -4.434  -7.166  0.00  0.00    -0.646 OA
HETATM   16  O           1     -22.073  -4.839  -8.941  0.00  0.00    -0.646 OA
ENDBRANCH  13  14
BRANCH  13  17
HETATM   17  C           1     -19.697  -4.977  -7.664  0.00  0.00     0.200 C 
BRANCH  17  18
HETATM   18  O           1     -19.608  -3.685  -8.203  0.00  0.00    -0.398 OA
HETATM   19  H           1     -20.353  -3.204  -7.885  0.00  0.00     0.209 HD
ENDBRANCH  17  18
ENDBRANCH  13  17
ENDBRANCH  10  13
ENDBRANCH   1   9
BRANCH   1  20
HETATM   20  N           1     -21.066  -9.038  -5.533  0.00  0.00    -0.066 N 
HETATM   21  H           1     -20.249  -9.586  -5.180  0.00  0.00     0.275 HD
HETATM   22  H           1     -20.789  -8.515  -6.394  0.00  0.00     0.275 HD
HETATM   23  H           1     -21.852  -9.689  -5.759  0.00  0.00     0.275 HD
ENDBRANCH   1  20
TORSDOF 8
ENDMDL
MODEL 8
REMARK VINA RESULT:      -6.0     14.911     17.353
REMARK  8 active torsions:
REMARK  status: ('A' for Active; 'I' for Inactive)
REMARK    1  A    between atoms: C_1  and  C_2 
REMARK    2  A    between atoms: C_1  and  C_15 
REMARK    3  A    between atoms: C_2  and  C_3 
REMARK    4  A    between atoms: C_2  and  N_20 
REMARK       I    between atoms: C_3  and  N_5 
REMARK    5  A    between atoms: C_4  and  C_22 
REMARK    6  A    between atoms: N_5  and  C_22 
REMARK    7  A    between atoms: O_13  and  C_16 
REMARK    8  A    between atoms: C_16  and  C_22 
ROOT
HETATM    1  C           1     -20.455  -5.054  -6.611  0.00  0.00     0.278 C 
ENDROOT
BRANCH   1   2
HETATM    2  C           1     -21.217  -3.864  -7.178  0.00  0.00     0.081 C 
BRANCH   2   3
HETATM    3  C           1     -21.437  -4.065  -8.646  0.00  0.00    -0.056 A 
HETATM    4  C           1     -22.693  -4.451  -9.116  0.00  0.00     0.007 A 
HETATM    5  C           1     -22.898  -4.639 -10.483  0.00  0.00     0.001 A 
HETATM    6  C           1     -21.847  -4.441 -11.379  0.00  0.00     0.000 A 
HETATM    7  C           1     -20.593  -4.056 -10.909  0.00  0.00     0.001 A 
HETATM    8  C           1     -20.387  -3.868  -9.542  0.00  0.00     0.007 A 
ENDBRANCH   2   3
ENDBRANCH   1   2
BRANCH   1   9
HETATM    9  C           1     -21.354  -5.829  -5.679  0.00  0.00     0.249 C 
HETATM   10  N           1     -20.821  -6.770  -4.839  0.00  0.00    -0.343 N 
HETATM   11  H           1     -19.824  -6.946  -4.844  0.00  0.00     0.163 HD
HETATM   12  O           1     -22.543  -5.618  -5.672  0.00  0.00    -0.271 OA
BRANCH  10  13
HETATM   13  C           1     -21.684  -7.514  -3.943  0.00  0.00     0.209 C 
BRANCH  13  14
HETATM   14  C           1     -21.621  -6.905  -2.564  0.00  0.00     0.198 C 
HETATM   15  O           1     -22.348  -5.931  -2.276  0.00  0.00    -0.646 OA
HETATM   16  O           1     -20.839  -7.376  -1.709  0.00  0.00    -0.646 OA
ENDBRANCH  13  14
BRANCH  13  17
HETATM   17  C           1     -21.223  -8.964  -3.880  0.00  0.00     0.200 C 
BRANCH  17  18
HETATM   18  O           1     -21.970  -9.651  -2.912  0.00  0.00    -0.398 OA
HETATM   19  H           1     -22.784  -9.188  -2.816  0.00  0.00     0.209 HD
ENDBRANCH  17  18
ENDBRANCH  13  17
ENDBRANCH  10  13
ENDBRANCH   1   9
BRANCH   1  20
HETATM   20  N           1     -20.015  -5.945  -7.735  0.00  0.00    -0.066 N 
HETATM   21  H           1     -19.867  -5.371  -8.596  0.00  0.00     0.275 HD
HETATM   22  H           1     -20.750  -6.665  -7.918  0.00  0.00     0.275 HD
HETATM   23  H           1     -19.121  -6.419  -7.474  0.00  0.00     0.275 HD
ENDBRANCH   1  20
TORSDOF 8
ENDMDL
MODEL 9
REMARK VINA RESULT:      -6.0     16.606     19.026
REMARK  8 active torsions:
REMARK  status: ('A' for Active; 'I' for Inactive)
REMARK    1  A    between atoms: C_1  and  C_2 
REMARK    2  A    between atoms: C_1  and  C_15 
REMARK    3  A    between atoms: C_2  and  C_3 
REMARK    4  A    between atoms: C_2  and  N_20 
REMARK       I    between atoms: C_3  and  N_5 
REMARK    5  A    between atoms: C_4  and  C_22 
REMARK    6  A    between atoms: N_5  and  C_22 
REMARK    7  A    between atoms: O_13  and  C_16 
REMARK    8  A    between atoms: C_16  and  C_22 
ROOT
HETATM    1  C           1     -21.336  -7.348  -4.161  0.00  0.00     0.278 C 
ENDROOT
BRANCH   1   2
HETATM    2  C           1     -22.340  -6.515  -4.946  0.00  0.00     0.081 C 
BRANCH   2   3
HETATM    3  C           1     -21.611  -5.630  -5.908  0.00  0.00    -0.056 A 
HETATM    4  C           1     -20.216  -5.627  -5.933  0.00  0.00     0.007 A 
HETATM    5  C           1     -19.537  -4.802  -6.830  0.00  0.00     0.001 A 
HETATM    6  C           1     -20.252  -3.980  -7.701  0.00  0.00     0.000 A 
HETATM    7  C           1     -21.646  -3.983  -7.675  0.00  0.00     0.001 A 
HETATM    8  C           1     -22.325  -4.808  -6.779  0.00  0.00     0.007 A 
ENDBRANCH   2   3
ENDBRANCH   1   2
BRANCH   1   9
HETATM    9  C           1     -21.492  -7.067  -2.686  0.00  0.00     0.249 C 
HETATM   10  N           1     -21.534  -8.103  -1.792  0.00  0.00    -0.343 N 
HETATM   11  H           1     -21.459  -9.058  -2.121  0.00  0.00     0.163 HD
HETATM   12  O           1     -21.580  -5.928  -2.295  0.00  0.00    -0.271 OA
BRANCH  10  13
HETATM   13  C           1     -21.684  -7.833  -0.376  0.00  0.00     0.209 C 
BRANCH  13  14
HETATM   14  C           1     -21.044  -8.946   0.418  0.00  0.00     0.198 C 
HETATM   15  O           1     -20.681  -9.995  -0.156  0.00  0.00    -0.646 OA
HETATM   16  O           1     -20.878  -8.818   1.650  0.00  0.00    -0.646 OA
ENDBRANCH  13  14
BRANCH  13  17
HETATM   17  C           1     -23.164  -7.748  -0.029  0.00  0.00     0.200 C 
BRANCH  17  18
HETATM   18  O           1     -23.619  -9.006   0.392  0.00  0.00    -0.398 OA
HETATM   19  H           1     -23.269  -9.639  -0.211  0.00  0.00     0.209 HD
ENDBRANCH  17  18
ENDBRANCH  13  17
ENDBRANCH  10  13
ENDBRANCH   1   9
BRANCH   1  20
HETATM   20  N           1     -21.585  -8.805  -4.420  0.00  0.00    -0.066 N 
HETATM   21  H           1     -22.542  -9.058  -4.086  0.00  0.00     0.275 HD
HETATM   22  H           1     -20.875  -9.376  -3.909  0.00  0.00     0.275 HD
HETATM   23  H           1     -21.512  -8.993  -5.445  0.00  0.00     0.275 HD
ENDBRANCH   1  20
TORSDOF 8
ENDMDL
