MODEL 1
REMARK VINA RESULT:      -7.4      0.000      0.000
REMARK  10 active torsions:
REMARK  status: ('A' for Active; 'I' for Inactive)
REMARK    1  A    between atoms: N_1  and  C_17 
REMARK    2  A    between atoms: C_6  and  C_8 
REMARK    3  A    between atoms: C_6  and  C_7 
REMARK    4  A    between atoms: C_7  and  C_13 
REMARK    5  A    between atoms: C_8  and  N_25 
REMARK    6  A    between atoms: N_11  and  C_13 
REMARK       I    between atoms: N_11  and  C_19 
REMARK    7  A    between atoms: C_12  and  C_18 
REMARK    8  A    between atoms: C_13  and  C_14 
REMARK    9  A    between atoms: C_17  and  C_19 
REMARK   10  A    between atoms: C_17  and  C_18 
ROOT
HETATM    1  H           1     -22.120  -5.786  -9.301  0.00  0.00     0.163 HD
HETATM    2  N           1     -22.140  -4.844  -8.932  0.00  0.00    -0.345 N 
HETATM    3  C           1     -21.660  -4.592  -7.675  0.00  0.00     0.249 C 
HETATM    4  O           1     -21.683  -3.467  -7.234  0.00  0.00    -0.271 OA
ENDROOT
BRANCH   3   5
HETATM    5  C           1     -21.101  -5.718  -6.839  0.00  0.00     0.278 C 
BRANCH   5   6
HETATM    6  N           1     -19.800  -6.179  -7.428  0.00  0.00    -0.066 N 
HETATM    7  H           1     -19.016  -5.621  -7.020  0.00  0.00     0.275 HD
HETATM    8  H           1     -19.659  -7.191  -7.210  0.00  0.00     0.275 HD
HETATM    9  H           1     -19.821  -6.043  -8.464  0.00  0.00     0.275 HD
ENDBRANCH   5   6
BRANCH   5  10
HETATM   10  C           1     -20.870  -5.229  -5.416  0.00  0.00     0.081 C 
BRANCH  10  11
HETATM   11  C           1     -21.146  -6.343  -4.454  0.00  0.00    -0.056 A 
HETATM   12  C           1     -21.256  -7.653  -4.918  0.00  0.00     0.007 A 
HETATM   13  C           1     -21.513  -8.690  -4.022  0.00  0.00     0.001 A 
HETATM   14  C           1     -21.661  -8.417  -2.662  0.00  0.00     0.000 A 
HETATM   15  C           1     -21.551  -7.106  -2.198  0.00  0.00     0.001 A 
HETATM   16  C           1     -21.293  -6.069  -3.094  0.00  0.00     0.007 A 
ENDBRANCH  10  11
ENDBRANCH   5  10
ENDBRANCH   3   5
BRANCH   2  17
HETATM   17  C           1     -22.675  -3.763  -9.734  0.00  0.00     0.185 C 
BRANCH  17  18
HETATM   18  C           1     -22.180  -3.898 -11.168  0.00  0.00     0.038 C 
BRANCH  18  19
HETATM   19  C           1     -22.602  -2.673 -11.969  0.00  0.00     0.030 C 
BRANCH  19  20
HETATM   20  C           1     -23.416  -3.114 -13.179  0.00  0.00     0.230 C 
BRANCH  20  21
HETATM   21  N           1     -22.561  -3.043 -14.410  0.00  0.00    -0.079 N 
HETATM   22  H           1     -21.596  -2.739 -14.147  0.00  0.00     0.274 HD
HETATM   23  H           1     -22.519  -3.986 -14.859  0.00  0.00     0.274 HD
HETATM   24  H           1     -22.973  -2.357 -15.080  0.00  0.00     0.274 HD
ENDBRANCH  20  21
ENDBRANCH  19  20
ENDBRANCH  18  19
ENDBRANCH  17  18
BRANCH  17  25
HETATM   25  C           1     -24.183  -3.822  -9.717  0.00  0.00     0.196 C 
HETATM   26  O           1     -24.846  -2.800  -9.438  0.00  0.00    -0.646 OA
HETATM   27  O           1     -24.769  -4.895  -9.979  0.00  0.00    -0.646 OA
ENDBRANCH  17  25
ENDBRANCH   2  17
TORSDOF 10
ENDMDL
MODEL 2
REMARK VINA RESULT:      -7.1     12.268     14.058
REMARK  10 active torsions:
REMARK  status: ('A' for Active; 'I' for Inactive)
REMARK    1  A    between atoms: N_1  and  C_17 
REMARK    2  A    between atoms: C_6  and  C_8 
REMARK    3  A    between atoms: C_6  and  C_7 
REMARK    4  A    between atoms: C_7  and  C_13 
REMARK    5  A    between atoms: C_8  and  N_25 
REMARK    6  A    between atoms: N_11  and  C_13 
REMARK       I    between atoms: N_11  and  C_19 
REMARK    7  A    between atoms: C_12  and  C_18 
REMARK    8  A    between atoms: C_13  and  C_14 
REMARK    9  A    between atoms: C_17  and  C_19 
REMARK   10  A    between atoms: C_17  and  C_18 
ROOT
HETATM    1  H           1     -35.346  -2.026 -14.102  0.00  0.00     0.163 HD
HETATM    2  N           1     -34.987  -1.635 -13.241  0.00  0.00    -0.345 N 
HETATM    3  C           1     -34.330  -2.436 -12.347  0.00  0.00     0.249 C 
HETATM    4  O           1     -33.902  -1.969 -11.317  0.00  0.00    -0.271 OA
ENDROOT
BRANCH   3   5
HETATM    5  C           1     -34.140  -3.904 -12.645  0.00  0.00     0.278 C 
BRANCH   5   6
HETATM    6  N           1     -33.725  -4.072 -14.077  0.00  0.00    -0.066 N 
HETATM    7  H           1     -33.389  -3.157 -14.452  0.00  0.00     0.275 HD
HETATM    8  H           1     -32.955  -4.776 -14.136  0.00  0.00     0.275 HD
HETATM    9  H           1     -34.542  -4.399 -14.639  0.00  0.00     0.275 HD
ENDBRANCH   5   6
BRANCH   5  10
HETATM   10  C           1     -33.061  -4.473 -11.734  0.00  0.00     0.081 C 
BRANCH  10  11
HETATM   11  C           1     -33.604  -5.658 -10.997  0.00  0.00    -0.056 A 
HETATM   12  C           1     -34.831  -5.569 -10.341  0.00  0.00     0.007 A 
HETATM   13  C           1     -35.336  -6.673  -9.655  0.00  0.00     0.001 A 
HETATM   14  C           1     -34.614  -7.866  -9.624  0.00  0.00     0.000 A 
HETATM   15  C           1     -33.386  -7.955 -10.281  0.00  0.00     0.001 A 
HETATM   16  C           1     -32.881  -6.851 -10.967  0.00  0.00     0.007 A 
ENDBRANCH  10  11
ENDBRANCH   5  10
ENDBRANCH   3   5
BRANCH   2  17
HETATM   17  C           1     -35.169  -0.226 -12.954  0.00  0.00     0.185 C 
BRANCH  17  18
HETATM   18  C           1     -35.313   0.545 -14.260  0.00  0.00     0.038 C 
BRANCH  18  19
HETATM   19  C           1     -35.426  -0.436 -15.419  0.00  0.00     0.030 C 
BRANCH  19  20
HETATM   20  C           1     -36.821  -0.345 -16.027  0.00  0.00     0.230 C 
BRANCH  20  21
HETATM   21  N           1     -37.451   0.960 -15.639  0.00  0.00    -0.079 N 
HETATM   22  H           1     -37.426   1.615 -16.452  0.00  0.00     0.274 HD
HETATM   23  H           1     -38.443   0.796 -15.354  0.00  0.00     0.274 HD
HETATM   24  H           1     -36.924   1.376 -14.838  0.00  0.00     0.274 HD
ENDBRANCH  20  21
ENDBRANCH  19  20
ENDBRANCH  18  19
ENDBRANCH  17  18
BRANCH  17  25
HETATM   25  C           1     -36.414  -0.039 -12.122  0.00  0.00     0.196 C 
HETATM   26  O           1     -36.323   0.364 -10.942  0.00  0.00    -0.646 OA
HETATM   27  O           1     -37.537  -0.288 -12.612  0.00  0.00    -0.646 OA
ENDBRANCH  17  25
ENDBRANCH   2  17
TORSDOF 10
ENDMDL
MODEL 3
REMARK VINA RESULT:      -7.1     12.555     15.551
REMARK  10 active torsions:
REMARK  status: ('A' for Active; 'I' for Inactive)
REMARK    1  A    between atoms: N_1  and  C_17 
REMARK    2  A    between atoms: C_6  and  C_8 
REMARK    3  A    between atoms: C_6  and  C_7 
REMARK    4  A    between atoms: C_7  and  C_13 
REMARK    5  A    between atoms: C_8  and  N_25 
REMARK    6  A    between atoms: N_11  and  C_13 
REMARK       I    between atoms: N_11  and  C_19 
REMARK    7  A    between atoms: C_12  and  C_18 
REMARK    8  A    between atoms: C_13  and  C_14 
REMARK    9  A    between atoms: C_17  and  C_19 
REMARK   10  A    between atoms: C_17  and  C_18 
ROOT
HETATM    1  H           1     -36.333  -3.578 -11.655  0.00  0.00     0.163 HD
HETATM    2  N           1     -35.461  -3.303 -11.222  0.00  0.00    -0.345 N 
HETATM    3  C           1     -35.318  -2.040 -10.714  0.00  0.00     0.249 C 
HETATM    4  O           1     -34.276  -1.711 -10.196  0.00  0.00    -0.271 OA
ENDROOT
BRANCH   3   5
HETATM    5  C           1     -36.460  -1.057 -10.800  0.00  0.00     0.278 C 
BRANCH   5   6
HETATM    6  N           1     -37.068  -0.878  -9.439  0.00  0.00    -0.066 N 
HETATM    7  H           1     -37.064   0.135  -9.187  0.00  0.00     0.275 HD
HETATM    8  H           1     -38.051  -1.232  -9.448  0.00  0.00     0.275 HD
HETATM    9  H           1     -36.510  -1.414  -8.737  0.00  0.00     0.275 HD
ENDBRANCH   5   6
BRANCH   5  10
HETATM   10  C           1     -35.943   0.282 -11.304  0.00  0.00     0.081 C 
BRANCH  10  11
HETATM   11  C           1     -35.963   0.294 -12.802  0.00  0.00    -0.056 A 
HETATM   12  C           1     -34.852   0.751 -13.510  0.00  0.00     0.007 A 
HETATM   13  C           1     -34.870   0.762 -14.904  0.00  0.00     0.001 A 
HETATM   14  C           1     -36.000   0.317 -15.590  0.00  0.00     0.000 A 
HETATM   15  C           1     -37.111  -0.141 -14.882  0.00  0.00     0.001 A 
HETATM   16  C           1     -37.093  -0.152 -13.487  0.00  0.00     0.007 A 
ENDBRANCH  10  11
ENDBRANCH   5  10
ENDBRANCH   3   5
BRANCH   2  17
HETATM   17  C           1     -34.363  -4.246 -11.139  0.00  0.00     0.185 C 
BRANCH  17  18
HETATM   18  C           1     -34.910  -5.668 -11.173  0.00  0.00     0.038 C 
BRANCH  18  19
HETATM   19  C           1     -34.183  -6.516 -10.137  0.00  0.00     0.030 C 
BRANCH  19  20
HETATM   20  C           1     -34.723  -7.940 -10.177  0.00  0.00     0.230 C 
BRANCH  20  21
HETATM   21  N           1     -33.578  -8.910 -10.158  0.00  0.00    -0.079 N 
HETATM   22  H           1     -32.819  -8.565 -10.787  0.00  0.00     0.274 HD
HETATM   23  H           1     -33.211  -8.996  -9.183  0.00  0.00     0.274 HD
HETATM   24  H           1     -33.909  -9.844 -10.488  0.00  0.00     0.274 HD
ENDBRANCH  20  21
ENDBRANCH  19  20
ENDBRANCH  18  19
ENDBRANCH  17  18
BRANCH  17  25
HETATM   25  C           1     -33.433  -4.039 -12.308  0.00  0.00     0.196 C 
HETATM   26  O           1     -33.876  -3.598 -13.391  0.00  0.00    -0.646 OA
HETATM   27  O           1     -32.217  -4.308 -12.195  0.00  0.00    -0.646 OA
ENDBRANCH  17  25
ENDBRANCH   2  17
TORSDOF 10
ENDMDL
MODEL 4
REMARK VINA RESULT:      -7.0      3.235      7.875
REMARK  10 active torsions:
REMARK  status: ('A' for Active; 'I' for Inactive)
REMARK    1  A    between atoms: N_1  and  C_17 
REMARK    2  A    between atoms: C_6  and  C_8 
REMARK    3  A    between atoms: C_6  and  C_7 
REMARK    4  A    between atoms: C_7  and  C_13 
REMARK    5  A    between atoms: C_8  and  N_25 
REMARK    6  A    between atoms: N_11  and  C_13 
REMARK       I    between atoms: N_11  and  C_19 
REMARK    7  A    between atoms: C_12  and  C_18 
REMARK    8  A    between atoms: C_13  and  C_14 
REMARK    9  A    between atoms: C_17  and  C_19 
REMARK   10  A    between atoms: C_17  and  C_18 
ROOT
HETATM    1  H           1     -21.614  -7.864  -6.055  0.00  0.00     0.163 HD
HETATM    2  N           1     -21.156  -7.235  -5.407  0.00  0.00    -0.345 N 
HETATM    3  C           1     -21.285  -5.881  -5.560  0.00  0.00     0.249 C 
HETATM    4  O           1     -20.739  -5.130  -4.787  0.00  0.00    -0.271 OA
ENDROOT
BRANCH   3   5
HETATM    5  C           1     -22.111  -5.325  -6.695  0.00  0.00     0.278 C 
BRANCH   5   6
HETATM    6  N           1     -23.500  -5.036  -6.206  0.00  0.00    -0.066 N 
HETATM    7  H           1     -24.195  -5.476  -6.851  0.00  0.00     0.275 HD
HETATM    8  H           1     -23.620  -5.429  -5.245  0.00  0.00     0.275 HD
HETATM    9  H           1     -23.652  -4.003  -6.183  0.00  0.00     0.275 HD
ENDBRANCH   5   6
BRANCH   5  10
HETATM   10  C           1     -21.475  -4.039  -7.204  0.00  0.00     0.081 C 
BRANCH  10  11
HETATM   11  C           1     -21.442  -4.057  -8.701  0.00  0.00    -0.056 A 
HETATM   12  C           1     -22.577  -3.700  -9.428  0.00  0.00     0.007 A 
HETATM   13  C           1     -22.546  -3.717 -10.822  0.00  0.00     0.001 A 
HETATM   14  C           1     -21.380  -4.091 -11.489  0.00  0.00     0.000 A 
HETATM   15  C           1     -20.244  -4.448 -10.762  0.00  0.00     0.001 A 
HETATM   16  C           1     -20.275  -4.431  -9.368  0.00  0.00     0.007 A 
ENDBRANCH  10  11
ENDBRANCH   5  10
ENDBRANCH   3   5
BRANCH   2  17
HETATM   17  C           1     -20.363  -7.769  -4.317  0.00  0.00     0.185 C 
BRANCH  17  18
HETATM   18  C           1     -21.286  -8.348  -3.252  0.00  0.00     0.038 C 
BRANCH  18  19
HETATM   19  C           1     -20.901  -7.789  -1.889  0.00  0.00     0.030 C 
BRANCH  19  20
HETATM   20  C           1     -22.088  -7.042  -1.293  0.00  0.00     0.230 C 
BRANCH  20  21
HETATM   21  N           1     -22.393  -5.836  -2.131  0.00  0.00    -0.079 N 
HETATM   22  H           1     -22.127  -6.025  -3.123  0.00  0.00     0.274 HD
HETATM   23  H           1     -23.415  -5.624  -2.078  0.00  0.00     0.274 HD
HETATM   24  H           1     -21.849  -5.018  -1.774  0.00  0.00     0.274 HD
ENDBRANCH  20  21
ENDBRANCH  19  20
ENDBRANCH  18  19
ENDBRANCH  17  18
BRANCH  17  25
HETATM   25  C           1     -19.457  -8.856  -4.840  0.00  0.00     0.196 C 
HETATM   26  O           1     -19.138  -9.814  -4.102  0.00  0.00    -0.646 OA
HETATM   27  O           1     -19.022  -8.798  -6.011  0.00  0.00    -0.646 OA
ENDBRANCH  17  25
ENDBRANCH   2  17
TORSDOF 10
ENDMDL
MODEL 5
REMARK VINA RESULT:      -7.0      1.696      2.228
REMARK  10 active torsions:
REMARK  status: ('A' for Active; 'I' for Inactive)
REMARK    1  A    between atoms: N_1  and  C_17 
REMARK    2  A    between atoms: C_6  and  C_8 
REMARK    3  A    between atoms: C_6  and  C_7 
REMARK    4  A    between atoms: C_7  and  C_13 
REMARK    5  A    between atoms: C_8  and  N_25 
REMARK    6  A    between atoms: N_11  and  C_13 
REMARK       I    between atoms: N_11  and  C_19 
REMARK    7  A    between atoms: C_12  and  C_18 
REMARK    8  A    between atoms: C_13  and  C_14 
REMARK    9  A    between atoms: C_17  and  C_19 
REMARK   10  A    between atoms: C_17  and  C_18 
ROOT
HETATM    1  H           1     -24.103  -4.900  -8.484  0.00  0.00     0.163 HD
HETATM    2  N           1     -23.318  -4.297  -8.696  0.00  0.00    -0.345 N 
HETATM    3  C           1     -22.309  -4.142  -7.785  0.00  0.00     0.249 C 
HETATM    4  O           1     -21.372  -3.422  -8.037  0.00  0.00    -0.271 OA
ENDROOT
BRANCH   3   5
HETATM    5  C           1     -22.366  -4.870  -6.463  0.00  0.00     0.278 C 
BRANCH   5   6
HETATM    6  N           1     -23.773  -5.320  -6.202  0.00  0.00    -0.066 N 
HETATM    7  H           1     -24.319  -4.533  -5.785  0.00  0.00     0.275 HD
HETATM    8  H           1     -24.217  -5.614  -7.101  0.00  0.00     0.275 HD
HETATM    9  H           1     -23.762  -6.126  -5.537  0.00  0.00     0.275 HD
ENDBRANCH   5   6
BRANCH   5  10
HETATM   10  C           1     -21.446  -6.081  -6.510  0.00  0.00     0.081 C 
BRANCH  10  11
HETATM   11  C           1     -21.413  -6.736  -5.163  0.00  0.00    -0.056 A 
HETATM   12  C           1     -21.277  -5.959  -4.014  0.00  0.00     0.007 A 
HETATM   13  C           1     -21.246  -6.569  -2.760  0.00  0.00     0.001 A 
HETATM   14  C           1     -21.351  -7.956  -2.656  0.00  0.00     0.000 A 
HETATM   15  C           1     -21.488  -8.733  -3.806  0.00  0.00     0.001 A 
HETATM   16  C           1     -21.519  -8.123  -5.060  0.00  0.00     0.007 A 
ENDBRANCH  10  11
ENDBRANCH   5  10
ENDBRANCH   3   5
BRANCH   2  17
HETATM   17  C           1     -23.263  -3.598  -9.965  0.00  0.00     0.185 C 
BRANCH  17  18
HETATM   18  C           1     -22.589  -4.484 -11.005  0.00  0.00     0.038 C 
BRANCH  18  19
HETATM   19  C           1     -21.668  -3.637 -11.874  0.00  0.00     0.030 C 
BRANCH  19  20
HETATM   20  C           1     -20.294  -3.550 -11.222  0.00  0.00     0.230 C 
BRANCH  20  21
HETATM   21  N           1     -20.001  -4.831 -10.499  0.00  0.00    -0.079 N 
HETATM   22  H           1     -20.861  -5.423 -10.477  0.00  0.00     0.274 HD
HETATM   23  H           1     -19.237  -5.344 -10.995  0.00  0.00     0.274 HD
HETATM   24  H           1     -19.698  -4.618  -9.522  0.00  0.00     0.274 HD
ENDBRANCH  20  21
ENDBRANCH  19  20
ENDBRANCH  18  19
ENDBRANCH  17  18
BRANCH  17  25
HETATM   25  C           1     -24.663  -3.268 -10.418  0.00  0.00     0.196 C 
HETATM   26  O           1     -25.579  -3.135  -9.577  0.00  0.00    -0.646 OA
HETATM   27  O           1     -24.909  -3.127 -11.636  0.00  0.00    -0.646 OA
ENDBRANCH  17  25
ENDBRANCH   2  17
TORSDOF 10
ENDMDL
MODEL 6
REMARK VINA RESULT:      -6.9     12.846     14.827
REMARK  10 active torsions:
REMARK  status: ('A' for Active; 'I' for Inactive)
REMARK    1  A    between atoms: N_1  and  C_17 
REMARK    2  A    between atoms: C_6  and  C_8 
REMARK    3  A    between atoms: C_6  and  C_7 
REMARK    4  A    between atoms: C_7  and  C_13 
REMARK    5  A    between atoms: C_8  and  N_25 
REMARK    6  A    between atoms: N_11  and  C_13 
REMARK       I    between atoms: N_11  and  C_19 
REMARK    7  A    between atoms: C_12  and  C_18 
REMARK    8  A    between atoms: C_13  and  C_14 
REMARK    9  A    between atoms: C_17  and  C_19 
REMARK   10  A    between atoms: C_17  and  C_18 
ROOT
HETATM    1  H           1     -35.875  -2.030 -14.136  0.00  0.00     0.163 HD
HETATM    2  N           1     -35.535  -1.114 -14.399  0.00  0.00    -0.345 N 
HETATM    3  C           1     -35.087  -0.249 -13.438  0.00  0.00     0.249 C 
HETATM    4  O           1     -34.680   0.845 -13.751  0.00  0.00    -0.271 OA
ENDROOT
BRANCH   3   5
HETATM    5  C           1     -35.102  -0.660 -11.985  0.00  0.00     0.278 C 
BRANCH   5   6
HETATM    6  N           1     -35.737   0.424 -11.166  0.00  0.00    -0.066 N 
HETATM    7  H           1     -36.006   0.043 -10.231  0.00  0.00     0.275 HD
HETATM    8  H           1     -35.058   1.209 -11.041  0.00  0.00     0.275 HD
HETATM    9  H           1     -36.590   0.776 -11.657  0.00  0.00     0.275 HD
ENDBRANCH   5   6
BRANCH   5  10
HETATM   10  C           1     -35.899  -1.947 -11.829  0.00  0.00     0.081 C 
BRANCH  10  11
HETATM   11  C           1     -34.960  -3.091 -11.594  0.00  0.00    -0.056 A 
HETATM   12  C           1     -35.408  -4.236 -10.936  0.00  0.00     0.007 A 
HETATM   13  C           1     -34.535  -5.301 -10.717  0.00  0.00     0.001 A 
HETATM   14  C           1     -33.214  -5.220 -11.156  0.00  0.00     0.000 A 
HETATM   15  C           1     -32.766  -4.075 -11.815  0.00  0.00     0.001 A 
HETATM   16  C           1     -33.639  -3.010 -12.034  0.00  0.00     0.007 A 
ENDBRANCH  10  11
ENDBRANCH   5  10
ENDBRANCH   3   5
BRANCH   2  17
HETATM   17  C           1     -35.520  -0.719 -15.793  0.00  0.00     0.185 C 
BRANCH  17  18
HETATM   18  C           1     -35.028  -1.881 -16.647  0.00  0.00     0.038 C 
BRANCH  18  19
HETATM   19  C           1     -34.753  -3.085 -15.755  0.00  0.00     0.030 C 
BRANCH  19  20
HETATM   20  C           1     -33.727  -3.990 -16.425  0.00  0.00     0.230 C 
BRANCH  20  21
HETATM   21  N           1     -32.967  -3.208 -17.455  0.00  0.00    -0.079 N 
HETATM   22  H           1     -32.101  -2.813 -17.024  0.00  0.00     0.274 HD
HETATM   23  H           1     -32.706  -3.837 -18.248  0.00  0.00     0.274 HD
HETATM   24  H           1     -33.565  -2.429 -17.812  0.00  0.00     0.274 HD
ENDBRANCH  20  21
ENDBRANCH  19  20
ENDBRANCH  18  19
ENDBRANCH  17  18
BRANCH  17  25
HETATM   25  C           1     -36.915  -0.337 -16.222  0.00  0.00     0.196 C 
HETATM   26  O           1     -37.286   0.855 -16.155  0.00  0.00    -0.646 OA
HETATM   27  O           1     -37.701  -1.213 -16.644  0.00  0.00    -0.646 OA
ENDBRANCH  17  25
ENDBRANCH   2  17
TORSDOF 10
ENDMDL
MODEL 7
REMARK VINA RESULT:      -6.8      3.174      7.865
REMARK  10 active torsions:
REMARK  status: ('A' for Active; 'I' for Inactive)
REMARK    1  A    between atoms: N_1  and  C_17 
REMARK    2  A    between atoms: C_6  and  C_8 
REMARK    3  A    between atoms: C_6  and  C_7 
REMARK    4  A    between atoms: C_7  and  C_13 
REMARK    5  A    between atoms: C_8  and  N_25 
REMARK    6  A    between atoms: N_11  and  C_13 
REMARK       I    between atoms: N_11  and  C_19 
REMARK    7  A    between atoms: C_12  and  C_18 
REMARK    8  A    between atoms: C_13  and  C_14 
REMARK    9  A    between atoms: C_17  and  C_19 
REMARK   10  A    between atoms: C_17  and  C_18 
ROOT
HETATM    1  H           1     -22.464  -6.791  -4.893  0.00  0.00     0.163 HD
HETATM    2  N           1     -21.537  -6.977  -5.254  0.00  0.00    -0.345 N 
HETATM    3  C           1     -21.111  -6.359  -6.398  0.00  0.00     0.249 C 
HETATM    4  O           1     -20.003  -6.581  -6.829  0.00  0.00    -0.271 OA
ENDROOT
BRANCH   3   5
HETATM    5  C           1     -22.023  -5.400  -7.123  0.00  0.00     0.278 C 
BRANCH   5   6
HETATM    6  N           1     -23.123  -4.963  -6.201  0.00  0.00    -0.066 N 
HETATM    7  H           1     -23.458  -5.783  -5.646  0.00  0.00     0.275 HD
HETATM    8  H           1     -22.762  -4.228  -5.553  0.00  0.00     0.275 HD
HETATM    9  H           1     -23.915  -4.577  -6.763  0.00  0.00     0.275 HD
ENDBRANCH   5   6
BRANCH   5  10
HETATM   10  C           1     -21.227  -4.184  -7.576  0.00  0.00     0.081 C 
BRANCH  10  11
HETATM   11  C           1     -21.392  -4.000  -9.053  0.00  0.00    -0.056 A 
HETATM   12  C           1     -20.308  -4.202  -9.906  0.00  0.00     0.007 A 
HETATM   13  C           1     -20.462  -4.031 -11.281  0.00  0.00     0.001 A 
HETATM   14  C           1     -21.699  -3.655 -11.803  0.00  0.00     0.000 A 
HETATM   15  C           1     -22.784  -3.453 -10.950  0.00  0.00     0.001 A 
HETATM   16  C           1     -22.631  -3.625  -9.574  0.00  0.00     0.007 A 
ENDBRANCH  10  11
ENDBRANCH   5  10
ENDBRANCH   3   5
BRANCH   2  17
HETATM   17  C           1     -20.660  -7.898  -4.557  0.00  0.00     0.185 C 
BRANCH  17  18
HETATM   18  C           1     -20.609  -7.532  -3.079  0.00  0.00     0.038 C 
BRANCH  18  19
HETATM   19  C           1     -21.553  -6.368  -2.811  0.00  0.00     0.030 C 
BRANCH  19  20
HETATM   20  C           1     -22.278  -6.595  -1.491  0.00  0.00     0.230 C 
BRANCH  20  21
HETATM   21  N           1     -22.133  -8.031  -1.081  0.00  0.00    -0.079 N 
HETATM   22  H           1     -22.987  -8.333  -0.561  0.00  0.00     0.274 HD
HETATM   23  H           1     -22.013  -8.626  -1.932  0.00  0.00     0.274 HD
HETATM   24  H           1     -21.295  -8.133  -0.465  0.00  0.00     0.274 HD
ENDBRANCH  20  21
ENDBRANCH  19  20
ENDBRANCH  18  19
ENDBRANCH  17  18
BRANCH  17  25
HETATM   25  C           1     -21.185  -9.304  -4.708  0.00  0.00     0.196 C 
HETATM   26  O           1     -21.816  -9.840  -3.771  0.00  0.00    -0.646 OA
HETATM   27  O           1     -20.989  -9.934  -5.770  0.00  0.00    -0.646 OA
ENDBRANCH  17  25
ENDBRANCH   2  17
TORSDOF 10
ENDMDL
MODEL 8
REMARK VINA RESULT:      -6.7      2.058      2.875
REMARK  10 active torsions:
REMARK  status: ('A' for Active; 'I' for Inactive)
REMARK    1  A    between atoms: N_1  and  C_17 
REMARK    2  A    between atoms: C_6  and  C_8 
REMARK    3  A    between atoms: C_6  and  C_7 
REMARK    4  A    between atoms: C_7  and  C_13 
REMARK    5  A    between atoms: C_8  and  N_25 
REMARK    6  A    between atoms: N_11  and  C_13 
REMARK       I    between atoms: N_11  and  C_19 
REMARK    7  A    between atoms: C_12  and  C_18 
REMARK    8  A    between atoms: C_13  and  C_14 
REMARK    9  A    between atoms: C_17  and  C_19 
REMARK   10  A    between atoms: C_17  and  C_18 
ROOT
HETATM    1  H           1     -22.592  -4.147  -6.988  0.00  0.00     0.163 HD
HETATM    2  N           1     -22.010  -4.846  -7.432  0.00  0.00    -0.345 N 
HETATM    3  C           1     -21.443  -5.840  -6.681  0.00  0.00     0.249 C 
HETATM    4  O           1     -20.747  -6.675  -7.211  0.00  0.00    -0.271 OA
ENDROOT
BRANCH   3   5
HETATM    5  C           1     -21.684  -5.894  -5.192  0.00  0.00     0.278 C 
BRANCH   5   6
HETATM    6  N           1     -23.132  -6.189  -4.932  0.00  0.00    -0.066 N 
HETATM    7  H           1     -23.661  -6.161  -5.833  0.00  0.00     0.275 HD
HETATM    8  H           1     -23.222  -7.138  -4.504  0.00  0.00     0.275 HD
HETATM    9  H           1     -23.520  -5.472  -4.279  0.00  0.00     0.275 HD
ENDBRANCH   5   6
BRANCH   5  10
HETATM   10  C           1     -20.824  -6.990  -4.577  0.00  0.00     0.081 C 
BRANCH  10  11
HETATM   11  C           1     -21.321  -7.301  -3.199  0.00  0.00    -0.056 A 
HETATM   12  C           1     -21.752  -6.270  -2.365  0.00  0.00     0.007 A 
HETATM   13  C           1     -22.215  -6.559  -1.082  0.00  0.00     0.001 A 
HETATM   14  C           1     -22.246  -7.880  -0.633  0.00  0.00     0.000 A 
HETATM   15  C           1     -21.815  -8.911  -1.468  0.00  0.00     0.001 A 
HETATM   16  C           1     -21.352  -8.621  -2.751  0.00  0.00     0.007 A 
ENDBRANCH  10  11
ENDBRANCH   5  10
ENDBRANCH   3   5
BRANCH   2  17
HETATM   17  C           1     -21.779  -4.795  -8.862  0.00  0.00     0.185 C 
BRANCH  17  18
HETATM   18  C           1     -22.750  -3.810  -9.500  0.00  0.00     0.038 C 
BRANCH  18  19
HETATM   19  C           1     -23.216  -4.356 -10.844  0.00  0.00     0.030 C 
BRANCH  19  20
HETATM   20  C           1     -22.846  -3.373 -11.947  0.00  0.00     0.230 C 
BRANCH  20  21
HETATM   21  N           1     -21.534  -3.771 -12.555  0.00  0.00    -0.079 N 
HETATM   22  H           1     -21.554  -4.789 -12.790  0.00  0.00     0.274 HD
HETATM   23  H           1     -21.369  -3.216 -13.424  0.00  0.00     0.274 HD
HETATM   24  H           1     -20.764  -3.586 -11.872  0.00  0.00     0.274 HD
ENDBRANCH  20  21
ENDBRANCH  19  20
ENDBRANCH  18  19
ENDBRANCH  17  18
BRANCH  17  25
HETATM   25  C           1     -20.363  -4.345  -9.126  0.00  0.00     0.196 C 
HETATM   26  O           1     -19.781  -3.599  -8.308  0.00  0.00    -0.646 OA
HETATM   27  O           1     -19.772  -4.717 -10.162  0.00  0.00    -0.646 OA
ENDBRANCH  17  25
ENDBRANCH   2  17
TORSDOF 10
ENDMDL
MODEL 9
REMARK VINA RESULT:      -6.7      3.030      7.797
REMARK  10 active torsions:
REMARK  status: ('A' for Active; 'I' for Inactive)
REMARK    1  A    between atoms: N_1  and  C_17 
REMARK    2  A    between atoms: C_6  and  C_8 
REMARK    3  A    between atoms: C_6  and  C_7 
REMARK    4  A    between atoms: C_7  and  C_13 
REMARK    5  A    between atoms: C_8  and  N_25 
REMARK    6  A    between atoms: N_11  and  C_13 
REMARK       I    between atoms: N_11  and  C_19 
REMARK    7  A    between atoms: C_12  and  C_18 
REMARK    8  A    between atoms: C_13  and  C_14 
REMARK    9  A    between atoms: C_17  and  C_19 
REMARK   10  A    between atoms: C_17  and  C_18 
ROOT
HETATM    1  H           1     -19.890  -6.580  -4.807  0.00  0.00     0.163 HD
HETATM    2  N           1     -20.902  -6.581  -4.812  0.00  0.00    -0.345 N 
HETATM    3  C           1     -21.582  -5.745  -5.656  0.00  0.00     0.249 C 
HETATM    4  O           1     -22.791  -5.746  -5.663  0.00  0.00    -0.271 OA
ENDROOT
BRANCH   3   5
HETATM    5  C           1     -20.824  -4.820  -6.577  0.00  0.00     0.278 C 
BRANCH   5   6
HETATM    6  N           1     -19.531  -4.420  -5.929  0.00  0.00    -0.066 N 
HETATM    7  H           1     -18.743  -4.950  -6.366  0.00  0.00     0.275 HD
HETATM    8  H           1     -19.378  -3.395  -6.061  0.00  0.00     0.275 HD
HETATM    9  H           1     -19.572  -4.639  -4.908  0.00  0.00     0.275 HD
ENDBRANCH   5   6
BRANCH   5  10
HETATM   10  C           1     -20.534  -5.535  -7.889  0.00  0.00     0.081 C 
BRANCH  10  11
HETATM   11  C           1     -21.093  -4.738  -9.027  0.00  0.00    -0.056 A 
HETATM   12  C           1     -22.420  -4.312  -8.993  0.00  0.00     0.007 A 
HETATM   13  C           1     -22.941  -3.569 -10.052  0.00  0.00     0.001 A 
HETATM   14  C           1     -22.135  -3.254 -11.146  0.00  0.00     0.000 A 
HETATM   15  C           1     -20.807  -3.680 -11.180  0.00  0.00     0.001 A 
HETATM   16  C           1     -20.286  -4.422 -10.120  0.00  0.00     0.007 A 
ENDBRANCH  10  11
ENDBRANCH   5  10
ENDBRANCH   3   5
BRANCH   2  17
HETATM   17  C           1     -21.631  -7.469  -3.929  0.00  0.00     0.185 C 
BRANCH  17  18
HETATM   18  C           1     -20.968  -8.840  -3.924  0.00  0.00     0.038 C 
BRANCH  18  19
HETATM   19  C           1     -19.662  -8.775  -4.706  0.00  0.00     0.030 C 
BRANCH  19  20
HETATM   20  C           1     -18.537  -9.366  -3.866  0.00  0.00     0.230 C 
BRANCH  20  21
HETATM   21  N           1     -19.021  -9.585  -2.464  0.00  0.00    -0.079 N 
HETATM   22  H           1     -19.115  -8.664  -1.980  0.00  0.00     0.274 HD
HETATM   23  H           1     -19.949 -10.063  -2.486  0.00  0.00     0.274 HD
HETATM   24  H           1     -18.335 -10.181  -1.949  0.00  0.00     0.274 HD
ENDBRANCH  20  21
ENDBRANCH  19  20
ENDBRANCH  18  19
ENDBRANCH  17  18
BRANCH  17  25
HETATM   25  C           1     -21.624  -6.903  -2.530  0.00  0.00     0.196 C 
HETATM   26  O           1     -20.907  -7.425  -1.648  0.00  0.00    -0.646 OA
HETATM   27  O           1     -22.335  -5.913  -2.252  0.00  0.00    -0.646 OA
ENDBRANCH  17  25
ENDBRANCH   2  17
TORSDOF 10
ENDMDL
