MODEL 1
REMARK VINA RESULT:      -6.6      0.000      0.000
REMARK  9 active torsions:
REMARK  status: ('A' for Active; 'I' for Inactive)
REMARK    1  A    between atoms: C_1  and  C_15 
REMARK    2  A    between atoms: C_1  and  C_8 
REMARK    3  A    between atoms: C_3  and  C_4 
REMARK    4  A    between atoms: C_4  and  C_8 
REMARK    5  A    between atoms: C_4  and  N_10 
REMARK    6  A    between atoms: C_5  and  C_6 
REMARK    7  A    between atoms: C_5  and  C_18 
REMARK    8  A    between atoms: C_6  and  C_7 
REMARK    9  A    between atoms: C_6  and  N_20 
REMARK       I    between atoms: C_7  and  N_10 
ROOT
HETATM    1  C           1     -21.470  -4.500  -8.175  0.00  0.00     0.249 C 
HETATM    2  H           1     -21.783  -5.663  -9.859  0.00  0.00     0.163 HD
HETATM    3  N           1     -21.950  -4.762  -9.431  0.00  0.00    -0.345 N 
HETATM    4  O           1     -21.671  -3.423  -7.665  0.00  0.00    -0.271 OA
ENDROOT
BRANCH   1   5
HETATM    5  C           1     -20.690  -5.555  -7.430  0.00  0.00     0.278 C 
BRANCH   5   6
HETATM    6  C           1     -21.453  -5.960  -6.176  0.00  0.00     0.021 C 
HETATM    7  C           1     -21.434  -7.476  -6.039  0.00  0.00     0.012 C 
BRANCH   6   8
HETATM    8  C           1     -20.793  -5.333  -4.956  0.00  0.00     0.002 C 
HETATM    9  C           1     -21.249  -6.063  -3.700  0.00  0.00     0.005 C 
ENDBRANCH   6   8
ENDBRANCH   5   6
BRANCH   5  10
HETATM   10  N           1     -19.349  -5.006  -7.044  0.00  0.00    -0.066 N 
HETATM   11  H           1     -19.194  -4.093  -7.529  0.00  0.00     0.275 HD
HETATM   12  H           1     -18.602  -5.681  -7.325  0.00  0.00     0.275 HD
HETATM   13  H           1     -19.315  -4.861  -6.010  0.00  0.00     0.275 HD
ENDBRANCH   5  10
ENDBRANCH   1   5
BRANCH   3  14
HETATM   14  C           1     -22.700  -3.748 -10.146  0.00  0.00     0.186 C 
BRANCH  14  15
HETATM   15  C           1     -24.171  -3.910  -9.853  0.00  0.00     0.196 C 
HETATM   16  O           1     -24.853  -2.922  -9.506  0.00  0.00    -0.646 OA
HETATM   17  O           1     -24.709  -5.034  -9.958  0.00  0.00    -0.646 OA
ENDBRANCH  14  15
BRANCH  14  18
HETATM   18  C           1     -22.459  -3.900 -11.642  0.00  0.00     0.046 C 
BRANCH  18  19
HETATM   19  C           1     -22.781  -2.588 -12.345  0.00  0.00     0.116 C 
BRANCH  19  20
HETATM   20  C           1     -23.851  -2.822 -13.384  0.00  0.00     0.172 C 
HETATM   21  O           1     -23.555  -2.819 -14.597  0.00  0.00    -0.648 OA
HETATM   22  O           1     -25.033  -3.019 -13.029  0.00  0.00    -0.648 OA
ENDBRANCH  19  20
ENDBRANCH  18  19
ENDBRANCH  14  18
ENDBRANCH   3  14
TORSDOF 9
ENDMDL
MODEL 2
REMARK VINA RESULT:      -6.2      2.041      2.603
REMARK  9 active torsions:
REMARK  status: ('A' for Active; 'I' for Inactive)
REMARK    1  A    between atoms: C_1  and  C_15 
REMARK    2  A    between atoms: C_1  and  C_8 
REMARK    3  A    between atoms: C_3  and  C_4 
REMARK    4  A    between atoms: C_4  and  C_8 
REMARK    5  A    between atoms: C_4  and  N_10 
REMARK    6  A    between atoms: C_5  and  C_6 
REMARK    7  A    between atoms: C_5  and  C_18 
REMARK    8  A    between atoms: C_6  and  C_7 
REMARK    9  A    between atoms: C_6  and  N_20 
REMARK       I    between atoms: C_7  and  N_10 
ROOT
HETATM    1  C           1     -22.004  -4.566  -8.563  0.00  0.00     0.249 C 
HETATM    2  H           1     -22.888  -2.771  -9.096  0.00  0.00     0.163 HD
HETATM    3  N           1     -22.431  -3.606  -9.441  0.00  0.00    -0.345 N 
HETATM    4  O           1     -21.459  -5.561  -8.976  0.00  0.00    -0.271 OA
ENDROOT
BRANCH   1   5
HETATM    5  C           1     -22.216  -4.380  -7.081  0.00  0.00     0.278 C 
BRANCH   5   6
HETATM    6  C           1     -21.384  -5.402  -6.317  0.00  0.00     0.021 C 
HETATM    7  C           1     -20.275  -4.686  -5.558  0.00  0.00     0.012 C 
BRANCH   6   8
HETATM    8  C           1     -22.275  -6.146  -5.332  0.00  0.00     0.002 C 
HETATM    9  C           1     -21.541  -6.310  -4.007  0.00  0.00     0.005 C 
ENDBRANCH   6   8
ENDBRANCH   5   6
BRANCH   5  10
HETATM   10  N           1     -23.667  -4.573  -6.755  0.00  0.00    -0.066 N 
HETATM   11  H           1     -23.990  -5.492  -7.134  0.00  0.00     0.275 HD
HETATM   12  H           1     -24.226  -3.802  -7.187  0.00  0.00     0.275 HD
HETATM   13  H           1     -23.798  -4.558  -5.718  0.00  0.00     0.275 HD
ENDBRANCH   5  10
ENDBRANCH   1   5
BRANCH   3  14
HETATM   14  C           1     -22.228  -3.784 -10.866  0.00  0.00     0.186 C 
BRANCH  14  15
HETATM   15  C           1     -20.800  -3.445 -11.216  0.00  0.00     0.196 C 
HETATM   16  O           1     -20.435  -2.251 -11.269  0.00  0.00    -0.646 OA
HETATM   17  O           1     -19.981  -4.360 -11.454  0.00  0.00    -0.646 OA
ENDBRANCH  14  15
BRANCH  14  18
HETATM   18  C           1     -23.171  -2.866 -11.632  0.00  0.00     0.046 C 
BRANCH  18  19
HETATM   19  C           1     -23.668  -3.578 -12.884  0.00  0.00     0.116 C 
BRANCH  19  20
HETATM   20  C           1     -23.492  -2.674 -14.080  0.00  0.00     0.172 C 
HETATM   21  O           1     -24.221  -1.668 -14.215  0.00  0.00    -0.648 OA
HETATM   22  O           1     -22.617  -2.931 -14.935  0.00  0.00    -0.648 OA
ENDBRANCH  19  20
ENDBRANCH  18  19
ENDBRANCH  14  18
ENDBRANCH   3  14
TORSDOF 9
ENDMDL
MODEL 3
REMARK VINA RESULT:      -6.1      2.757      7.363
REMARK  9 active torsions:
REMARK  status: ('A' for Active; 'I' for Inactive)
REMARK    1  A    between atoms: C_1  and  C_15 
REMARK    2  A    between atoms: C_1  and  C_8 
REMARK    3  A    between atoms: C_3  and  C_4 
REMARK    4  A    between atoms: C_4  and  C_8 
REMARK    5  A    between atoms: C_4  and  N_10 
REMARK    6  A    between atoms: C_5  and  C_6 
REMARK    7  A    between atoms: C_5  and  C_18 
REMARK    8  A    between atoms: C_6  and  C_7 
REMARK    9  A    between atoms: C_6  and  N_20 
REMARK       I    between atoms: C_7  and  N_10 
ROOT
HETATM    1  C           1     -22.330  -4.124  -8.190  0.00  0.00     0.249 C 
HETATM    2  H           1     -22.600  -6.119  -7.709  0.00  0.00     0.163 HD
HETATM    3  N           1     -22.122  -5.263  -7.459  0.00  0.00    -0.345 N 
HETATM    4  O           1     -21.759  -3.102  -7.891  0.00  0.00    -0.271 OA
ENDROOT
BRANCH   1   5
HETATM    5  C           1     -23.272  -4.145  -9.369  0.00  0.00     0.278 C 
BRANCH   5   6
HETATM    6  C           1     -22.626  -3.431 -10.548  0.00  0.00     0.021 C 
HETATM    7  C           1     -21.641  -4.370 -11.231  0.00  0.00     0.012 C 
BRANCH   6   8
HETATM    8  C           1     -23.703  -3.016 -11.541  0.00  0.00     0.002 C 
HETATM    9  C           1     -23.078  -2.818 -12.915  0.00  0.00     0.005 C 
ENDBRANCH   6   8
ENDBRANCH   5   6
BRANCH   5  10
HETATM   10  N           1     -24.549  -3.449  -9.001  0.00  0.00    -0.066 N 
HETATM   11  H           1     -24.617  -2.548  -9.526  0.00  0.00     0.275 HD
HETATM   12  H           1     -24.556  -3.256  -7.973  0.00  0.00     0.275 HD
HETATM   13  H           1     -25.362  -4.058  -9.245  0.00  0.00     0.275 HD
ENDBRANCH   5  10
ENDBRANCH   1   5
BRANCH   3  14
HETATM   14  C           1     -21.217  -5.243  -6.327  0.00  0.00     0.186 C 
BRANCH  14  15
HETATM   15  C           1     -19.838  -5.660  -6.778  0.00  0.00     0.196 C 
HETATM   16  O           1     -18.973  -4.793  -7.028  0.00  0.00    -0.646 OA
HETATM   17  O           1     -19.562  -6.873  -6.901  0.00  0.00    -0.646 OA
ENDBRANCH  14  15
BRANCH  14  18
HETATM   18  C           1     -21.716  -6.208  -5.260  0.00  0.00     0.046 C 
BRANCH  18  19
HETATM   19  C           1     -21.073  -5.866  -3.923  0.00  0.00     0.116 C 
BRANCH  19  20
HETATM   20  C           1     -21.799  -6.589  -2.815  0.00  0.00     0.172 C 
HETATM   21  O           1     -22.584  -5.963  -2.071  0.00  0.00    -0.648 OA
HETATM   22  O           1     -21.615  -7.813  -2.642  0.00  0.00    -0.648 OA
ENDBRANCH  19  20
ENDBRANCH  18  19
ENDBRANCH  14  18
ENDBRANCH   3  14
TORSDOF 9
ENDMDL
MODEL 4
REMARK VINA RESULT:      -5.7      4.436      8.044
REMARK  9 active torsions:
REMARK  status: ('A' for Active; 'I' for Inactive)
REMARK    1  A    between atoms: C_1  and  C_15 
REMARK    2  A    between atoms: C_1  and  C_8 
REMARK    3  A    between atoms: C_3  and  C_4 
REMARK    4  A    between atoms: C_4  and  C_8 
REMARK    5  A    between atoms: C_4  and  N_10 
REMARK    6  A    between atoms: C_5  and  C_6 
REMARK    7  A    between atoms: C_5  and  C_18 
REMARK    8  A    between atoms: C_6  and  C_7 
REMARK    9  A    between atoms: C_6  and  N_20 
REMARK       I    between atoms: C_7  and  N_10 
ROOT
HETATM    1  C           1     -21.268  -5.934  -5.735  0.00  0.00     0.249 C 
HETATM    2  H           1     -21.557  -7.938  -6.169  0.00  0.00     0.163 HD
HETATM    3  N           1     -21.125  -7.281  -5.532  0.00  0.00    -0.345 N 
HETATM    4  O           1     -20.752  -5.151  -4.974  0.00  0.00    -0.271 OA
ENDROOT
BRANCH   1   5
HETATM    5  C           1     -22.071  -5.429  -6.908  0.00  0.00     0.278 C 
BRANCH   5   6
HETATM    6  C           1     -21.313  -4.302  -7.596  0.00  0.00     0.021 C 
HETATM    7  C           1     -20.103  -4.873  -8.322  0.00  0.00     0.012 C 
BRANCH   6   8
HETATM    8  C           1     -22.228  -3.613  -8.598  0.00  0.00     0.002 C 
HETATM    9  C           1     -22.244  -4.404  -9.899  0.00  0.00     0.005 C 
ENDBRANCH   6   8
ENDBRANCH   5   6
BRANCH   5  10
HETATM   10  N           1     -23.397  -4.919  -6.425  0.00  0.00    -0.066 N 
HETATM   11  H           1     -23.799  -5.596  -5.737  0.00  0.00     0.275 HD
HETATM   12  H           1     -24.047  -4.818  -7.237  0.00  0.00     0.275 HD
HETATM   13  H           1     -23.267  -3.990  -5.965  0.00  0.00     0.275 HD
ENDBRANCH   5  10
ENDBRANCH   1   5
BRANCH   3  14
HETATM   14  C           1     -20.353  -7.766  -4.404  0.00  0.00     0.186 C 
BRANCH  14  15
HETATM   15  C           1     -19.445  -8.882  -4.859  0.00  0.00     0.196 C 
HETATM   16  O           1     -19.242  -9.866  -4.116  0.00  0.00    -0.646 OA
HETATM   17  O           1     -18.895  -8.822  -5.981  0.00  0.00    -0.646 OA
ENDBRANCH  14  15
BRANCH  14  18
HETATM   18  C           1     -21.297  -8.285  -3.328  0.00  0.00     0.046 C 
BRANCH  18  19
HETATM   19  C           1     -21.003  -7.581  -2.010  0.00  0.00     0.116 C 
BRANCH  19  20
HETATM   20  C           1     -22.201  -6.759  -1.600  0.00  0.00     0.172 C 
HETATM   21  O           1     -22.761  -6.975  -0.504  0.00  0.00    -0.648 OA
HETATM   22  O           1     -22.632  -5.862  -2.357  0.00  0.00    -0.648 OA
ENDBRANCH  19  20
ENDBRANCH  18  19
ENDBRANCH  14  18
ENDBRANCH   3  14
TORSDOF 9
ENDMDL
MODEL 5
REMARK VINA RESULT:      -5.5      6.446      9.407
REMARK  9 active torsions:
REMARK  status: ('A' for Active; 'I' for Inactive)
REMARK    1  A    between atoms: C_1  and  C_15 
REMARK    2  A    between atoms: C_1  and  C_8 
REMARK    3  A    between atoms: C_3  and  C_4 
REMARK    4  A    between atoms: C_4  and  C_8 
REMARK    5  A    between atoms: C_4  and  N_10 
REMARK    6  A    between atoms: C_5  and  C_6 
REMARK    7  A    between atoms: C_5  and  C_18 
REMARK    8  A    between atoms: C_6  and  C_7 
REMARK    9  A    between atoms: C_6  and  N_20 
REMARK       I    between atoms: C_7  and  N_10 
ROOT
HETATM    1  C           1     -21.403 -10.129  -0.755  0.00  0.00     0.249 C 
HETATM    2  H           1     -22.329  -9.482  -2.490  0.00  0.00     0.163 HD
HETATM    3  N           1     -21.724  -9.216  -1.724  0.00  0.00    -0.345 N 
HETATM    4  O           1     -20.682  -9.810   0.160  0.00  0.00    -0.271 OA
ENDROOT
BRANCH   1   5
HETATM    5  C           1     -21.951 -11.533  -0.831  0.00  0.00     0.278 C 
BRANCH   5   6
HETATM    6  C           1     -22.981 -11.738   0.272  0.00  0.00     0.021 C 
HETATM    7  C           1     -24.237 -10.943  -0.054  0.00  0.00     0.012 C 
BRANCH   6   8
HETATM    8  C           1     -23.328 -13.216   0.374  0.00  0.00     0.002 C 
HETATM    9  C           1     -23.323 -13.639   1.837  0.00  0.00     0.005 C 
ENDBRANCH   6   8
ENDBRANCH   5   6
BRANCH   5  10
HETATM   10  N           1     -20.831 -12.517  -0.658  0.00  0.00    -0.066 N 
HETATM   11  H           1     -20.747 -12.773   0.352  0.00  0.00     0.275 HD
HETATM   12  H           1     -19.936 -12.085  -0.984  0.00  0.00     0.275 HD
HETATM   13  H           1     -21.029 -13.374  -1.221  0.00  0.00     0.275 HD
ENDBRANCH   5  10
ENDBRANCH   1   5
BRANCH   3  14
HETATM   14  C           1     -21.199  -7.867  -1.651  0.00  0.00     0.186 C 
BRANCH  14  15
HETATM   15  C           1     -22.292  -6.924  -1.210  0.00  0.00     0.196 C 
HETATM   16  O           1     -23.039  -7.234  -0.257  0.00  0.00    -0.646 OA
HETATM   17  O           1     -22.450  -5.833  -1.800  0.00  0.00    -0.646 OA
ENDBRANCH  14  15
BRANCH  14  18
HETATM   18  C           1     -20.686  -7.447  -3.022  0.00  0.00     0.046 C 
BRANCH  18  19
HETATM   19  C           1     -21.478  -8.168  -4.104  0.00  0.00     0.116 C 
BRANCH  19  20
HETATM   20  C           1     -21.777  -7.211  -5.232  0.00  0.00     0.172 C 
HETATM   21  O           1     -22.597  -6.284  -5.064  0.00  0.00    -0.648 OA
HETATM   22  O           1     -21.204  -7.347  -6.335  0.00  0.00    -0.648 OA
ENDBRANCH  19  20
ENDBRANCH  18  19
ENDBRANCH  14  18
ENDBRANCH   3  14
TORSDOF 9
ENDMDL
MODEL 6
REMARK VINA RESULT:      -5.4      3.921      7.594
REMARK  9 active torsions:
REMARK  status: ('A' for Active; 'I' for Inactive)
REMARK    1  A    between atoms: C_1  and  C_15 
REMARK    2  A    between atoms: C_1  and  C_8 
REMARK    3  A    between atoms: C_3  and  C_4 
REMARK    4  A    between atoms: C_4  and  C_8 
REMARK    5  A    between atoms: C_4  and  N_10 
REMARK    6  A    between atoms: C_5  and  C_6 
REMARK    7  A    between atoms: C_5  and  C_18 
REMARK    8  A    between atoms: C_6  and  C_7 
REMARK    9  A    between atoms: C_6  and  N_20 
REMARK       I    between atoms: C_7  and  N_10 
ROOT
HETATM    1  C           1     -21.686  -5.557  -5.795  0.00  0.00     0.249 C 
HETATM    2  H           1     -19.932  -6.313  -4.996  0.00  0.00     0.163 HD
HETATM    3  N           1     -20.942  -6.382  -4.994  0.00  0.00    -0.345 N 
HETATM    4  O           1     -22.891  -5.639  -5.791  0.00  0.00    -0.271 OA
ENDROOT
BRANCH   1   5
HETATM    5  C           1     -21.001  -4.548  -6.682  0.00  0.00     0.278 C 
BRANCH   5   6
HETATM    6  C           1     -21.370  -4.815  -8.135  0.00  0.00     0.021 C 
HETATM    7  C           1     -22.369  -3.766  -8.606  0.00  0.00     0.012 C 
BRANCH   6   8
HETATM    8  C           1     -20.118  -4.746  -8.998  0.00  0.00     0.002 C 
HETATM    9  C           1     -20.496  -4.317 -10.409  0.00  0.00     0.005 C 
ENDBRANCH   6   8
ENDBRANCH   5   6
BRANCH   5  10
HETATM   10  N           1     -19.515  -4.662  -6.515  0.00  0.00    -0.066 N 
HETATM   11  H           1     -19.207  -5.622  -6.791  0.00  0.00     0.275 HD
HETATM   12  H           1     -19.263  -4.488  -5.516  0.00  0.00     0.275 HD
HETATM   13  H           1     -19.040  -3.956  -7.121  0.00  0.00     0.275 HD
ENDBRANCH   5  10
ENDBRANCH   1   5
BRANCH   3  14
HETATM   14  C           1     -21.600  -7.352  -4.141  0.00  0.00     0.186 C 
BRANCH  14  15
HETATM   15  C           1     -21.623  -6.840  -2.722  0.00  0.00     0.196 C 
HETATM   16  O           1     -22.417  -5.930  -2.398  0.00  0.00    -0.646 OA
HETATM   17  O           1     -20.849  -7.326  -1.869  0.00  0.00    -0.646 OA
ENDBRANCH  14  15
BRANCH  14  18
HETATM   18  C           1     -20.841  -8.671  -4.193  0.00  0.00     0.046 C 
BRANCH  18  19
HETATM   19  C           1     -19.521  -8.470  -4.925  0.00  0.00     0.116 C 
BRANCH  19  20
HETATM   20  C           1     -18.958  -9.813  -5.325  0.00  0.00     0.172 C 
HETATM   21  O           1     -19.642 -10.596  -6.016  0.00  0.00    -0.648 OA
HETATM   22  O           1     -17.807 -10.140  -4.963  0.00  0.00    -0.648 OA
ENDBRANCH  19  20
ENDBRANCH  18  19
ENDBRANCH  14  18
ENDBRANCH   3  14
TORSDOF 9
ENDMDL
MODEL 7
REMARK VINA RESULT:      -5.4      5.857      8.290
REMARK  9 active torsions:
REMARK  status: ('A' for Active; 'I' for Inactive)
REMARK    1  A    between atoms: C_1  and  C_15 
REMARK    2  A    between atoms: C_1  and  C_8 
REMARK    3  A    between atoms: C_3  and  C_4 
REMARK    4  A    between atoms: C_4  and  C_8 
REMARK    5  A    between atoms: C_4  and  N_10 
REMARK    6  A    between atoms: C_5  and  C_6 
REMARK    7  A    between atoms: C_5  and  C_18 
REMARK    8  A    between atoms: C_6  and  C_7 
REMARK    9  A    between atoms: C_6  and  N_20 
REMARK       I    between atoms: C_7  and  N_10 
ROOT
HETATM    1  C           1     -21.047  -9.093  -2.563  0.00  0.00     0.249 C 
HETATM    2  H           1     -19.278  -8.037  -2.766  0.00  0.00     0.163 HD
HETATM    3  N           1     -19.987  -8.570  -3.254  0.00  0.00    -0.345 N 
HETATM    4  O           1     -21.892  -9.730  -3.146  0.00  0.00    -0.271 OA
ENDROOT
BRANCH   1   5
HETATM    5  C           1     -21.160  -8.873  -1.074  0.00  0.00     0.278 C 
BRANCH   5   6
HETATM    6  C           1     -21.730 -10.123  -0.418  0.00  0.00     0.021 C 
HETATM    7  C           1     -20.923 -10.454   0.830  0.00  0.00     0.012 C 
BRANCH   6   8
HETATM    8  C           1     -23.182  -9.876  -0.032  0.00  0.00     0.002 C 
HETATM    9  C           1     -24.024 -11.082  -0.425  0.00  0.00     0.005 C 
ENDBRANCH   6   8
ENDBRANCH   5   6
BRANCH   5  10
HETATM   10  N           1     -22.069  -7.710  -0.808  0.00  0.00    -0.066 N 
HETATM   11  H           1     -21.497  -6.843  -0.685  0.00  0.00     0.275 HD
HETATM   12  H           1     -22.620  -7.891   0.062  0.00  0.00     0.275 HD
HETATM   13  H           1     -22.722  -7.585  -1.614  0.00  0.00     0.275 HD
ENDBRANCH   5  10
ENDBRANCH   1   5
BRANCH   3  14
HETATM   14  C           1     -19.878  -8.781  -4.684  0.00  0.00     0.186 C 
BRANCH  14  15
HETATM   15  C           1     -18.512  -9.335  -5.008  0.00  0.00     0.196 C 
HETATM   16  O           1     -17.735  -9.664  -4.086  0.00  0.00    -0.646 OA
HETATM   17  O           1     -18.157  -9.464  -6.200  0.00  0.00    -0.646 OA
ENDBRANCH  14  15
BRANCH  14  18
HETATM   18  C           1     -20.075  -7.457  -5.409  0.00  0.00     0.046 C 
BRANCH  18  19
HETATM   19  C           1     -21.530  -7.324  -5.838  0.00  0.00     0.116 C 
BRANCH  19  20
HETATM   20  C           1     -22.240  -6.359  -4.920  0.00  0.00     0.172 C 
HETATM   21  O           1     -21.656  -5.918  -3.906  0.00  0.00    -0.648 OA
HETATM   22  O           1     -23.410  -6.000  -5.173  0.00  0.00    -0.648 OA
ENDBRANCH  19  20
ENDBRANCH  18  19
ENDBRANCH  14  18
ENDBRANCH   3  14
TORSDOF 9
ENDMDL
MODEL 8
REMARK VINA RESULT:      -5.3      5.439      8.047
REMARK  9 active torsions:
REMARK  status: ('A' for Active; 'I' for Inactive)
REMARK    1  A    between atoms: C_1  and  C_15 
REMARK    2  A    between atoms: C_1  and  C_8 
REMARK    3  A    between atoms: C_3  and  C_4 
REMARK    4  A    between atoms: C_4  and  C_8 
REMARK    5  A    between atoms: C_4  and  N_10 
REMARK    6  A    between atoms: C_5  and  C_6 
REMARK    7  A    between atoms: C_5  and  C_18 
REMARK    8  A    between atoms: C_6  and  C_7 
REMARK    9  A    between atoms: C_6  and  N_20 
REMARK       I    between atoms: C_7  and  N_10 
ROOT
HETATM    1  C           1     -21.661 -10.186  -2.729  0.00  0.00     0.249 C 
HETATM    2  H           1     -20.458  -8.611  -2.131  0.00  0.00     0.163 HD
HETATM    3  N           1     -20.877  -9.080  -2.923  0.00  0.00    -0.345 N 
HETATM    4  O           1     -22.161 -10.745  -3.677  0.00  0.00    -0.271 OA
ENDROOT
BRANCH   1   5
HETATM    5  C           1     -21.901 -10.705  -1.333  0.00  0.00     0.278 C 
BRANCH   5   6
HETATM    6  C           1     -23.033  -9.918  -0.686  0.00  0.00     0.021 C 
HETATM    7  C           1     -23.995 -10.882  -0.005  0.00  0.00     0.012 C 
BRANCH   6   8
HETATM    8  C           1     -22.458  -8.960   0.348  0.00  0.00     0.002 C 
HETATM    9  C           1     -22.638  -7.527  -0.132  0.00  0.00     0.005 C 
ENDBRANCH   6   8
ENDBRANCH   5   6
BRANCH   5  10
HETATM   10  N           1     -20.652 -10.546  -0.519  0.00  0.00    -0.066 N 
HETATM   11  H           1     -20.061 -11.403  -0.618  0.00  0.00     0.275 HD
HETATM   12  H           1     -20.906 -10.412   0.486  0.00  0.00     0.275 HD
HETATM   13  H           1     -20.118  -9.714  -0.857  0.00  0.00     0.275 HD
ENDBRANCH   5  10
ENDBRANCH   1   5
BRANCH   3  14
HETATM   14  C           1     -20.646  -8.580  -4.265  0.00  0.00     0.186 C 
BRANCH  14  15
HETATM   15  C           1     -19.241  -8.923  -4.694  0.00  0.00     0.196 C 
HETATM   16  O           1     -18.353  -9.113  -3.835  0.00  0.00    -0.646 OA
HETATM   17  O           1     -18.964  -9.016  -5.910  0.00  0.00    -0.646 OA
ENDBRANCH  14  15
BRANCH  14  18
HETATM   18  C           1     -20.830  -7.069  -4.283  0.00  0.00     0.046 C 
BRANCH  18  19
HETATM   19  C           1     -21.468  -6.649  -5.600  0.00  0.00     0.116 C 
BRANCH  19  20
HETATM   20  C           1     -20.487  -5.822  -6.395  0.00  0.00     0.172 C 
HETATM   21  O           1     -20.070  -6.237  -7.498  0.00  0.00    -0.648 OA
HETATM   22  O           1     -20.090  -4.724  -5.949  0.00  0.00    -0.648 OA
ENDBRANCH  19  20
ENDBRANCH  18  19
ENDBRANCH  14  18
ENDBRANCH   3  14
TORSDOF 9
ENDMDL
MODEL 9
REMARK VINA RESULT:      -5.2      5.319      7.712
REMARK  9 active torsions:
REMARK  status: ('A' for Active; 'I' for Inactive)
REMARK    1  A    between atoms: C_1  and  C_15 
REMARK    2  A    between atoms: C_1  and  C_8 
REMARK    3  A    between atoms: C_3  and  C_4 
REMARK    4  A    between atoms: C_4  and  C_8 
REMARK    5  A    between atoms: C_4  and  N_10 
REMARK    6  A    between atoms: C_5  and  C_6 
REMARK    7  A    between atoms: C_5  and  C_18 
REMARK    8  A    between atoms: C_6  and  C_7 
REMARK    9  A    between atoms: C_6  and  N_20 
REMARK       I    between atoms: C_7  and  N_10 
ROOT
HETATM    1  C           1     -20.851  -9.407  -2.131  0.00  0.00     0.249 C 
HETATM    2  H           1     -22.575  -9.110  -3.238  0.00  0.00     0.163 HD
HETATM    3  N           1     -21.640  -8.771  -3.053  0.00  0.00    -0.345 N 
HETATM    4  O           1     -19.734  -9.001  -1.910  0.00  0.00    -0.271 OA
ENDROOT
BRANCH   1   5
HETATM    5  C           1     -21.376 -10.613  -1.392  0.00  0.00     0.278 C 
BRANCH   5   6
HETATM    6  C           1     -22.625 -10.227  -0.612  0.00  0.00     0.021 C 
HETATM    7  C           1     -23.266 -11.480  -0.030  0.00  0.00     0.012 C 
BRANCH   6   8
HETATM    8  C           1     -22.244  -9.281   0.518  0.00  0.00     0.002 C 
HETATM    9  C           1     -23.108  -8.029   0.445  0.00  0.00     0.005 C 
ENDBRANCH   6   8
ENDBRANCH   5   6
BRANCH   5  10
HETATM   10  N           1     -20.327 -11.114  -0.443  0.00  0.00    -0.066 N 
HETATM   11  H           1     -20.777 -11.712   0.287  0.00  0.00     0.275 HD
HETATM   12  H           1     -19.855 -10.301   0.014  0.00  0.00     0.275 HD
HETATM   13  H           1     -19.621 -11.676  -0.969  0.00  0.00     0.275 HD
ENDBRANCH   5  10
ENDBRANCH   1   5
BRANCH   3  14
HETATM   14  C           1     -21.135  -7.612  -3.763  0.00  0.00     0.186 C 
BRANCH  14  15
HETATM   15  C           1     -22.080  -6.452  -3.566  0.00  0.00     0.196 C 
HETATM   16  O           1     -22.802  -6.066  -4.510  0.00  0.00    -0.646 OA
HETATM   17  O           1     -22.139  -5.876  -2.458  0.00  0.00    -0.646 OA
ENDBRANCH  14  15
BRANCH  14  18
HETATM   18  C           1     -21.026  -7.933  -5.247  0.00  0.00     0.046 C 
BRANCH  18  19
HETATM   19  C           1     -19.753  -7.315  -5.809  0.00  0.00     0.116 C 
BRANCH  19  20
HETATM   20  C           1     -20.098  -6.061  -6.575  0.00  0.00     0.172 C 
HETATM   21  O           1     -20.791  -6.134  -7.612  0.00  0.00    -0.648 OA
HETATM   22  O           1     -19.690  -4.951  -6.173  0.00  0.00    -0.648 OA
ENDBRANCH  19  20
ENDBRANCH  18  19
ENDBRANCH  14  18
ENDBRANCH   3  14
TORSDOF 9
ENDMDL
