MODEL 1
REMARK VINA RESULT:      -6.2      0.000      0.000
REMARK  12 active torsions:
REMARK  status: ('A' for Active; 'I' for Inactive)
REMARK    1  A    between atoms: C_3  and  C_23 
REMARK    2  A    between atoms: C_3  and  S_21 
REMARK    3  A    between atoms: C_6  and  C_15 
REMARK    4  A    between atoms: C_6  and  C_9 
REMARK    5  A    between atoms: C_6  and  N_10 
REMARK       I    between atoms: N_10  and  C_13 
REMARK    6  A    between atoms: C_13  and  C_14 
REMARK    7  A    between atoms: C_14  and  C_23 
REMARK    8  A    between atoms: C_14  and  N_25 
REMARK    9  A    between atoms: C_15  and  C_19 
REMARK   10  A    between atoms: N_16  and  C_17 
REMARK   11  A    between atoms: C_17  and  C_18 
REMARK   12  A    between atoms: C_18  and  C_19 
ROOT
HETATM    1  H           1     -22.351  -5.832  -9.377  0.00  0.00     0.163 HD
HETATM    2  N           1     -22.299  -4.899  -8.991  0.00  0.00    -0.345 N 
HETATM    3  C           1     -21.733  -4.697  -7.761  0.00  0.00     0.249 C 
HETATM    4  O           1     -21.669  -3.583  -7.300  0.00  0.00    -0.271 OA
ENDROOT
BRANCH   2   5
HETATM    5  C           1     -22.822  -3.773  -9.741  0.00  0.00     0.185 C 
BRANCH   5   6
HETATM    6  C           1     -22.365  -3.873 -11.190  0.00  0.00     0.036 C 
BRANCH   6   7
HETATM    7  C           1     -22.670  -2.566 -11.910  0.00  0.00     0.004 C 
BRANCH   7   8
HETATM    8  C           1     -23.794  -2.789 -12.913  0.00  0.00     0.027 C 
BRANCH   8   9
HETATM    9  C           1     -23.411  -2.174 -14.252  0.00  0.00     0.229 C 
BRANCH   9  10
HETATM   10  N           1     -22.366  -3.025 -14.912  0.00  0.00    -0.079 N 
HETATM   11  H           1     -21.838  -3.556 -14.183  0.00  0.00     0.274 HD
HETATM   12  H           1     -21.707  -2.415 -15.446  0.00  0.00     0.274 HD
HETATM   13  H           1     -22.826  -3.697 -15.567  0.00  0.00     0.274 HD
ENDBRANCH   9  10
ENDBRANCH   8   9
ENDBRANCH   7   8
ENDBRANCH   6   7
ENDBRANCH   5   6
BRANCH   5  14
HETATM   14  C           1     -24.329  -3.789  -9.686  0.00  0.00     0.196 C 
HETATM   15  O           1     -24.957  -2.737  -9.436  0.00  0.00    -0.646 OA
HETATM   16  O           1     -24.951  -4.854  -9.890  0.00  0.00    -0.646 OA
ENDBRANCH   5  14
ENDBRANCH   2   5
BRANCH   3  17
HETATM   17  C           1     -21.188  -5.868  -6.980  0.00  0.00     0.275 C 
BRANCH  17  18
HETATM   18  C           1     -21.218  -5.546  -5.493  0.00  0.00     0.053 C 
BRANCH  18  19
HETATM   19  C           1     -22.126  -6.535  -4.775  0.00  0.00     0.076 C 
BRANCH  19  20
HETATM   20  S           1     -21.260  -7.219  -3.334  0.00  0.00    -0.173 SA
HETATM   21  C           1     -22.102  -6.197  -2.093  0.00  0.00     0.089 C 
ENDBRANCH  19  20
ENDBRANCH  18  19
ENDBRANCH  17  18
BRANCH  17  22
HETATM   22  N           1     -19.775  -6.137  -7.405  0.00  0.00    -0.066 N 
HETATM   23  H           1     -19.149  -6.114  -6.569  0.00  0.00     0.275 HD
HETATM   24  H           1     -19.472  -5.407  -8.089  0.00  0.00     0.275 HD
HETATM   25  H           1     -19.719  -7.079  -7.855  0.00  0.00     0.275 HD
ENDBRANCH  17  22
ENDBRANCH   3  17
TORSDOF 12
ENDMDL
MODEL 2
REMARK VINA RESULT:      -6.2     12.012     13.736
REMARK  12 active torsions:
REMARK  status: ('A' for Active; 'I' for Inactive)
REMARK    1  A    between atoms: C_3  and  C_23 
REMARK    2  A    between atoms: C_3  and  S_21 
REMARK    3  A    between atoms: C_6  and  C_15 
REMARK    4  A    between atoms: C_6  and  C_9 
REMARK    5  A    between atoms: C_6  and  N_10 
REMARK       I    between atoms: N_10  and  C_13 
REMARK    6  A    between atoms: C_13  and  C_14 
REMARK    7  A    between atoms: C_14  and  C_23 
REMARK    8  A    between atoms: C_14  and  N_25 
REMARK    9  A    between atoms: C_15  and  C_19 
REMARK   10  A    between atoms: N_16  and  C_17 
REMARK   11  A    between atoms: C_17  and  C_18 
REMARK   12  A    between atoms: C_18  and  C_19 
ROOT
HETATM    1  H           1     -32.408  -3.657 -14.328  0.00  0.00     0.163 HD
HETATM    2  N           1     -33.343  -4.043 -14.305  0.00  0.00    -0.345 N 
HETATM    3  C           1     -33.911  -4.529 -15.452  0.00  0.00     0.249 C 
HETATM    4  O           1     -35.027  -4.991 -15.424  0.00  0.00    -0.271 OA
ENDROOT
BRANCH   2   5
HETATM    5  C           1     -34.081  -4.084 -13.057  0.00  0.00     0.185 C 
BRANCH   5   6
HETATM    6  C           1     -33.108  -4.255 -11.898  0.00  0.00     0.036 C 
BRANCH   6   7
HETATM    7  C           1     -33.300  -5.631 -11.273  0.00  0.00     0.004 C 
BRANCH   7   8
HETATM    8  C           1     -34.487  -5.595 -10.320  0.00  0.00     0.027 C 
BRANCH   8   9
HETATM    9  C           1     -34.793  -7.006  -9.835  0.00  0.00     0.229 C 
BRANCH   9  10
HETATM   10  N           1     -34.837  -7.939 -11.009  0.00  0.00    -0.079 N 
HETATM   11  H           1     -34.452  -8.870 -10.728  0.00  0.00     0.274 HD
HETATM   12  H           1     -34.265  -7.545 -11.789  0.00  0.00     0.274 HD
HETATM   13  H           1     -35.826  -8.054 -11.327  0.00  0.00     0.274 HD
ENDBRANCH   9  10
ENDBRANCH   8   9
ENDBRANCH   7   8
ENDBRANCH   6   7
ENDBRANCH   5   6
BRANCH   5  14
HETATM   14  C           1     -34.848  -2.796 -12.884  0.00  0.00     0.196 C 
HETATM   15  O           1     -35.511  -2.599 -11.843  0.00  0.00    -0.646 OA
HETATM   16  O           1     -34.821  -1.927 -13.782  0.00  0.00    -0.646 OA
ENDBRANCH   5  14
ENDBRANCH   2   5
BRANCH   3  17
HETATM   17  C           1     -33.144  -4.487 -16.750  0.00  0.00     0.275 C 
BRANCH  17  18
HETATM   18  C           1     -31.672  -4.765 -16.479  0.00  0.00     0.053 C 
BRANCH  18  19
HETATM   19  C           1     -31.256  -6.045 -17.193  0.00  0.00     0.076 C 
BRANCH  19  20
HETATM   20  S           1     -29.570  -6.496 -16.697  0.00  0.00    -0.173 SA
HETATM   21  C           1     -28.848  -6.431 -18.361  0.00  0.00     0.089 C 
ENDBRANCH  19  20
ENDBRANCH  18  19
ENDBRANCH  17  18
BRANCH  17  22
HETATM   22  N           1     -33.288  -3.129 -17.371  0.00  0.00    -0.066 N 
HETATM   23  H           1     -34.106  -3.128 -18.020  0.00  0.00     0.275 HD
HETATM   24  H           1     -32.419  -2.895 -17.904  0.00  0.00     0.275 HD
HETATM   25  H           1     -33.438  -2.416 -16.622  0.00  0.00     0.275 HD
ENDBRANCH  17  22
ENDBRANCH   3  17
TORSDOF 12
ENDMDL
MODEL 3
REMARK VINA RESULT:      -5.7      2.213      2.971
REMARK  12 active torsions:
REMARK  status: ('A' for Active; 'I' for Inactive)
REMARK    1  A    between atoms: C_3  and  C_23 
REMARK    2  A    between atoms: C_3  and  S_21 
REMARK    3  A    between atoms: C_6  and  C_15 
REMARK    4  A    between atoms: C_6  and  C_9 
REMARK    5  A    between atoms: C_6  and  N_10 
REMARK       I    between atoms: N_10  and  C_13 
REMARK    6  A    between atoms: C_13  and  C_14 
REMARK    7  A    between atoms: C_14  and  C_23 
REMARK    8  A    between atoms: C_14  and  N_25 
REMARK    9  A    between atoms: C_15  and  C_19 
REMARK   10  A    between atoms: N_16  and  C_17 
REMARK   11  A    between atoms: C_17  and  C_18 
REMARK   12  A    between atoms: C_18  and  C_19 
ROOT
HETATM    1  H           1     -22.321  -4.050  -6.714  0.00  0.00     0.163 HD
HETATM    2  N           1     -21.897  -4.809  -7.233  0.00  0.00    -0.345 N 
HETATM    3  C           1     -21.396  -5.896  -6.569  0.00  0.00     0.249 C 
HETATM    4  O           1     -20.891  -6.802  -7.188  0.00  0.00    -0.271 OA
ENDROOT
BRANCH   2   5
HETATM    5  C           1     -21.822  -4.745  -8.679  0.00  0.00     0.185 C 
BRANCH   5   6
HETATM    6  C           1     -22.929  -3.841  -9.205  0.00  0.00     0.036 C 
BRANCH   6   7
HETATM    7  C           1     -23.945  -4.677  -9.973  0.00  0.00     0.004 C 
BRANCH   7   8
HETATM    8  C           1     -23.474  -4.856 -11.410  0.00  0.00     0.027 C 
BRANCH   8   9
HETATM    9  C           1     -23.131  -3.497 -12.006  0.00  0.00     0.229 C 
BRANCH   9  10
HETATM   10  N           1     -21.828  -3.588 -12.744  0.00  0.00    -0.079 N 
HETATM   11  H           1     -21.736  -4.538 -13.171  0.00  0.00     0.274 HD
HETATM   12  H           1     -21.039  -3.426 -12.079  0.00  0.00     0.274 HD
HETATM   13  H           1     -21.802  -2.864 -13.497  0.00  0.00     0.274 HD
ENDBRANCH   9  10
ENDBRANCH   8   9
ENDBRANCH   7   8
ENDBRANCH   6   7
ENDBRANCH   5   6
BRANCH   5  14
HETATM   14  C           1     -20.481  -4.188  -9.089  0.00  0.00     0.196 C 
HETATM   15  O           1     -20.139  -4.201 -10.292  0.00  0.00    -0.646 OA
HETATM   16  O           1     -19.711  -3.713  -8.227  0.00  0.00    -0.646 OA
ENDBRANCH   5  14
ENDBRANCH   2   5
BRANCH   3  17
HETATM   17  C           1     -21.475  -5.963  -5.064  0.00  0.00     0.275 C 
BRANCH  17  18
HETATM   18  C           1     -20.642  -7.135  -4.563  0.00  0.00     0.053 C 
BRANCH  18  19
HETATM   19  C           1     -21.467  -7.965  -3.588  0.00  0.00     0.076 C 
BRANCH  19  20
HETATM   20  S           1     -20.782  -7.795  -1.916  0.00  0.00    -0.173 SA
HETATM   21  C           1     -22.219  -6.952  -1.197  0.00  0.00     0.089 C 
ENDBRANCH  19  20
ENDBRANCH  18  19
ENDBRANCH  17  18
BRANCH  17  22
HETATM   22  N           1     -22.903  -6.151  -4.646  0.00  0.00    -0.066 N 
HETATM   23  H           1     -23.324  -6.939  -5.187  0.00  0.00     0.275 HD
HETATM   24  H           1     -23.439  -5.273  -4.834  0.00  0.00     0.275 HD
HETATM   25  H           1     -22.943  -6.370  -3.625  0.00  0.00     0.275 HD
ENDBRANCH  17  22
ENDBRANCH   3  17
TORSDOF 12
ENDMDL
MODEL 4
REMARK VINA RESULT:      -5.5      3.644      8.234
REMARK  12 active torsions:
REMARK  status: ('A' for Active; 'I' for Inactive)
REMARK    1  A    between atoms: C_3  and  C_23 
REMARK    2  A    between atoms: C_3  and  S_21 
REMARK    3  A    between atoms: C_6  and  C_15 
REMARK    4  A    between atoms: C_6  and  C_9 
REMARK    5  A    between atoms: C_6  and  N_10 
REMARK       I    between atoms: N_10  and  C_13 
REMARK    6  A    between atoms: C_13  and  C_14 
REMARK    7  A    between atoms: C_14  and  C_23 
REMARK    8  A    between atoms: C_14  and  N_25 
REMARK    9  A    between atoms: C_15  and  C_19 
REMARK   10  A    between atoms: N_16  and  C_17 
REMARK   11  A    between atoms: C_17  and  C_18 
REMARK   12  A    between atoms: C_18  and  C_19 
ROOT
HETATM    1  H           1     -21.773  -7.061  -6.940  0.00  0.00     0.163 HD
HETATM    2  N           1     -21.295  -6.384  -6.359  0.00  0.00    -0.345 N 
HETATM    3  C           1     -21.091  -5.110  -6.816  0.00  0.00     0.249 C 
HETATM    4  O           1     -20.522  -4.302  -6.122  0.00  0.00    -0.271 OA
ENDROOT
BRANCH   2   5
HETATM    5  C           1     -20.827  -6.764  -5.040  0.00  0.00     0.185 C 
BRANCH   5   6
HETATM    6  C           1     -21.959  -6.601  -4.034  0.00  0.00     0.036 C 
BRANCH   6   7
HETATM    7  C           1     -21.396  -6.094  -2.713  0.00  0.00     0.004 C 
BRANCH   7   8
HETATM    8  C           1     -22.303  -6.533  -1.571  0.00  0.00     0.027 C 
BRANCH   8   9
HETATM    9  C           1     -21.808  -7.860  -1.010  0.00  0.00     0.229 C 
BRANCH   9  10
HETATM   10  N           1     -20.370  -8.057  -1.386  0.00  0.00    -0.079 N 
HETATM   11  H           1     -20.256  -8.985  -1.853  0.00  0.00     0.274 HD
HETATM   12  H           1     -19.778  -8.025  -0.525  0.00  0.00     0.274 HD
HETATM   13  H           1     -20.073  -7.298  -2.040  0.00  0.00     0.274 HD
ENDBRANCH   9  10
ENDBRANCH   8   9
ENDBRANCH   7   8
ENDBRANCH   6   7
ENDBRANCH   5   6
BRANCH   5  14
HETATM   14  C           1     -20.375  -8.203  -5.061  0.00  0.00     0.196 C 
HETATM   15  O           1     -19.449  -8.579  -4.310  0.00  0.00    -0.646 OA
HETATM   16  O           1     -20.926  -9.020  -5.830  0.00  0.00    -0.646 OA
ENDBRANCH   5  14
ENDBRANCH   2   5
BRANCH   3  17
HETATM   17  C           1     -21.578  -4.715  -8.189  0.00  0.00     0.275 C 
BRANCH  17  18
HETATM   18  C           1     -20.445  -4.051  -8.958  0.00  0.00     0.053 C 
BRANCH  18  19
HETATM   19  C           1     -20.470  -4.520 -10.407  0.00  0.00     0.076 C 
BRANCH  19  20
HETATM   20  S           1     -21.350  -3.303 -11.424  0.00  0.00    -0.173 SA
HETATM   21  C           1     -22.837  -4.308 -11.697  0.00  0.00     0.089 C 
ENDBRANCH  19  20
ENDBRANCH  18  19
ENDBRANCH  17  18
BRANCH  17  22
HETATM   22  N           1     -22.721  -3.753  -8.055  0.00  0.00    -0.066 N 
HETATM   23  H           1     -22.551  -2.923  -8.664  0.00  0.00     0.275 HD
HETATM   24  H           1     -22.803  -3.446  -7.059  0.00  0.00     0.275 HD
HETATM   25  H           1     -23.608  -4.223  -8.347  0.00  0.00     0.275 HD
ENDBRANCH  17  22
ENDBRANCH   3  17
TORSDOF 12
ENDMDL
MODEL 5
REMARK VINA RESULT:      -5.5      3.432      8.179
REMARK  12 active torsions:
REMARK  status: ('A' for Active; 'I' for Inactive)
REMARK    1  A    between atoms: C_3  and  C_23 
REMARK    2  A    between atoms: C_3  and  S_21 
REMARK    3  A    between atoms: C_6  and  C_15 
REMARK    4  A    between atoms: C_6  and  C_9 
REMARK    5  A    between atoms: C_6  and  N_10 
REMARK       I    between atoms: N_10  and  C_13 
REMARK    6  A    between atoms: C_13  and  C_14 
REMARK    7  A    between atoms: C_14  and  C_23 
REMARK    8  A    between atoms: C_14  and  N_25 
REMARK    9  A    between atoms: C_15  and  C_19 
REMARK   10  A    between atoms: N_16  and  C_17 
REMARK   11  A    between atoms: C_17  and  C_18 
REMARK   12  A    between atoms: C_18  and  C_19 
ROOT
HETATM    1  H           1     -22.762  -6.233  -7.392  0.00  0.00     0.163 HD
HETATM    2  N           1     -22.274  -5.371  -7.186  0.00  0.00    -0.345 N 
HETATM    3  C           1     -22.483  -4.263  -7.963  0.00  0.00     0.249 C 
HETATM    4  O           1     -21.900  -3.234  -7.717  0.00  0.00    -0.271 OA
ENDROOT
BRANCH   2   5
HETATM    5  C           1     -21.353  -5.309  -6.068  0.00  0.00     0.185 C 
BRANCH   5   6
HETATM    6  C           1     -21.807  -6.277  -4.983  0.00  0.00     0.036 C 
BRANCH   6   7
HETATM    7  C           1     -21.136  -5.913  -3.665  0.00  0.00     0.004 C 
BRANCH   7   8
HETATM    8  C           1     -22.110  -6.147  -2.518  0.00  0.00     0.027 C 
BRANCH   8   9
HETATM    9  C           1     -21.624  -7.314  -1.668  0.00  0.00     0.229 C 
BRANCH   9  10
HETATM   10  N           1     -22.502  -7.452  -0.459  0.00  0.00    -0.079 N 
HETATM   11  H           1     -23.234  -6.704  -0.474  0.00  0.00     0.274 HD
HETATM   12  H           1     -21.923  -7.356   0.404  0.00  0.00     0.274 HD
HETATM   13  H           1     -22.963  -8.390  -0.467  0.00  0.00     0.274 HD
ENDBRANCH   9  10
ENDBRANCH   8   9
ENDBRANCH   7   8
ENDBRANCH   6   7
ENDBRANCH   5   6
BRANCH   5  14
HETATM   14  C           1     -19.969  -5.687  -6.534  0.00  0.00     0.196 C 
HETATM   15  O           1     -19.658  -6.892  -6.656  0.00  0.00    -0.646 OA
HETATM   16  O           1     -19.133  -4.797  -6.798  0.00  0.00    -0.646 OA
ENDBRANCH   5  14
ENDBRANCH   2   5
BRANCH   3  17
HETATM   17  C           1     -23.441  -4.328  -9.127  0.00  0.00     0.275 C 
BRANCH  17  18
HETATM   18  C           1     -22.674  -4.132 -10.427  0.00  0.00     0.053 C 
BRANCH  18  19
HETATM   19  C           1     -23.216  -2.911 -11.158  0.00  0.00     0.076 C 
BRANCH  19  20
HETATM   20  S           1     -24.163  -3.444 -12.612  0.00  0.00    -0.173 SA
HETATM   21  C           1     -22.981  -2.842 -13.851  0.00  0.00     0.089 C 
ENDBRANCH  19  20
ENDBRANCH  18  19
ENDBRANCH  17  18
BRANCH  17  22
HETATM   22  N           1     -24.471  -3.247  -8.986  0.00  0.00    -0.066 N 
HETATM   23  H           1     -25.305  -3.623  -8.483  0.00  0.00     0.275 HD
HETATM   24  H           1     -24.756  -2.912  -9.935  0.00  0.00     0.275 HD
HETATM   25  H           1     -24.068  -2.449  -8.444  0.00  0.00     0.275 HD
ENDBRANCH  17  22
ENDBRANCH   3  17
TORSDOF 12
ENDMDL
MODEL 6
REMARK VINA RESULT:      -5.3      3.099      4.334
REMARK  12 active torsions:
REMARK  status: ('A' for Active; 'I' for Inactive)
REMARK    1  A    between atoms: C_3  and  C_23 
REMARK    2  A    between atoms: C_3  and  S_21 
REMARK    3  A    between atoms: C_6  and  C_15 
REMARK    4  A    between atoms: C_6  and  C_9 
REMARK    5  A    between atoms: C_6  and  N_10 
REMARK       I    between atoms: N_10  and  C_13 
REMARK    6  A    between atoms: C_13  and  C_14 
REMARK    7  A    between atoms: C_14  and  C_23 
REMARK    8  A    between atoms: C_14  and  N_25 
REMARK    9  A    between atoms: C_15  and  C_19 
REMARK   10  A    between atoms: N_16  and  C_17 
REMARK   11  A    between atoms: C_17  and  C_18 
REMARK   12  A    between atoms: C_18  and  C_19 
ROOT
HETATM    1  H           1     -21.119  -4.640  -5.355  0.00  0.00     0.163 HD
HETATM    2  N           1     -21.201  -5.396  -6.022  0.00  0.00    -0.345 N 
HETATM    3  C           1     -21.203  -6.694  -5.587  0.00  0.00     0.249 C 
HETATM    4  O           1     -21.301  -7.598  -6.383  0.00  0.00    -0.271 OA
ENDROOT
BRANCH   2   5
HETATM    5  C           1     -21.317  -5.106  -7.438  0.00  0.00     0.185 C 
BRANCH   5   6
HETATM    6  C           1     -22.187  -3.871  -7.633  0.00  0.00     0.036 C 
BRANCH   6   7
HETATM    7  C           1     -23.399  -4.232  -8.481  0.00  0.00     0.004 C 
BRANCH   7   8
HETATM    8  C           1     -23.095  -3.953  -9.947  0.00  0.00     0.027 C 
BRANCH   8   9
HETATM    9  C           1     -24.338  -3.395 -10.628  0.00  0.00     0.229 C 
BRANCH   9  10
HETATM   10  N           1     -25.523  -3.567  -9.724  0.00  0.00    -0.079 N 
HETATM   11  H           1     -25.529  -2.803  -9.010  0.00  0.00     0.274 HD
HETATM   12  H           1     -25.463  -4.493  -9.244  0.00  0.00     0.274 HD
HETATM   13  H           1     -26.401  -3.524 -10.289  0.00  0.00     0.274 HD
ENDBRANCH   9  10
ENDBRANCH   8   9
ENDBRANCH   7   8
ENDBRANCH   6   7
ENDBRANCH   5   6
BRANCH   5  14
HETATM   14  C           1     -19.946  -4.853  -8.014  0.00  0.00     0.196 C 
HETATM   15  O           1     -19.773  -4.880  -9.252  0.00  0.00    -0.646 OA
HETATM   16  O           1     -18.983  -4.616  -7.254  0.00  0.00    -0.646 OA
ENDBRANCH   5  14
ENDBRANCH   2   5
BRANCH   3  17
HETATM   17  C           1     -21.082  -6.996  -4.114  0.00  0.00     0.275 C 
BRANCH  17  18
HETATM   18  C           1     -21.449  -8.452  -3.862  0.00  0.00     0.053 C 
BRANCH  18  19
HETATM   19  C           1     -20.236  -9.197  -3.320  0.00  0.00     0.076 C 
BRANCH  19  20
HETATM   20  S           1     -19.739 -10.484  -4.498  0.00  0.00    -0.173 SA
HETATM   21  C           1     -18.448  -9.511  -5.324  0.00  0.00     0.089 C 
ENDBRANCH  19  20
ENDBRANCH  18  19
ENDBRANCH  17  18
BRANCH  17  22
HETATM   22  N           1     -22.012  -6.106  -3.344  0.00  0.00    -0.066 N 
HETATM   23  H           1     -21.475  -5.591  -2.612  0.00  0.00     0.275 HD
HETATM   24  H           1     -22.753  -6.687  -2.890  0.00  0.00     0.275 HD
HETATM   25  H           1     -22.458  -5.422  -3.995  0.00  0.00     0.275 HD
ENDBRANCH  17  22
ENDBRANCH   3  17
TORSDOF 12
ENDMDL
MODEL 7
REMARK VINA RESULT:      -5.0      2.093      2.474
REMARK  12 active torsions:
REMARK  status: ('A' for Active; 'I' for Inactive)
REMARK    1  A    between atoms: C_3  and  C_23 
REMARK    2  A    between atoms: C_3  and  S_21 
REMARK    3  A    between atoms: C_6  and  C_15 
REMARK    4  A    between atoms: C_6  and  C_9 
REMARK    5  A    between atoms: C_6  and  N_10 
REMARK       I    between atoms: N_10  and  C_13 
REMARK    6  A    between atoms: C_13  and  C_14 
REMARK    7  A    between atoms: C_14  and  C_23 
REMARK    8  A    between atoms: C_14  and  N_25 
REMARK    9  A    between atoms: C_15  and  C_19 
REMARK   10  A    between atoms: N_16  and  C_17 
REMARK   11  A    between atoms: C_17  and  C_18 
REMARK   12  A    between atoms: C_18  and  C_19 
ROOT
HETATM    1  H           1     -22.945  -3.947  -8.616  0.00  0.00     0.163 HD
HETATM    2  N           1     -22.193  -4.613  -8.737  0.00  0.00    -0.345 N 
HETATM    3  C           1     -21.715  -5.310  -7.659  0.00  0.00     0.249 C 
HETATM    4  O           1     -20.819  -6.106  -7.804  0.00  0.00    -0.271 OA
ENDROOT
BRANCH   2   5
HETATM    5  C           1     -21.623  -4.832 -10.052  0.00  0.00     0.185 C 
BRANCH   5   6
HETATM    6  C           1     -22.725  -4.767 -11.100  0.00  0.00     0.036 C 
BRANCH   6   7
HETATM    7  C           1     -23.697  -3.649 -10.746  0.00  0.00     0.004 C 
BRANCH   7   8
HETATM    8  C           1     -23.933  -2.774 -11.969  0.00  0.00     0.027 C 
BRANCH   8   9
HETATM    9  C           1     -23.708  -3.594 -13.233  0.00  0.00     0.229 C 
BRANCH   9  10
HETATM   10  N           1     -22.520  -3.055 -13.974  0.00  0.00    -0.079 N 
HETATM   11  H           1     -22.544  -2.010 -13.956  0.00  0.00     0.274 HD
HETATM   12  H           1     -22.547  -3.388 -14.964  0.00  0.00     0.274 HD
HETATM   13  H           1     -21.642  -3.392 -13.518  0.00  0.00     0.274 HD
ENDBRANCH   9  10
ENDBRANCH   8   9
ENDBRANCH   7   8
ENDBRANCH   6   7
ENDBRANCH   5   6
BRANCH   5  14
HETATM   14  C           1     -20.593  -3.767 -10.337  0.00  0.00     0.196 C 
HETATM   15  O           1     -19.825  -3.381  -9.429  0.00  0.00    -0.646 OA
HETATM   16  O           1     -20.506  -3.271 -11.480  0.00  0.00    -0.646 OA
ENDBRANCH   5  14
ENDBRANCH   2   5
BRANCH   3  17
HETATM   17  C           1     -22.309  -5.082  -6.291  0.00  0.00     0.275 C 
BRANCH  17  18
HETATM   18  C           1     -22.076  -6.312  -5.424  0.00  0.00     0.053 C 
BRANCH  18  19
HETATM   19  C           1     -21.123  -5.961  -4.289  0.00  0.00     0.076 C 
BRANCH  19  20
HETATM   20  S           1     -21.228  -7.229  -2.995  0.00  0.00    -0.173 SA
HETATM   21  C           1     -22.223  -6.250  -1.836  0.00  0.00     0.089 C 
ENDBRANCH  19  20
ENDBRANCH  18  19
ENDBRANCH  17  18
BRANCH  17  22
HETATM   22  N           1     -23.783  -4.835  -6.421  0.00  0.00    -0.066 N 
HETATM   23  H           1     -23.969  -3.808  -6.395  0.00  0.00     0.275 HD
HETATM   24  H           1     -24.285  -5.302  -5.631  0.00  0.00     0.275 HD
HETATM   25  H           1     -24.124  -5.227  -7.328  0.00  0.00     0.275 HD
ENDBRANCH  17  22
ENDBRANCH   3  17
TORSDOF 12
ENDMDL
MODEL 8
REMARK VINA RESULT:      -4.9      3.846      8.152
REMARK  12 active torsions:
REMARK  status: ('A' for Active; 'I' for Inactive)
REMARK    1  A    between atoms: C_3  and  C_23 
REMARK    2  A    between atoms: C_3  and  S_21 
REMARK    3  A    between atoms: C_6  and  C_15 
REMARK    4  A    between atoms: C_6  and  C_9 
REMARK    5  A    between atoms: C_6  and  N_10 
REMARK       I    between atoms: N_10  and  C_13 
REMARK    6  A    between atoms: C_13  and  C_14 
REMARK    7  A    between atoms: C_14  and  C_23 
REMARK    8  A    between atoms: C_14  and  N_25 
REMARK    9  A    between atoms: C_15  and  C_19 
REMARK   10  A    between atoms: N_16  and  C_17 
REMARK   11  A    between atoms: C_17  and  C_18 
REMARK   12  A    between atoms: C_18  and  C_19 
ROOT
HETATM    1  H           1     -19.944  -6.374  -5.029  0.00  0.00     0.163 HD
HETATM    2  N           1     -20.954  -6.435  -4.995  0.00  0.00    -0.345 N 
HETATM    3  C           1     -21.717  -5.614  -5.782  0.00  0.00     0.249 C 
HETATM    4  O           1     -22.922  -5.688  -5.742  0.00  0.00    -0.271 OA
ENDROOT
BRANCH   2   5
HETATM    5  C           1     -21.593  -7.393  -4.114  0.00  0.00     0.185 C 
BRANCH   5   6
HETATM    6  C           1     -20.844  -8.718  -4.178  0.00  0.00     0.036 C 
BRANCH   6   7
HETATM    7  C           1     -19.567  -8.541  -4.988  0.00  0.00     0.004 C 
BRANCH   7   8
HETATM    8  C           1     -18.641  -9.726  -4.744  0.00  0.00     0.027 C 
BRANCH   8   9
HETATM    9  C           1     -18.481  -9.945  -3.245  0.00  0.00     0.229 C 
BRANCH   9  10
HETATM   10  N           1     -17.174  -9.365  -2.791  0.00  0.00    -0.079 N 
HETATM   11  H           1     -16.503 -10.140  -2.586  0.00  0.00     0.274 HD
HETATM   12  H           1     -17.326  -8.798  -1.928  0.00  0.00     0.274 HD
HETATM   13  H           1     -16.783  -8.756  -3.544  0.00  0.00     0.274 HD
ENDBRANCH   9  10
ENDBRANCH   8   9
ENDBRANCH   7   8
ENDBRANCH   6   7
ENDBRANCH   5   6
BRANCH   5  14
HETATM   14  C           1     -21.570  -6.869  -2.700  0.00  0.00     0.196 C 
HETATM   15  O           1     -22.356  -5.958  -2.358  0.00  0.00    -0.646 OA
HETATM   16  O           1     -20.767  -7.344  -1.869  0.00  0.00    -0.646 OA
ENDBRANCH   5  14
ENDBRANCH   2   5
BRANCH   3  17
HETATM   17  C           1     -21.052  -4.617  -6.699  0.00  0.00     0.275 C 
BRANCH  17  18
HETATM   18  C           1     -21.407  -4.939  -8.143  0.00  0.00     0.053 C 
BRANCH  18  19
HETATM   19  C           1     -22.322  -3.854  -8.696  0.00  0.00     0.076 C 
BRANCH  19  20
HETATM   20  S           1     -23.326  -4.536 -10.045  0.00  0.00    -0.173 SA
HETATM   21  C           1     -24.727  -3.399  -9.845  0.00  0.00     0.089 C 
ENDBRANCH  19  20
ENDBRANCH  18  19
ENDBRANCH  17  18
BRANCH  17  22
HETATM   22  N           1     -19.564  -4.692  -6.523  0.00  0.00    -0.066 N 
HETATM   23  H           1     -19.259  -5.691  -6.551  0.00  0.00     0.275 HD
HETATM   24  H           1     -19.300  -4.273  -5.602  0.00  0.00     0.275 HD
HETATM   25  H           1     -19.094  -4.163  -7.292  0.00  0.00     0.275 HD
ENDBRANCH  17  22
ENDBRANCH   3  17
TORSDOF 12
ENDMDL
MODEL 9
REMARK VINA RESULT:      -4.9      5.869      8.495
REMARK  12 active torsions:
REMARK  status: ('A' for Active; 'I' for Inactive)
REMARK    1  A    between atoms: C_3  and  C_23 
REMARK    2  A    between atoms: C_3  and  S_21 
REMARK    3  A    between atoms: C_6  and  C_15 
REMARK    4  A    between atoms: C_6  and  C_9 
REMARK    5  A    between atoms: C_6  and  N_10 
REMARK       I    between atoms: N_10  and  C_13 
REMARK    6  A    between atoms: C_13  and  C_14 
REMARK    7  A    between atoms: C_14  and  C_23 
REMARK    8  A    between atoms: C_14  and  N_25 
REMARK    9  A    between atoms: C_15  and  C_19 
REMARK   10  A    between atoms: N_16  and  C_17 
REMARK   11  A    between atoms: C_17  and  C_18 
REMARK   12  A    between atoms: C_18  and  C_19 
ROOT
HETATM    1  H           1     -19.510  -7.711  -3.734  0.00  0.00     0.163 HD
HETATM    2  N           1     -20.205  -8.002  -4.410  0.00  0.00    -0.345 N 
HETATM    3  C           1     -20.124  -9.242  -4.985  0.00  0.00     0.249 C 
HETATM    4  O           1     -20.953  -9.590  -5.791  0.00  0.00    -0.271 OA
ENDROOT
BRANCH   2   5
HETATM    5  C           1     -21.287  -7.106  -4.770  0.00  0.00     0.185 C 
BRANCH   5   6
HETATM    6  C           1     -21.739  -6.336  -3.536  0.00  0.00     0.036 C 
BRANCH   6   7
HETATM    7  C           1     -21.273  -7.065  -2.283  0.00  0.00     0.004 C 
BRANCH   7   8
HETATM    8  C           1     -22.279  -6.844  -1.162  0.00  0.00     0.027 C 
BRANCH   8   9
HETATM    9  C           1     -22.391  -8.108  -0.320  0.00  0.00     0.229 C 
BRANCH   9  10
HETATM   10  N           1     -23.543  -7.977   0.631  0.00  0.00    -0.079 N 
HETATM   11  H           1     -23.196  -7.626   1.552  0.00  0.00     0.274 HD
HETATM   12  H           1     -23.995  -8.909   0.761  0.00  0.00     0.274 HD
HETATM   13  H           1     -24.241  -7.303   0.242  0.00  0.00     0.274 HD
ENDBRANCH   9  10
ENDBRANCH   8   9
ENDBRANCH   7   8
ENDBRANCH   6   7
ENDBRANCH   5   6
BRANCH   5  14
HETATM   14  C           1     -20.809  -6.136  -5.822  0.00  0.00     0.196 C 
HETATM   15  O           1     -20.836  -6.460  -7.029  0.00  0.00    -0.646 OA
HETATM   16  O           1     -20.385  -5.010  -5.488  0.00  0.00    -0.646 OA
ENDBRANCH   5  14
ENDBRANCH   2   5
BRANCH   3  17
HETATM   17  C           1     -18.997 -10.174  -4.610  0.00  0.00     0.275 C 
BRANCH  17  18
HETATM   18  C           1     -18.271  -9.629  -3.389  0.00  0.00     0.053 C 
BRANCH  18  19
HETATM   19  C           1     -18.472 -10.575  -2.213  0.00  0.00     0.076 C 
BRANCH  19  20
HETATM   20  S           1     -16.897 -11.377  -1.803  0.00  0.00    -0.173 SA
HETATM   21  C           1     -15.830 -10.129  -2.575  0.00  0.00     0.089 C 
ENDBRANCH  19  20
ENDBRANCH  18  19
ENDBRANCH  17  18
BRANCH  17  22
HETATM   22  N           1     -18.035 -10.279  -5.757  0.00  0.00    -0.066 N 
HETATM   23  H           1     -17.246 -10.910  -5.492  0.00  0.00     0.275 HD
HETATM   24  H           1     -17.663  -9.330  -5.987  0.00  0.00     0.275 HD
HETATM   25  H           1     -18.528 -10.670  -6.591  0.00  0.00     0.275 HD
ENDBRANCH  17  22
ENDBRANCH   3  17
TORSDOF 12
ENDMDL
