MODEL 1
REMARK VINA RESULT:      -5.8      0.000      0.000
REMARK  10 active torsions:
REMARK  status: ('A' for Active; 'I' for Inactive)
REMARK    1  A    between atoms: C_1  and  C_8 
REMARK    2  A    between atoms: C_1  and  C_13 
REMARK    3  A    between atoms: N_3  and  C_8 
REMARK    4  A    between atoms: C_6  and  C_12 
REMARK    5  A    between atoms: N_7  and  C_12 
REMARK       I    between atoms: N_7  and  C_9 
REMARK    6  A    between atoms: C_8  and  C_9 
REMARK    7  A    between atoms: C_10  and  N_20 
REMARK    8  A    between atoms: C_10  and  C_14 
REMARK    9  A    between atoms: C_11  and  C_14 
REMARK   10  A    between atoms: C_11  and  C_12 
ROOT
HETATM    1  N           1     -35.144  -1.744 -12.587  0.00  0.00    -0.345 N 
HETATM    2  C           1     -35.604  -0.464 -12.438  0.00  0.00     0.249 C 
HETATM    3  O           1     -35.875  -0.043 -11.339  0.00  0.00    -0.271 OA
HETATM    4  H           1     -34.918  -2.096 -13.508  0.00  0.00     0.163 HD
ENDROOT
BRANCH   1   5
HETATM    5  C           1     -34.982  -2.595 -11.425  0.00  0.00     0.185 C 
BRANCH   5   6
HETATM    6  C           1     -33.618  -2.366 -10.821  0.00  0.00     0.196 C 
HETATM    7  O           1     -33.493  -1.624  -9.822  0.00  0.00    -0.646 OA
HETATM    8  O           1     -32.613  -2.919 -11.319  0.00  0.00    -0.646 OA
ENDBRANCH   5   6
BRANCH   5   9
HETATM    9  C           1     -35.115  -4.054 -11.842  0.00  0.00     0.038 C 
BRANCH   9  10
HETATM   10  C           1     -35.150  -4.937 -10.601  0.00  0.00     0.030 C 
BRANCH  10  11
HETATM   11  C           1     -34.370  -6.218 -10.868  0.00  0.00     0.230 C 
BRANCH  11  12
HETATM   12  N           1     -33.035  -5.877 -11.462  0.00  0.00    -0.079 N 
HETATM   13  H           1     -32.360  -6.651 -11.267  0.00  0.00     0.274 HD
HETATM   14  H           1     -32.682  -4.991 -11.036  0.00  0.00     0.274 HD
HETATM   15  H           1     -33.135  -5.753 -12.494  0.00  0.00     0.274 HD
ENDBRANCH  11  12
ENDBRANCH  10  11
ENDBRANCH   9  10
ENDBRANCH   5   9
ENDBRANCH   1   5
BRANCH   2  16
HETATM   16  C           1     -35.774   0.423 -13.647  0.00  0.00     0.284 C 
BRANCH  16  17
HETATM   17  C           1     -36.776  -0.207 -14.605  0.00  0.00     0.155 C 
BRANCH  17  18
HETATM   18  C           1     -36.048  -0.751 -15.810  0.00  0.00     0.175 C 
HETATM   19  O           1     -35.309  -1.753 -15.694  0.00  0.00    -0.648 OA
HETATM   20  O           1     -36.186  -0.202 -16.924  0.00  0.00    -0.648 OA
ENDBRANCH  17  18
ENDBRANCH  16  17
BRANCH  16  21
HETATM   21  N           1     -34.452   0.580 -14.340  0.00  0.00    -0.066 N 
HETATM   22  H           1     -34.609   0.881 -15.328  0.00  0.00     0.275 HD
HETATM   23  H           1     -33.882   1.301 -13.842  0.00  0.00     0.275 HD
HETATM   24  H           1     -33.945  -0.334 -14.332  0.00  0.00     0.275 HD
ENDBRANCH  16  21
ENDBRANCH   2  16
TORSDOF 10
ENDMDL
MODEL 2
REMARK VINA RESULT:      -5.8     11.966     14.933
REMARK  10 active torsions:
REMARK  status: ('A' for Active; 'I' for Inactive)
REMARK    1  A    between atoms: C_1  and  C_8 
REMARK    2  A    between atoms: C_1  and  C_13 
REMARK    3  A    between atoms: N_3  and  C_8 
REMARK    4  A    between atoms: C_6  and  C_12 
REMARK    5  A    between atoms: N_7  and  C_12 
REMARK       I    between atoms: N_7  and  C_9 
REMARK    6  A    between atoms: C_8  and  C_9 
REMARK    7  A    between atoms: C_10  and  N_20 
REMARK    8  A    between atoms: C_10  and  C_14 
REMARK    9  A    between atoms: C_11  and  C_14 
REMARK   10  A    between atoms: C_11  and  C_12 
ROOT
HETATM    1  N           1     -22.191  -4.813  -8.803  0.00  0.00    -0.345 N 
HETATM    2  C           1     -21.608  -4.568  -7.589  0.00  0.00     0.249 C 
HETATM    3  O           1     -21.484  -3.432  -7.197  0.00  0.00    -0.271 OA
HETATM    4  H           1     -22.296  -5.765  -9.131  0.00  0.00     0.163 HD
ENDROOT
BRANCH   1   5
HETATM    5  C           1     -22.659  -3.710  -9.619  0.00  0.00     0.185 C 
BRANCH   5   6
HETATM    6  C           1     -24.158  -3.796  -9.769  0.00  0.00     0.196 C 
HETATM    7  O           1     -24.874  -2.817  -9.465  0.00  0.00    -0.646 OA
HETATM    8  O           1     -24.684  -4.846 -10.198  0.00  0.00    -0.646 OA
ENDBRANCH   5   6
BRANCH   5   9
HETATM    9  C           1     -22.005  -3.781 -10.992  0.00  0.00     0.038 C 
BRANCH   9  10
HETATM   10  C           1     -22.470  -2.603 -11.839  0.00  0.00     0.030 C 
BRANCH  10  11
HETATM   11  C           1     -22.767  -3.082 -13.254  0.00  0.00     0.230 C 
BRANCH  11  12
HETATM   12  N           1     -23.880  -4.087 -13.220  0.00  0.00    -0.079 N 
HETATM   13  H           1     -24.773  -3.628 -13.510  0.00  0.00     0.274 HD
HETATM   14  H           1     -23.979  -4.462 -12.249  0.00  0.00     0.274 HD
HETATM   15  H           1     -23.661  -4.871 -13.875  0.00  0.00     0.274 HD
ENDBRANCH  11  12
ENDBRANCH  10  11
ENDBRANCH   9  10
ENDBRANCH   5   9
ENDBRANCH   1   5
BRANCH   2  16
HETATM   16  C           1     -21.122  -5.716  -6.740  0.00  0.00     0.284 C 
BRANCH  16  17
HETATM   17  C           1     -20.809  -5.215  -5.337  0.00  0.00     0.155 C 
BRANCH  17  18
HETATM   18  C           1     -21.177  -6.276  -4.329  0.00  0.00     0.175 C 
HETATM   19  O           1     -21.997  -6.018  -3.421  0.00  0.00    -0.648 OA
HETATM   20  O           1     -20.664  -7.413  -4.401  0.00  0.00    -0.648 OA
ENDBRANCH  17  18
ENDBRANCH  16  17
BRANCH  16  21
HETATM   21  N           1     -19.881  -6.298  -7.350  0.00  0.00    -0.066 N 
HETATM   22  H           1     -19.728  -7.263  -6.979  0.00  0.00     0.275 HD
HETATM   23  H           1     -19.991  -6.339  -8.389  0.00  0.00     0.275 HD
HETATM   24  H           1     -19.060  -5.698  -7.109  0.00  0.00     0.275 HD
ENDBRANCH  16  21
ENDBRANCH   2  16
TORSDOF 10
ENDMDL
MODEL 3
REMARK VINA RESULT:      -5.8      2.109      2.779
REMARK  10 active torsions:
REMARK  status: ('A' for Active; 'I' for Inactive)
REMARK    1  A    between atoms: C_1  and  C_8 
REMARK    2  A    between atoms: C_1  and  C_13 
REMARK    3  A    between atoms: N_3  and  C_8 
REMARK    4  A    between atoms: C_6  and  C_12 
REMARK    5  A    between atoms: N_7  and  C_12 
REMARK       I    between atoms: N_7  and  C_9 
REMARK    6  A    between atoms: C_8  and  C_9 
REMARK    7  A    between atoms: C_10  and  N_20 
REMARK    8  A    between atoms: C_10  and  C_14 
REMARK    9  A    between atoms: C_11  and  C_14 
REMARK   10  A    between atoms: C_11  and  C_12 
ROOT
HETATM    1  N           1     -35.281  -3.210 -11.352  0.00  0.00    -0.345 N 
HETATM    2  C           1     -35.103  -1.961 -10.823  0.00  0.00     0.249 C 
HETATM    3  O           1     -34.091  -1.699 -10.218  0.00  0.00    -0.271 OA
HETATM    4  H           1     -36.128  -3.429 -11.860  0.00  0.00     0.163 HD
ENDROOT
BRANCH   1   5
HETATM    5  C           1     -34.255  -4.221 -11.185  0.00  0.00     0.185 C 
BRANCH   5   6
HETATM    6  C           1     -33.284  -4.147 -12.338  0.00  0.00     0.196 C 
HETATM    7  O           1     -33.687  -3.819 -13.475  0.00  0.00    -0.646 OA
HETATM    8  O           1     -32.076  -4.412 -12.156  0.00  0.00    -0.646 OA
ENDBRANCH   5   6
BRANCH   5   9
HETATM    9  C           1     -34.901  -5.599 -11.152  0.00  0.00     0.038 C 
BRANCH   9  10
HETATM   10  C           1     -34.181  -6.475 -10.134  0.00  0.00     0.030 C 
BRANCH  10  11
HETATM   11  C           1     -34.742  -7.890 -10.196  0.00  0.00     0.230 C 
BRANCH  11  12
HETATM   12  N           1     -33.613  -8.877 -10.198  0.00  0.00    -0.079 N 
HETATM   13  H           1     -33.605  -9.399  -9.293  0.00  0.00     0.274 HD
HETATM   14  H           1     -32.708  -8.368 -10.316  0.00  0.00     0.274 HD
HETATM   15  H           1     -33.740  -9.549 -10.988  0.00  0.00     0.274 HD
ENDBRANCH  11  12
ENDBRANCH  10  11
ENDBRANCH   9  10
ENDBRANCH   5   9
ENDBRANCH   1   5
BRANCH   2  16
HETATM   16  C           1     -36.170  -0.908 -10.997  0.00  0.00     0.284 C 
BRANCH  16  17
HETATM   17  C           1     -35.800   0.005 -12.158  0.00  0.00     0.155 C 
BRANCH  17  18
HETATM   18  C           1     -36.211  -0.641 -13.459  0.00  0.00     0.175 C 
HETATM   19  O           1     -37.422  -0.745 -13.750  0.00  0.00    -0.648 OA
HETATM   20  O           1     -35.341  -1.072 -14.246  0.00  0.00    -0.648 OA
ENDBRANCH  17  18
ENDBRANCH  16  17
BRANCH  16  21
HETATM   21  N           1     -36.281  -0.097  -9.740  0.00  0.00    -0.066 N 
HETATM   22  H           1     -36.122   0.912  -9.960  0.00  0.00     0.275 HD
HETATM   23  H           1     -37.236  -0.218  -9.332  0.00  0.00     0.275 HD
HETATM   24  H           1     -35.563  -0.421  -9.053  0.00  0.00     0.275 HD
ENDBRANCH  16  21
ENDBRANCH   2  16
TORSDOF 10
ENDMDL
MODEL 4
REMARK VINA RESULT:      -5.5      3.081      5.882
REMARK  10 active torsions:
REMARK  status: ('A' for Active; 'I' for Inactive)
REMARK    1  A    between atoms: C_1  and  C_8 
REMARK    2  A    between atoms: C_1  and  C_13 
REMARK    3  A    between atoms: N_3  and  C_8 
REMARK    4  A    between atoms: C_6  and  C_12 
REMARK    5  A    between atoms: N_7  and  C_12 
REMARK       I    between atoms: N_7  and  C_9 
REMARK    6  A    between atoms: C_8  and  C_9 
REMARK    7  A    between atoms: C_10  and  N_20 
REMARK    8  A    between atoms: C_10  and  C_14 
REMARK    9  A    between atoms: C_11  and  C_14 
REMARK   10  A    between atoms: C_11  and  C_12 
ROOT
HETATM    1  N           1     -36.174   0.244 -11.312  0.00  0.00    -0.345 N 
HETATM    2  C           1     -37.443  -0.129 -10.962  0.00  0.00     0.249 C 
HETATM    3  O           1     -38.075  -0.869 -11.679  0.00  0.00    -0.271 OA
HETATM    4  H           1     -35.645   0.863 -10.711  0.00  0.00     0.163 HD
ENDROOT
BRANCH   1   5
HETATM    5  C           1     -35.587  -0.248 -12.543  0.00  0.00     0.185 C 
BRANCH   5   6
HETATM    6  C           1     -34.729  -1.453 -12.244  0.00  0.00     0.196 C 
HETATM    7  O           1     -34.082  -1.510 -11.175  0.00  0.00    -0.646 OA
HETATM    8  O           1     -34.665  -2.394 -13.064  0.00  0.00    -0.646 OA
ENDBRANCH   5   6
BRANCH   5   9
HETATM    9  C           1     -34.731   0.844 -13.169  0.00  0.00     0.038 C 
BRANCH   9  10
HETATM   10  C           1     -34.939   0.853 -14.677  0.00  0.00     0.030 C 
BRANCH  10  11
HETATM   11  C           1     -36.367   0.427 -14.995  0.00  0.00     0.230 C 
BRANCH  11  12
HETATM   12  N           1     -36.410  -0.214 -16.350  0.00  0.00    -0.079 N 
HETATM   13  H           1     -35.684  -0.963 -16.404  0.00  0.00     0.274 HD
HETATM   14  H           1     -36.222   0.509 -17.081  0.00  0.00     0.274 HD
HETATM   15  H           1     -37.354  -0.631 -16.508  0.00  0.00     0.274 HD
ENDBRANCH  11  12
ENDBRANCH  10  11
ENDBRANCH   9  10
ENDBRANCH   5   9
ENDBRANCH   1   5
BRANCH   2  16
HETATM   16  C           1     -38.055   0.382  -9.681  0.00  0.00     0.284 C 
BRANCH  16  17
HETATM   17  C           1     -37.228   1.547  -9.152  0.00  0.00     0.155 C 
BRANCH  17  18
HETATM   18  C           1     -36.559   1.144  -7.861  0.00  0.00     0.175 C 
HETATM   19  O           1     -35.547   0.410  -7.883  0.00  0.00    -0.648 OA
HETATM   20  O           1     -37.015   1.545  -6.768  0.00  0.00    -0.648 OA
ENDBRANCH  17  18
ENDBRANCH  16  17
BRANCH  16  21
HETATM   21  N           1     -38.074  -0.719  -8.662  0.00  0.00    -0.066 N 
HETATM   22  H           1     -37.226  -0.650  -8.056  0.00  0.00     0.275 HD
HETATM   23  H           1     -38.932  -0.630  -8.071  0.00  0.00     0.275 HD
HETATM   24  H           1     -38.080  -1.644  -9.150  0.00  0.00     0.275 HD
ENDBRANCH  16  21
ENDBRANCH   2  16
TORSDOF 10
ENDMDL
MODEL 5
REMARK VINA RESULT:      -5.5     11.783     13.651
REMARK  10 active torsions:
REMARK  status: ('A' for Active; 'I' for Inactive)
REMARK    1  A    between atoms: C_1  and  C_8 
REMARK    2  A    between atoms: C_1  and  C_13 
REMARK    3  A    between atoms: N_3  and  C_8 
REMARK    4  A    between atoms: C_6  and  C_12 
REMARK    5  A    between atoms: N_7  and  C_12 
REMARK       I    between atoms: N_7  and  C_9 
REMARK    6  A    between atoms: C_8  and  C_9 
REMARK    7  A    between atoms: C_10  and  N_20 
REMARK    8  A    between atoms: C_10  and  C_14 
REMARK    9  A    between atoms: C_11  and  C_14 
REMARK   10  A    between atoms: C_11  and  C_12 
ROOT
HETATM    1  N           1     -22.236  -5.225  -8.632  0.00  0.00    -0.345 N 
HETATM    2  C           1     -23.136  -4.264  -9.005  0.00  0.00     0.249 C 
HETATM    3  O           1     -23.051  -3.147  -8.551  0.00  0.00    -0.271 OA
HETATM    4  H           1     -22.307  -6.160  -9.013  0.00  0.00     0.163 HD
ENDROOT
BRANCH   1   5
HETATM    5  C           1     -21.181  -4.903  -7.691  0.00  0.00     0.185 C 
BRANCH   5   6
HETATM    6  C           1     -19.903  -4.624  -8.446  0.00  0.00     0.196 C 
HETATM    7  O           1     -18.866  -4.311  -7.823  0.00  0.00    -0.646 OA
HETATM    8  O           1     -19.884  -4.707  -9.693  0.00  0.00    -0.646 OA
ENDBRANCH   5   6
BRANCH   5   9
HETATM    9  C           1     -20.967  -6.079  -6.747  0.00  0.00     0.038 C 
BRANCH   9  10
HETATM   10  C           1     -21.113  -5.607  -5.306  0.00  0.00     0.030 C 
BRANCH  10  11
HETATM   11  C           1     -21.968  -6.602  -4.531  0.00  0.00     0.230 C 
BRANCH  11  12
HETATM   12  N           1     -22.153  -6.115  -3.125  0.00  0.00    -0.079 N 
HETATM   13  H           1     -22.038  -6.914  -2.461  0.00  0.00     0.274 HD
HETATM   14  H           1     -23.110  -5.709  -3.021  0.00  0.00     0.274 HD
HETATM   15  H           1     -21.439  -5.381  -2.914  0.00  0.00     0.274 HD
ENDBRANCH  11  12
ENDBRANCH  10  11
ENDBRANCH   9  10
ENDBRANCH   5   9
ENDBRANCH   1   5
BRANCH   2  16
HETATM   16  C           1     -24.235  -4.598  -9.984  0.00  0.00     0.284 C 
BRANCH  16  17
HETATM   17  C           1     -23.667  -4.625 -11.396  0.00  0.00     0.155 C 
BRANCH  17  18
HETATM   18  C           1     -23.994  -3.329 -12.097  0.00  0.00     0.175 C 
HETATM   19  O           1     -23.182  -2.379 -12.065  0.00  0.00    -0.648 OA
HETATM   20  O           1     -25.076  -3.205 -12.710  0.00  0.00    -0.648 OA
ENDBRANCH  17  18
ENDBRANCH  16  17
BRANCH  16  21
HETATM   21  N           1     -25.312  -3.557  -9.900  0.00  0.00    -0.066 N 
HETATM   22  H           1     -25.320  -2.990 -10.778  0.00  0.00     0.275 HD
HETATM   23  H           1     -26.239  -4.025  -9.779  0.00  0.00     0.275 HD
HETATM   24  H           1     -25.128  -2.931  -9.083  0.00  0.00     0.275 HD
ENDBRANCH  16  21
ENDBRANCH   2  16
TORSDOF 10
ENDMDL
MODEL 6
REMARK VINA RESULT:      -5.4      1.962      3.237
REMARK  10 active torsions:
REMARK  status: ('A' for Active; 'I' for Inactive)
REMARK    1  A    between atoms: C_1  and  C_8 
REMARK    2  A    between atoms: C_1  and  C_13 
REMARK    3  A    between atoms: N_3  and  C_8 
REMARK    4  A    between atoms: C_6  and  C_12 
REMARK    5  A    between atoms: N_7  and  C_12 
REMARK       I    between atoms: N_7  and  C_9 
REMARK    6  A    between atoms: C_8  and  C_9 
REMARK    7  A    between atoms: C_10  and  N_20 
REMARK    8  A    between atoms: C_10  and  C_14 
REMARK    9  A    between atoms: C_11  and  C_14 
REMARK   10  A    between atoms: C_11  and  C_12 
ROOT
HETATM    1  N           1     -35.525  -1.319 -12.750  0.00  0.00    -0.345 N 
HETATM    2  C           1     -35.299   0.007 -13.002  0.00  0.00     0.249 C 
HETATM    3  O           1     -34.857   0.721 -12.132  0.00  0.00    -0.271 OA
HETATM    4  H           1     -35.895  -1.917 -13.478  0.00  0.00     0.163 HD
ENDROOT
BRANCH   1   5
HETATM    5  C           1     -35.235  -1.868 -11.439  0.00  0.00     0.185 C 
BRANCH   5   6
HETATM    6  C           1     -34.665  -3.257 -11.591  0.00  0.00     0.196 C 
HETATM    7  O           1     -34.865  -3.903 -12.643  0.00  0.00    -0.646 OA
HETATM    8  O           1     -33.993  -3.762 -10.666  0.00  0.00    -0.646 OA
ENDBRANCH   5   6
BRANCH   5   9
HETATM    9  C           1     -36.517  -1.930 -10.620  0.00  0.00     0.038 C 
BRANCH   9  10
HETATM   10  C           1     -36.420  -0.963  -9.448  0.00  0.00     0.030 C 
BRANCH  10  11
HETATM   11  C           1     -37.262   0.272  -9.737  0.00  0.00     0.230 C 
BRANCH  11  12
HETATM   12  N           1     -36.665   1.460  -9.042  0.00  0.00    -0.079 N 
HETATM   13  H           1     -35.640   1.498  -9.238  0.00  0.00     0.274 HD
HETATM   14  H           1     -36.822   1.375  -8.013  0.00  0.00     0.274 HD
HETATM   15  H           1     -37.120   2.333  -9.393  0.00  0.00     0.274 HD
ENDBRANCH  11  12
ENDBRANCH  10  11
ENDBRANCH   9  10
ENDBRANCH   5   9
ENDBRANCH   1   5
BRANCH   2  16
HETATM   16  C           1     -35.600   0.579 -14.365  0.00  0.00     0.284 C 
BRANCH  16  17
HETATM   17  C           1     -36.678  -0.258 -15.041  0.00  0.00     0.155 C 
BRANCH  17  18
HETATM   18  C           1     -36.066  -1.049 -16.172  0.00  0.00     0.175 C 
HETATM   19  O           1     -35.279  -1.987 -15.924  0.00  0.00    -0.648 OA
HETATM   20  O           1     -36.348  -0.767 -17.357  0.00  0.00    -0.648 OA
ENDBRANCH  17  18
ENDBRANCH  16  17
BRANCH  16  21
HETATM   21  N           1     -34.355   0.559 -15.201  0.00  0.00    -0.066 N 
HETATM   22  H           1     -34.487  -0.090 -16.009  0.00  0.00     0.275 HD
HETATM   23  H           1     -34.160   1.522 -15.557  0.00  0.00     0.275 HD
HETATM   24  H           1     -33.551   0.231 -14.620  0.00  0.00     0.275 HD
ENDBRANCH  16  21
ENDBRANCH   2  16
TORSDOF 10
ENDMDL
MODEL 7
REMARK VINA RESULT:      -5.2      2.389      5.785
REMARK  10 active torsions:
REMARK  status: ('A' for Active; 'I' for Inactive)
REMARK    1  A    between atoms: C_1  and  C_8 
REMARK    2  A    between atoms: C_1  and  C_13 
REMARK    3  A    between atoms: N_3  and  C_8 
REMARK    4  A    between atoms: C_6  and  C_12 
REMARK    5  A    between atoms: N_7  and  C_12 
REMARK       I    between atoms: N_7  and  C_9 
REMARK    6  A    between atoms: C_8  and  C_9 
REMARK    7  A    between atoms: C_10  and  N_20 
REMARK    8  A    between atoms: C_10  and  C_14 
REMARK    9  A    between atoms: C_11  and  C_14 
REMARK   10  A    between atoms: C_11  and  C_12 
ROOT
HETATM    1  N           1     -35.608  -1.955 -12.517  0.00  0.00    -0.345 N 
HETATM    2  C           1     -34.446  -2.569 -12.135  0.00  0.00     0.249 C 
HETATM    3  O           1     -33.646  -1.976 -11.451  0.00  0.00    -0.271 OA
HETATM    4  H           1     -36.278  -2.451 -13.091  0.00  0.00     0.163 HD
ENDROOT
BRANCH   1   5
HETATM    5  C           1     -35.878  -0.592 -12.101  0.00  0.00     0.185 C 
BRANCH   5   6
HETATM    6  C           1     -36.746  -0.607 -10.866  0.00  0.00     0.196 C 
HETATM    7  O           1     -36.252  -0.324  -9.752  0.00  0.00    -0.646 OA
HETATM    8  O           1     -37.957  -0.902 -10.957  0.00  0.00    -0.646 OA
ENDBRANCH   5   6
BRANCH   5   9
HETATM    9  C           1     -36.600   0.147 -13.220  0.00  0.00     0.038 C 
BRANCH   9  10
HETATM   10  C           1     -35.869  -0.085 -14.536  0.00  0.00     0.030 C 
BRANCH  10  11
HETATM   11  C           1     -35.212   1.214 -14.987  0.00  0.00     0.230 C 
BRANCH  11  12
HETATM   12  N           1     -36.121   1.931 -15.940  0.00  0.00    -0.079 N 
HETATM   13  H           1     -35.561   2.589 -16.527  0.00  0.00     0.274 HD
HETATM   14  H           1     -36.837   2.467 -15.400  0.00  0.00     0.274 HD
HETATM   15  H           1     -36.599   1.235 -16.556  0.00  0.00     0.274 HD
ENDBRANCH  11  12
ENDBRANCH  10  11
ENDBRANCH   9  10
ENDBRANCH   5   9
ENDBRANCH   1   5
BRANCH   2  16
HETATM   16  C           1     -34.164  -3.986 -12.568  0.00  0.00     0.284 C 
BRANCH  16  17
HETATM   17  C           1     -33.157  -4.618 -11.617  0.00  0.00     0.155 C 
BRANCH  17  18
HETATM   18  C           1     -33.811  -5.759 -10.876  0.00  0.00     0.175 C 
HETATM   19  O           1     -33.220  -6.855 -10.769  0.00  0.00    -0.648 OA
HETATM   20  O           1     -34.943  -5.608 -10.368  0.00  0.00    -0.648 OA
ENDBRANCH  17  18
ENDBRANCH  16  17
BRANCH  16  21
HETATM   21  N           1     -33.602  -3.981 -13.959  0.00  0.00    -0.066 N 
HETATM   22  H           1     -32.729  -4.555 -13.985  0.00  0.00     0.275 HD
HETATM   23  H           1     -34.304  -4.386 -14.619  0.00  0.00     0.275 HD
HETATM   24  H           1     -33.381  -2.999 -14.241  0.00  0.00     0.275 HD
ENDBRANCH  16  21
ENDBRANCH   2  16
TORSDOF 10
ENDMDL
MODEL 8
REMARK VINA RESULT:      -5.2      1.604      2.177
REMARK  10 active torsions:
REMARK  status: ('A' for Active; 'I' for Inactive)
REMARK    1  A    between atoms: C_1  and  C_8 
REMARK    2  A    between atoms: C_1  and  C_13 
REMARK    3  A    between atoms: N_3  and  C_8 
REMARK    4  A    between atoms: C_6  and  C_12 
REMARK    5  A    between atoms: N_7  and  C_12 
REMARK       I    between atoms: N_7  and  C_9 
REMARK    6  A    between atoms: C_8  and  C_9 
REMARK    7  A    between atoms: C_10  and  N_20 
REMARK    8  A    between atoms: C_10  and  C_14 
REMARK    9  A    between atoms: C_11  and  C_14 
REMARK   10  A    between atoms: C_11  and  C_12 
ROOT
HETATM    1  N           1     -35.762  -1.374 -12.820  0.00  0.00    -0.345 N 
HETATM    2  C           1     -35.424  -0.061 -13.006  0.00  0.00     0.249 C 
HETATM    3  O           1     -34.960   0.578 -12.092  0.00  0.00    -0.271 OA
HETATM    4  H           1     -36.151  -1.910 -13.586  0.00  0.00     0.163 HD
ENDROOT
BRANCH   1   5
HETATM    5  C           1     -35.564  -1.997 -11.526  0.00  0.00     0.185 C 
BRANCH   5   6
HETATM    6  C           1     -36.420  -1.300 -10.497  0.00  0.00     0.196 C 
HETATM    7  O           1     -37.655  -1.207 -10.670  0.00  0.00    -0.646 OA
HETATM    8  O           1     -35.894  -0.817  -9.471  0.00  0.00    -0.646 OA
ENDBRANCH   5   6
BRANCH   5   9
HETATM    9  C           1     -34.099  -1.887 -11.128  0.00  0.00     0.038 C 
BRANCH   9  10
HETATM   10  C           1     -33.591  -3.249 -10.674  0.00  0.00     0.030 C 
BRANCH  10  11
HETATM   11  C           1     -33.975  -4.304 -11.705  0.00  0.00     0.230 C 
BRANCH  11  12
HETATM   12  N           1     -32.860  -4.468 -12.694  0.00  0.00    -0.079 N 
HETATM   13  H           1     -32.062  -3.850 -12.424  0.00  0.00     0.274 HD
HETATM   14  H           1     -33.200  -4.204 -13.646  0.00  0.00     0.274 HD
HETATM   15  H           1     -32.544  -5.464 -12.700  0.00  0.00     0.274 HD
ENDBRANCH  11  12
ENDBRANCH  10  11
ENDBRANCH   9  10
ENDBRANCH   5   9
ENDBRANCH   1   5
BRANCH   2  16
HETATM   16  C           1     -35.629   0.588 -14.353  0.00  0.00     0.284 C 
BRANCH  16  17
HETATM   17  C           1     -36.714  -0.158 -15.117  0.00  0.00     0.155 C 
BRANCH  17  18
HETATM   18  C           1     -36.083  -0.980 -16.214  0.00  0.00     0.175 C 
HETATM   19  O           1     -36.296  -0.693 -17.412  0.00  0.00    -0.648 OA
HETATM   20  O           1     -35.346  -1.948 -15.926  0.00  0.00    -0.648 OA
ENDBRANCH  17  18
ENDBRANCH  16  17
BRANCH  16  21
HETATM   21  N           1     -34.347   0.540 -15.131  0.00  0.00    -0.066 N 
HETATM   22  H           1     -33.847  -0.354 -14.925  0.00  0.00     0.275 HD
HETATM   23  H           1     -34.560   0.593 -16.153  0.00  0.00     0.275 HD
HETATM   24  H           1     -33.744   1.348 -14.857  0.00  0.00     0.275 HD
ENDBRANCH  16  21
ENDBRANCH   2  16
TORSDOF 10
ENDMDL
MODEL 9
REMARK VINA RESULT:      -5.1     14.041     17.109
REMARK  10 active torsions:
REMARK  status: ('A' for Active; 'I' for Inactive)
REMARK    1  A    between atoms: C_1  and  C_8 
REMARK    2  A    between atoms: C_1  and  C_13 
REMARK    3  A    between atoms: N_3  and  C_8 
REMARK    4  A    between atoms: C_6  and  C_12 
REMARK    5  A    between atoms: N_7  and  C_12 
REMARK       I    between atoms: N_7  and  C_9 
REMARK    6  A    between atoms: C_8  and  C_9 
REMARK    7  A    between atoms: C_10  and  N_20 
REMARK    8  A    between atoms: C_10  and  C_14 
REMARK    9  A    between atoms: C_11  and  C_14 
REMARK   10  A    between atoms: C_11  and  C_12 
ROOT
HETATM    1  N           1     -20.996  -5.406  -4.949  0.00  0.00    -0.345 N 
HETATM    2  C           1     -21.392  -6.438  -4.142  0.00  0.00     0.249 C 
HETATM    3  O           1     -21.887  -7.428  -4.625  0.00  0.00    -0.271 OA
HETATM    4  H           1     -20.582  -4.577  -4.544  0.00  0.00     0.163 HD
ENDROOT
BRANCH   1   5
HETATM    5  C           1     -21.171  -5.502  -6.385  0.00  0.00     0.185 C 
BRANCH   5   6
HETATM    6  C           1     -19.840  -5.792  -7.035  0.00  0.00     0.196 C 
HETATM    7  O           1     -19.354  -6.943  -6.978  0.00  0.00    -0.646 OA
HETATM    8  O           1     -19.224  -4.882  -7.631  0.00  0.00    -0.646 OA
ENDBRANCH   5   6
BRANCH   5   9
HETATM    9  C           1     -21.721  -4.186  -6.918  0.00  0.00     0.038 C 
BRANCH   9  10
HETATM   10  C           1     -23.134  -4.401  -7.444  0.00  0.00     0.030 C 
BRANCH  10  11
HETATM   11  C           1     -23.231  -3.872  -8.870  0.00  0.00     0.230 C 
BRANCH  11  12
HETATM   12  N           1     -24.585  -3.262  -9.086  0.00  0.00    -0.079 N 
HETATM   13  H           1     -25.171  -3.910  -9.659  0.00  0.00     0.274 HD
HETATM   14  H           1     -24.478  -2.351  -9.588  0.00  0.00     0.274 HD
HETATM   15  H           1     -25.045  -3.099  -8.163  0.00  0.00     0.274 HD
ENDBRANCH  11  12
ENDBRANCH  10  11
ENDBRANCH   9  10
ENDBRANCH   5   9
ENDBRANCH   1   5
BRANCH   2  16
HETATM   16  C           1     -21.210  -6.339  -2.647  0.00  0.00     0.284 C 
BRANCH  16  17
HETATM   17  C           1     -20.697  -7.667  -2.107  0.00  0.00     0.155 C 
BRANCH  17  18
HETATM   18  C           1     -21.631  -8.169  -1.034  0.00  0.00     0.175 C 
HETATM   19  O           1     -21.600  -7.664   0.109  0.00  0.00    -0.648 OA
HETATM   20  O           1     -22.438  -9.090  -1.287  0.00  0.00    -0.648 OA
ENDBRANCH  17  18
ENDBRANCH  16  17
BRANCH  16  21
HETATM   21  N           1     -22.527  -6.014  -2.004  0.00  0.00    -0.066 N 
HETATM   22  H           1     -22.441  -6.104  -0.967  0.00  0.00     0.275 HD
HETATM   23  H           1     -22.800  -5.035  -2.248  0.00  0.00     0.275 HD
HETATM   24  H           1     -23.256  -6.677  -2.352  0.00  0.00     0.275 HD
ENDBRANCH  16  21
ENDBRANCH   2  16
TORSDOF 10
ENDMDL
