MODEL 1
REMARK VINA RESULT:      -7.6      0.000      0.000
REMARK  12 active torsions:
REMARK  status: ('A' for Active; 'I' for Inactive)
REMARK    1  A    between atoms: C_1  and  C_24 
REMARK    2  A    between atoms: C_1  and  C_2 
REMARK    3  A    between atoms: C_1  and  N_7 
REMARK    4  A    between atoms: C_2  and  C_3 
REMARK    5  A    between atoms: C_3  and  C_4 
REMARK       I    between atoms: C_4  and  N_5 
REMARK    6  A    between atoms: C_10  and  C_11 
REMARK    7  A    between atoms: C_11  and  C_12 
REMARK    8  A    between atoms: C_11  and  N_19 
REMARK    9  A    between atoms: C_12  and  C_18 
REMARK       I    between atoms: N_19  and  C_24 
REMARK   10  A    between atoms: C_22  and  O_23 
REMARK   11  A    between atoms: O_23  and  P_29 
REMARK   12  A    between atoms: P_29  and  O_33 
ROOT
HETATM    1  C           1     -36.252  -0.828 -12.492  0.00  0.00     0.189 C 
ENDROOT
BRANCH   1   2
HETATM    2  C           1     -36.941  -0.395 -11.221  0.00  0.00     0.197 C 
HETATM    3  O           1     -38.075  -0.842 -10.942  0.00  0.00    -0.646 OA
HETATM    4  O           1     -36.379   0.410 -10.448  0.00  0.00    -0.646 OA
ENDBRANCH   1   2
BRANCH   1   5
HETATM    5  C           1     -34.748  -0.888 -12.259  0.00  0.00     0.074 C 
BRANCH   5   6
HETATM    6  C           1     -34.350  -2.287 -11.909  0.00  0.00    -0.056 A 
HETATM    7  C           1     -34.209  -3.244 -12.915  0.00  0.00     0.010 A 
HETATM    8  C           1     -33.838  -4.548 -12.590  0.00  0.00     0.038 A 
HETATM    9  C           1     -33.608  -4.896 -11.259  0.00  0.00     0.081 A 
HETATM   10  C           1     -33.749  -3.940 -10.254  0.00  0.00     0.038 A 
HETATM   11  C           1     -34.120  -2.636 -10.579  0.00  0.00     0.010 A 
BRANCH   9  12
HETATM   12  O           1     -33.247  -6.164 -10.942  0.00  0.00    -0.247 OA
BRANCH  12  13
HETATM   13  P           1     -34.416  -7.216 -10.577  0.00  0.00     0.411 P 
HETATM   14  O           1     -35.277  -6.649  -9.515  0.00  0.00    -0.624 OA
HETATM   15  O           1     -33.810  -8.479 -10.098  0.00  0.00    -0.624 OA
BRANCH  13  16
HETATM   16  O           1     -35.307  -7.509 -11.892  0.00  0.00    -0.300 OA
HETATM   17  H           1     -34.687  -7.557 -12.599  0.00  0.00     0.223 HD
ENDBRANCH  13  16
ENDBRANCH  12  13
ENDBRANCH   9  12
ENDBRANCH   5   6
ENDBRANCH   1   5
BRANCH   1  18
HETATM   18  N           1     -36.540   0.124 -13.546  0.00  0.00    -0.344 N 
HETATM   19  H           1     -36.564   1.115 -13.340  0.00  0.00     0.163 HD
HETATM   20  C           1     -36.780  -0.316 -14.820  0.00  0.00     0.249 C 
HETATM   21  O           1     -37.907  -0.579 -15.165  0.00  0.00    -0.271 OA
BRANCH  20  22
HETATM   22  C           1     -35.637  -0.472 -15.792  0.00  0.00     0.275 C 
BRANCH  22  23
HETATM   23  C           1     -35.257  -1.944 -15.898  0.00  0.00     0.052 C 
BRANCH  23  24
HETATM   24  C           1     -34.600  -2.203 -17.247  0.00  0.00     0.105 C 
BRANCH  24  25
HETATM   25  C           1     -33.496  -3.219 -17.083  0.00  0.00     0.215 C 
HETATM   26  N           1     -33.691  -4.320 -16.293  0.00  0.00    -0.370 N 
HETATM   27  H           1     -32.950  -5.001 -16.183  0.00  0.00     0.159 HD
HETATM   28  H           1     -34.575  -4.453 -15.819  0.00  0.00     0.159 HD
HETATM   29  O           1     -32.441  -3.061 -17.649  0.00  0.00    -0.274 OA
ENDBRANCH  24  25
ENDBRANCH  23  24
ENDBRANCH  22  23
BRANCH  22  30
HETATM   30  N           1     -34.456   0.315 -15.307  0.00  0.00    -0.066 N 
HETATM   31  H           1     -34.552   0.491 -14.281  0.00  0.00     0.275 HD
HETATM   32  H           1     -33.580  -0.226 -15.486  0.00  0.00     0.275 HD
HETATM   33  H           1     -34.414   1.227 -15.814  0.00  0.00     0.275 HD
ENDBRANCH  22  30
ENDBRANCH  20  22
ENDBRANCH   1  18
TORSDOF 12
ENDMDL
MODEL 2
REMARK VINA RESULT:      -7.4     14.137     17.209
REMARK  12 active torsions:
REMARK  status: ('A' for Active; 'I' for Inactive)
REMARK    1  A    between atoms: C_1  and  C_24 
REMARK    2  A    between atoms: C_1  and  C_2 
REMARK    3  A    between atoms: C_1  and  N_7 
REMARK    4  A    between atoms: C_2  and  C_3 
REMARK    5  A    between atoms: C_3  and  C_4 
REMARK       I    between atoms: C_4  and  N_5 
REMARK    6  A    between atoms: C_10  and  C_11 
REMARK    7  A    between atoms: C_11  and  C_12 
REMARK    8  A    between atoms: C_11  and  N_19 
REMARK    9  A    between atoms: C_12  and  C_18 
REMARK       I    between atoms: N_19  and  C_24 
REMARK   10  A    between atoms: C_22  and  O_23 
REMARK   11  A    between atoms: O_23  and  P_29 
REMARK   12  A    between atoms: P_29  and  O_33 
ROOT
HETATM    1  C           1     -21.704  -6.728  -5.409  0.00  0.00     0.189 C 
ENDROOT
BRANCH   1   2
HETATM    2  C           1     -20.925  -8.003  -5.195  0.00  0.00     0.197 C 
HETATM    3  O           1     -19.687  -7.959  -5.034  0.00  0.00    -0.646 OA
HETATM    4  O           1     -21.519  -9.103  -5.179  0.00  0.00    -0.646 OA
ENDBRANCH   1   2
BRANCH   1   5
HETATM    5  C           1     -20.746  -5.604  -5.780  0.00  0.00     0.074 C 
BRANCH   5   6
HETATM    6  C           1     -21.167  -4.996  -7.081  0.00  0.00    -0.056 A 
HETATM    7  C           1     -20.297  -5.014  -8.172  0.00  0.00     0.010 A 
HETATM    8  C           1     -20.688  -4.448  -9.385  0.00  0.00     0.038 A 
HETATM    9  C           1     -21.949  -3.864  -9.507  0.00  0.00     0.081 A 
HETATM   10  C           1     -22.819  -3.847  -8.418  0.00  0.00     0.038 A 
HETATM   11  C           1     -22.428  -4.413  -7.205  0.00  0.00     0.010 A 
BRANCH   9  12
HETATM   12  O           1     -22.330  -3.314 -10.687  0.00  0.00    -0.247 OA
BRANCH  12  13
HETATM   13  P           1     -23.612  -3.946 -11.439  0.00  0.00     0.411 P 
HETATM   14  O           1     -24.821  -3.166 -11.092  0.00  0.00    -0.624 OA
HETATM   15  O           1     -23.792  -5.351 -11.011  0.00  0.00    -0.624 OA
BRANCH  13  16
HETATM   16  O           1     -23.378  -3.893 -13.036  0.00  0.00    -0.300 OA
HETATM   17  H           1     -24.202  -4.154 -13.411  0.00  0.00     0.223 HD
ENDBRANCH  13  16
ENDBRANCH  12  13
ENDBRANCH   9  12
ENDBRANCH   5   6
ENDBRANCH   1   5
BRANCH   1  18
HETATM   18  N           1     -22.407  -6.381  -4.190  0.00  0.00    -0.344 N 
HETATM   19  H           1     -23.399  -6.181  -4.217  0.00  0.00     0.163 HD
HETATM   20  C           1     -21.730  -6.325  -3.002  0.00  0.00     0.249 C 
HETATM   21  O           1     -21.222  -5.289  -2.645  0.00  0.00    -0.271 OA
BRANCH  20  22
HETATM   22  C           1     -21.618  -7.557  -2.138  0.00  0.00     0.275 C 
BRANCH  22  23
HETATM   23  C           1     -22.330  -7.317  -0.814  0.00  0.00     0.052 C 
BRANCH  23  24
HETATM   24  C           1     -21.739  -8.227   0.254  0.00  0.00     0.105 C 
BRANCH  24  25
HETATM   25  C           1     -22.364  -9.596   0.152  0.00  0.00     0.215 C 
HETATM   26  N           1     -21.580 -10.715   0.237  0.00  0.00    -0.370 N 
HETATM   27  H           1     -22.000 -11.634   0.169  0.00  0.00     0.159 HD
HETATM   28  H           1     -20.581 -10.624   0.369  0.00  0.00     0.159 HD
HETATM   29  O           1     -23.557  -9.706  -0.005  0.00  0.00    -0.274 OA
ENDBRANCH  24  25
ENDBRANCH  23  24
ENDBRANCH  22  23
BRANCH  22  30
HETATM   30  N           1     -20.171  -7.856  -1.880  0.00  0.00    -0.066 N 
HETATM   31  H           1     -19.586  -7.053  -2.205  0.00  0.00     0.275 HD
HETATM   32  H           1     -20.023  -8.001  -0.855  0.00  0.00     0.275 HD
HETATM   33  H           1     -19.896  -8.720  -2.398  0.00  0.00     0.275 HD
ENDBRANCH  22  30
ENDBRANCH  20  22
ENDBRANCH   1  18
TORSDOF 12
ENDMDL
MODEL 3
REMARK VINA RESULT:      -7.3     13.446     16.379
REMARK  12 active torsions:
REMARK  status: ('A' for Active; 'I' for Inactive)
REMARK    1  A    between atoms: C_1  and  C_24 
REMARK    2  A    between atoms: C_1  and  C_2 
REMARK    3  A    between atoms: C_1  and  N_7 
REMARK    4  A    between atoms: C_2  and  C_3 
REMARK    5  A    between atoms: C_3  and  C_4 
REMARK       I    between atoms: C_4  and  N_5 
REMARK    6  A    between atoms: C_10  and  C_11 
REMARK    7  A    between atoms: C_11  and  C_12 
REMARK    8  A    between atoms: C_11  and  N_19 
REMARK    9  A    between atoms: C_12  and  C_18 
REMARK       I    between atoms: N_19  and  C_24 
REMARK   10  A    between atoms: C_22  and  O_23 
REMARK   11  A    between atoms: O_23  and  P_29 
REMARK   12  A    between atoms: P_29  and  O_33 
ROOT
HETATM    1  C           1     -21.239  -6.083  -7.084  0.00  0.00     0.189 C 
ENDROOT
BRANCH   1   2
HETATM    2  C           1     -19.773  -5.979  -6.742  0.00  0.00     0.197 C 
HETATM    3  O           1     -19.042  -6.991  -6.810  0.00  0.00    -0.646 OA
HETATM    4  O           1     -19.289  -4.882  -6.390  0.00  0.00    -0.646 OA
ENDBRANCH   1   2
BRANCH   1   5
HETATM    5  C           1     -21.879  -4.704  -6.999  0.00  0.00     0.074 C 
BRANCH   5   6
HETATM    6  C           1     -22.136  -4.184  -8.379  0.00  0.00    -0.056 A 
HETATM    7  C           1     -23.407  -3.724  -8.725  0.00  0.00     0.010 A 
HETATM    8  C           1     -23.647  -3.239 -10.011  0.00  0.00     0.038 A 
HETATM    9  C           1     -22.616  -3.215 -10.950  0.00  0.00     0.081 A 
HETATM   10  C           1     -21.345  -3.675 -10.604  0.00  0.00     0.038 A 
HETATM   11  C           1     -21.106  -4.159  -9.319  0.00  0.00     0.010 A 
BRANCH   9  12
HETATM   12  O           1     -22.848  -2.744 -12.200  0.00  0.00    -0.247 OA
BRANCH  12  13
HETATM   13  P           1     -23.932  -3.519 -13.113  0.00  0.00     0.411 P 
HETATM   14  O           1     -23.645  -3.265 -14.542  0.00  0.00    -0.624 OA
HETATM   15  O           1     -25.290  -3.030 -12.788  0.00  0.00    -0.624 OA
BRANCH  13  16
HETATM   16  O           1     -23.845  -5.105 -12.821  0.00  0.00    -0.300 OA
HETATM   17  H           1     -24.306  -5.509 -13.536  0.00  0.00     0.223 HD
ENDBRANCH  13  16
ENDBRANCH  12  13
ENDBRANCH   9  12
ENDBRANCH   5   6
ENDBRANCH   1   5
BRANCH   1  18
HETATM   18  N           1     -21.892  -6.977  -6.148  0.00  0.00    -0.344 N 
HETATM   19  H           1     -21.976  -7.962  -6.364  0.00  0.00     0.163 HD
HETATM   20  C           1     -22.395  -6.489  -4.973  0.00  0.00     0.249 C 
HETATM   21  O           1     -23.535  -6.093  -4.922  0.00  0.00    -0.271 OA
BRANCH  20  22
HETATM   22  C           1     -21.525  -6.445  -3.740  0.00  0.00     0.275 C 
BRANCH  22  23
HETATM   23  C           1     -21.018  -7.846  -3.425  0.00  0.00     0.052 C 
BRANCH  23  24
HETATM   24  C           1     -20.685  -7.944  -1.942  0.00  0.00     0.105 C 
BRANCH  24  25
HETATM   25  C           1     -21.384  -9.142  -1.348  0.00  0.00     0.215 C 
HETATM   26  N           1     -22.477  -8.966  -0.541  0.00  0.00    -0.370 N 
HETATM   27  H           1     -22.946  -9.770  -0.143  0.00  0.00     0.159 HD
HETATM   28  H           1     -22.815  -8.033  -0.344  0.00  0.00     0.159 HD
HETATM   29  O           1     -20.981 -10.256  -1.584  0.00  0.00    -0.274 OA
ENDBRANCH  24  25
ENDBRANCH  23  24
ENDBRANCH  22  23
BRANCH  22  30
HETATM   30  N           1     -22.327  -5.932  -2.582  0.00  0.00    -0.066 N 
HETATM   31  H           1     -23.186  -5.453  -2.936  0.00  0.00     0.275 HD
HETATM   32  H           1     -22.604  -6.732  -1.968  0.00  0.00     0.275 HD
HETATM   33  H           1     -21.752  -5.254  -2.033  0.00  0.00     0.275 HD
ENDBRANCH  22  30
ENDBRANCH  20  22
ENDBRANCH   1  18
TORSDOF 12
ENDMDL
MODEL 4
REMARK VINA RESULT:      -7.1      2.135      2.832
REMARK  12 active torsions:
REMARK  status: ('A' for Active; 'I' for Inactive)
REMARK    1  A    between atoms: C_1  and  C_24 
REMARK    2  A    between atoms: C_1  and  C_2 
REMARK    3  A    between atoms: C_1  and  N_7 
REMARK    4  A    between atoms: C_2  and  C_3 
REMARK    5  A    between atoms: C_3  and  C_4 
REMARK       I    between atoms: C_4  and  N_5 
REMARK    6  A    between atoms: C_10  and  C_11 
REMARK    7  A    between atoms: C_11  and  C_12 
REMARK    8  A    between atoms: C_11  and  N_19 
REMARK    9  A    between atoms: C_12  and  C_18 
REMARK       I    between atoms: N_19  and  C_24 
REMARK   10  A    between atoms: C_22  and  O_23 
REMARK   11  A    between atoms: O_23  and  P_29 
REMARK   12  A    between atoms: P_29  and  O_33 
ROOT
HETATM    1  C           1     -36.868  -0.551 -10.225  0.00  0.00     0.189 C 
ENDROOT
BRANCH   1   2
HETATM    2  C           1     -37.509   0.137  -9.044  0.00  0.00     0.197 C 
HETATM    3  O           1     -37.871   1.329  -9.137  0.00  0.00    -0.646 OA
HETATM    4  O           1     -37.677  -0.486  -7.973  0.00  0.00    -0.646 OA
ENDBRANCH   1   2
BRANCH   1   5
HETATM    5  C           1     -35.385  -0.762  -9.948  0.00  0.00     0.074 C 
BRANCH   5   6
HETATM    6  C           1     -34.992  -2.149 -10.353  0.00  0.00    -0.056 A 
HETATM    7  C           1     -35.970  -3.130 -10.517  0.00  0.00     0.010 A 
HETATM    8  C           1     -35.605  -4.422 -10.895  0.00  0.00     0.038 A 
HETATM    9  C           1     -34.262  -4.732 -11.108  0.00  0.00     0.081 A 
HETATM   10  C           1     -33.285  -3.752 -10.944  0.00  0.00     0.038 A 
HETATM   11  C           1     -33.650  -2.460 -10.566  0.00  0.00     0.010 A 
BRANCH   9  12
HETATM   12  O           1     -33.907  -5.988 -11.475  0.00  0.00    -0.247 OA
BRANCH  12  13
HETATM   13  P           1     -34.193  -7.192 -10.437  0.00  0.00     0.411 P 
HETATM   14  O           1     -35.353  -7.982 -10.905  0.00  0.00    -0.624 OA
HETATM   15  O           1     -34.487  -6.629  -9.100  0.00  0.00    -0.624 OA
BRANCH  13  16
HETATM   16  O           1     -32.893  -8.145 -10.347  0.00  0.00    -0.300 OA
HETATM   17  H           1     -32.790  -8.331  -9.430  0.00  0.00     0.223 HD
ENDBRANCH  13  16
ENDBRANCH  12  13
ENDBRANCH   9  12
ENDBRANCH   5   6
ENDBRANCH   1   5
BRANCH   1  18
HETATM   18  N           1     -37.025   0.272 -11.408  0.00  0.00    -0.344 N 
HETATM   19  H           1     -37.335   1.232 -11.318  0.00  0.00     0.163 HD
HETATM   20  C           1     -36.755  -0.247 -12.645  0.00  0.00     0.249 C 
HETATM   21  O           1     -37.631  -0.789 -13.276  0.00  0.00    -0.271 OA
BRANCH  20  22
HETATM   22  C           1     -35.364  -0.143 -13.220  0.00  0.00     0.275 C 
BRANCH  22  23
HETATM   23  C           1     -35.351   0.892 -14.337  0.00  0.00     0.052 C 
BRANCH  23  24
HETATM   24  C           1     -35.306   0.185 -15.685  0.00  0.00     0.105 C 
BRANCH  24  25
HETATM   25  C           1     -36.697   0.116 -16.264  0.00  0.00     0.215 C 
HETATM   26  N           1     -37.626   1.065 -15.931  0.00  0.00    -0.370 N 
HETATM   27  H           1     -38.559   1.018 -16.321  0.00  0.00     0.159 HD
HETATM   28  H           1     -37.379   1.813 -15.296  0.00  0.00     0.159 HD
HETATM   29  O           1     -36.992  -0.778 -17.023  0.00  0.00    -0.274 OA
ENDBRANCH  24  25
ENDBRANCH  23  24
ENDBRANCH  22  23
BRANCH  22  30
HETATM   30  N           1     -34.950  -1.476 -13.769  0.00  0.00    -0.066 N 
HETATM   31  H           1     -34.824  -2.153 -12.984  0.00  0.00     0.275 HD
HETATM   32  H           1     -35.689  -1.830 -14.419  0.00  0.00     0.275 HD
HETATM   33  H           1     -34.049  -1.373 -14.288  0.00  0.00     0.275 HD
ENDBRANCH  22  30
ENDBRANCH  20  22
ENDBRANCH   1  18
TORSDOF 12
ENDMDL
MODEL 5
REMARK VINA RESULT:      -6.7     13.731     15.903
REMARK  12 active torsions:
REMARK  status: ('A' for Active; 'I' for Inactive)
REMARK    1  A    between atoms: C_1  and  C_24 
REMARK    2  A    between atoms: C_1  and  C_2 
REMARK    3  A    between atoms: C_1  and  N_7 
REMARK    4  A    between atoms: C_2  and  C_3 
REMARK    5  A    between atoms: C_3  and  C_4 
REMARK       I    between atoms: C_4  and  N_5 
REMARK    6  A    between atoms: C_10  and  C_11 
REMARK    7  A    between atoms: C_11  and  C_12 
REMARK    8  A    between atoms: C_11  and  N_19 
REMARK    9  A    between atoms: C_12  and  C_18 
REMARK       I    between atoms: N_19  and  C_24 
REMARK   10  A    between atoms: C_22  and  O_23 
REMARK   11  A    between atoms: O_23  and  P_29 
REMARK   12  A    between atoms: P_29  and  O_33 
ROOT
HETATM    1  C           1     -21.182  -6.970  -6.127  0.00  0.00     0.189 C 
ENDROOT
BRANCH   1   2
HETATM    2  C           1     -21.832  -6.126  -5.058  0.00  0.00     0.197 C 
HETATM    3  O           1     -23.078  -6.045  -4.998  0.00  0.00    -0.646 OA
HETATM    4  O           1     -21.125  -5.508  -4.233  0.00  0.00    -0.646 OA
ENDBRANCH   1   2
BRANCH   1   5
HETATM    5  C           1     -19.972  -7.687  -5.542  0.00  0.00     0.074 C 
BRANCH   5   6
HETATM    6  C           1     -20.423  -8.662  -4.500  0.00  0.00    -0.056 A 
HETATM    7  C           1     -21.454  -9.559  -4.784  0.00  0.00     0.010 A 
HETATM    8  C           1     -21.874 -10.468  -3.814  0.00  0.00     0.038 A 
HETATM    9  C           1     -21.264 -10.480  -2.560  0.00  0.00     0.081 A 
HETATM   10  C           1     -20.234  -9.585  -2.275  0.00  0.00     0.038 A 
HETATM   11  C           1     -19.814  -8.676  -3.245  0.00  0.00     0.010 A 
BRANCH   9  12
HETATM   12  O           1     -21.673 -11.364  -1.616  0.00  0.00    -0.247 OA
BRANCH  12  13
HETATM   13  P           1     -22.980 -10.992  -0.744  0.00  0.00     0.411 P 
HETATM   14  O           1     -22.961 -11.755   0.524  0.00  0.00    -0.624 OA
HETATM   15  O           1     -24.198 -11.340  -1.510  0.00  0.00    -0.624 OA
BRANCH  13  16
HETATM   16  O           1     -22.979  -9.410  -0.421  0.00  0.00    -0.300 OA
HETATM   17  H           1     -22.070  -9.180  -0.338  0.00  0.00     0.223 HD
ENDBRANCH  13  16
ENDBRANCH  12  13
ENDBRANCH   9  12
ENDBRANCH   5   6
ENDBRANCH   1   5
BRANCH   1  18
HETATM   18  N           1     -20.756  -6.120  -7.221  0.00  0.00    -0.344 N 
HETATM   19  H           1     -20.013  -6.423  -7.838  0.00  0.00     0.163 HD
HETATM   20  C           1     -21.358  -4.907  -7.421  0.00  0.00     0.249 C 
HETATM   21  O           1     -20.918  -3.919  -6.882  0.00  0.00    -0.271 OA
BRANCH  20  22
HETATM   22  C           1     -22.572  -4.804  -8.312  0.00  0.00     0.275 C 
BRANCH  22  23
HETATM   23  C           1     -22.271  -3.865  -9.473  0.00  0.00     0.052 C 
BRANCH  23  24
HETATM   24  C           1     -22.999  -4.350 -10.720  0.00  0.00     0.105 C 
BRANCH  24  25
HETATM   25  C           1     -24.125  -3.400 -11.047  0.00  0.00     0.215 C 
HETATM   26  N           1     -24.074  -2.646 -12.189  0.00  0.00    -0.370 N 
HETATM   27  H           1     -24.830  -2.009 -12.408  0.00  0.00     0.159 HD
HETATM   28  H           1     -23.282  -2.726 -12.813  0.00  0.00     0.159 HD
HETATM   29  O           1     -25.071  -3.304 -10.301  0.00  0.00    -0.274 OA
ENDBRANCH  24  25
ENDBRANCH  23  24
ENDBRANCH  22  23
BRANCH  22  30
HETATM   30  N           1     -23.728  -4.267  -7.522  0.00  0.00    -0.066 N 
HETATM   31  H           1     -24.620  -4.655  -7.902  0.00  0.00     0.275 HD
HETATM   32  H           1     -23.625  -4.549  -6.520  0.00  0.00     0.275 HD
HETATM   33  H           1     -23.743  -3.225  -7.592  0.00  0.00     0.275 HD
ENDBRANCH  22  30
ENDBRANCH  20  22
ENDBRANCH   1  18
TORSDOF 12
ENDMDL
MODEL 6
REMARK VINA RESULT:      -6.6     14.374     17.619
REMARK  12 active torsions:
REMARK  status: ('A' for Active; 'I' for Inactive)
REMARK    1  A    between atoms: C_1  and  C_24 
REMARK    2  A    between atoms: C_1  and  C_2 
REMARK    3  A    between atoms: C_1  and  N_7 
REMARK    4  A    between atoms: C_2  and  C_3 
REMARK    5  A    between atoms: C_3  and  C_4 
REMARK       I    between atoms: C_4  and  N_5 
REMARK    6  A    between atoms: C_10  and  C_11 
REMARK    7  A    between atoms: C_11  and  C_12 
REMARK    8  A    between atoms: C_11  and  N_19 
REMARK    9  A    between atoms: C_12  and  C_18 
REMARK       I    between atoms: N_19  and  C_24 
REMARK   10  A    between atoms: C_22  and  O_23 
REMARK   11  A    between atoms: O_23  and  P_29 
REMARK   12  A    between atoms: P_29  and  O_33 
ROOT
HETATM    1  C           1     -21.128  -7.789  -5.231  0.00  0.00     0.189 C 
ENDROOT
BRANCH   1   2
HETATM    2  C           1     -20.589  -9.146  -5.615  0.00  0.00     0.197 C 
HETATM    3  O           1     -19.357  -9.353  -5.605  0.00  0.00    -0.646 OA
HETATM    4  O           1     -21.375 -10.061  -5.942  0.00  0.00    -0.646 OA
ENDBRANCH   1   2
BRANCH   1   5
HETATM    5  C           1     -20.174  -6.707  -5.718  0.00  0.00     0.074 C 
BRANCH   5   6
HETATM    6  C           1     -20.887  -5.803  -6.674  0.00  0.00    -0.056 A 
HETATM    7  C           1     -22.165  -5.333  -6.367  0.00  0.00     0.010 A 
HETATM    8  C           1     -22.830  -4.490  -7.257  0.00  0.00     0.038 A 
HETATM    9  C           1     -22.217  -4.117  -8.454  0.00  0.00     0.081 A 
HETATM   10  C           1     -20.940  -4.585  -8.760  0.00  0.00     0.038 A 
HETATM   11  C           1     -20.275  -5.428  -7.870  0.00  0.00     0.010 A 
BRANCH   9  12
HETATM   12  O           1     -22.864  -3.298  -9.319  0.00  0.00    -0.247 OA
BRANCH  12  13
HETATM   13  P           1     -24.040  -3.930 -10.227  0.00  0.00     0.411 P 
HETATM   14  O           1     -23.746  -5.355 -10.493  0.00  0.00    -0.624 OA
HETATM   15  O           1     -24.121  -3.195 -11.509  0.00  0.00    -0.624 OA
BRANCH  13  16
HETATM   16  O           1     -25.448  -3.808  -9.445  0.00  0.00    -0.300 OA
HETATM   17  H           1     -25.747  -4.695  -9.343  0.00  0.00     0.223 HD
ENDBRANCH  13  16
ENDBRANCH  12  13
ENDBRANCH   9  12
ENDBRANCH   5   6
ENDBRANCH   1   5
BRANCH   1  18
HETATM   18  N           1     -21.253  -7.709  -3.789  0.00  0.00    -0.344 N 
HETATM   19  H           1     -21.776  -6.952  -3.368  0.00  0.00     0.163 HD
HETATM   20  C           1     -20.666  -8.658  -2.997  0.00  0.00     0.249 C 
HETATM   21  O           1     -19.534  -8.499  -2.604  0.00  0.00    -0.271 OA
BRANCH  20  22
HETATM   22  C           1     -21.429  -9.902  -2.616  0.00  0.00     0.275 C 
BRANCH  22  23
HETATM   23  C           1     -21.500 -10.010  -1.098  0.00  0.00     0.052 C 
BRANCH  23  24
HETATM   24  C           1     -22.803  -9.396  -0.605  0.00  0.00     0.105 C 
BRANCH  24  25
HETATM   25  C           1     -22.525  -8.043   0.001  0.00  0.00     0.215 C 
HETATM   26  N           1     -21.912  -7.952   1.222  0.00  0.00    -0.370 N 
HETATM   27  H           1     -21.725  -7.044   1.628  0.00  0.00     0.159 HD
HETATM   28  H           1     -21.647  -8.793   1.718  0.00  0.00     0.159 HD
HETATM   29  O           1     -22.841  -7.038  -0.592  0.00  0.00    -0.274 OA
ENDBRANCH  24  25
ENDBRANCH  23  24
ENDBRANCH  22  23
BRANCH  22  30
HETATM   30  N           1     -20.730 -11.107  -3.170  0.00  0.00    -0.066 N 
HETATM   31  H           1     -21.393 -11.915  -3.196  0.00  0.00     0.275 HD
HETATM   32  H           1     -20.395 -10.901  -4.139  0.00  0.00     0.275 HD
HETATM   33  H           1     -19.914 -11.347  -2.562  0.00  0.00     0.275 HD
ENDBRANCH  22  30
ENDBRANCH  20  22
ENDBRANCH   1  18
TORSDOF 12
ENDMDL
MODEL 7
REMARK VINA RESULT:      -6.5     16.750     19.146
REMARK  12 active torsions:
REMARK  status: ('A' for Active; 'I' for Inactive)
REMARK    1  A    between atoms: C_1  and  C_24 
REMARK    2  A    between atoms: C_1  and  C_2 
REMARK    3  A    between atoms: C_1  and  N_7 
REMARK    4  A    between atoms: C_2  and  C_3 
REMARK    5  A    between atoms: C_3  and  C_4 
REMARK       I    between atoms: C_4  and  N_5 
REMARK    6  A    between atoms: C_10  and  C_11 
REMARK    7  A    between atoms: C_11  and  C_12 
REMARK    8  A    between atoms: C_11  and  N_19 
REMARK    9  A    between atoms: C_12  and  C_18 
REMARK       I    between atoms: N_19  and  C_24 
REMARK   10  A    between atoms: C_22  and  O_23 
REMARK   11  A    between atoms: O_23  and  P_29 
REMARK   12  A    between atoms: P_29  and  O_33 
ROOT
HETATM    1  C           1     -20.570  -8.680  -3.536  0.00  0.00     0.189 C 
ENDROOT
BRANCH   1   2
HETATM    2  C           1     -21.720  -9.529  -3.052  0.00  0.00     0.197 C 
HETATM    3  O           1     -22.102  -9.445  -1.864  0.00  0.00    -0.646 OA
HETATM    4  O           1     -22.291 -10.315  -3.838  0.00  0.00    -0.646 OA
ENDBRANCH   1   2
BRANCH   1   5
HETATM    5  C           1     -19.376  -8.864  -2.608  0.00  0.00     0.074 C 
BRANCH   5   6
HETATM    6  C           1     -18.198  -9.341  -3.397  0.00  0.00    -0.056 A 
HETATM    7  C           1     -16.988  -9.604  -2.753  0.00  0.00     0.010 A 
HETATM    8  C           1     -15.889 -10.049  -3.488  0.00  0.00     0.038 A 
HETATM    9  C           1     -16.000 -10.231  -4.867  0.00  0.00     0.081 A 
HETATM   10  C           1     -17.209  -9.969  -5.510  0.00  0.00     0.038 A 
HETATM   11  C           1     -18.308  -9.524  -4.776  0.00  0.00     0.010 A 
BRANCH   9  12
HETATM   12  O           1     -14.932 -10.664  -5.581  0.00  0.00    -0.247 OA
BRANCH  12  13
HETATM   13  P           1     -14.515 -12.219  -5.456  0.00  0.00     0.411 P 
HETATM   14  O           1     -13.704 -12.608  -6.630  0.00  0.00    -0.624 OA
HETATM   15  O           1     -15.736 -13.053  -5.402  0.00  0.00    -0.624 OA
BRANCH  13  16
HETATM   16  O           1     -13.652 -12.437  -4.108  0.00  0.00    -0.300 OA
HETATM   17  H           1     -12.753 -12.390  -4.385  0.00  0.00     0.223 HD
ENDBRANCH  13  16
ENDBRANCH  12  13
ENDBRANCH   9  12
ENDBRANCH   5   6
ENDBRANCH   1   5
BRANCH   1  18
HETATM   18  N           1     -20.967  -7.286  -3.540  0.00  0.00    -0.344 N 
HETATM   19  H           1     -20.965  -6.756  -2.678  0.00  0.00     0.163 HD
HETATM   20  C           1     -21.345  -6.685  -4.711  0.00  0.00     0.249 C 
HETATM   21  O           1     -22.504  -6.702  -5.051  0.00  0.00    -0.271 OA
BRANCH  20  22
HETATM   22  C           1     -20.315  -6.002  -5.576  0.00  0.00     0.275 C 
BRANCH  22  23
HETATM   23  C           1     -20.808  -4.612  -5.954  0.00  0.00     0.052 C 
BRANCH  23  24
HETATM   24  C           1     -20.968  -4.522  -7.465  0.00  0.00     0.105 C 
BRANCH  24  25
HETATM   25  C           1     -22.403  -4.202  -7.802  0.00  0.00     0.215 C 
HETATM   26  N           1     -23.394  -4.465  -6.895  0.00  0.00    -0.370 N 
HETATM   27  H           1     -24.358  -4.249  -7.122  0.00  0.00     0.159 HD
HETATM   28  H           1     -23.165  -4.874  -5.999  0.00  0.00     0.159 HD
HETATM   29  O           1     -22.678  -3.713  -8.873  0.00  0.00    -0.274 OA
ENDBRANCH  24  25
ENDBRANCH  23  24
ENDBRANCH  22  23
BRANCH  22  30
HETATM   30  N           1     -20.093  -6.809  -6.820  0.00  0.00    -0.066 N 
HETATM   31  H           1     -19.116  -7.180  -6.826  0.00  0.00     0.275 HD
HETATM   32  H           1     -20.769  -7.607  -6.843  0.00  0.00     0.275 HD
HETATM   33  H           1     -20.241  -6.203  -7.658  0.00  0.00     0.275 HD
ENDBRANCH  22  30
ENDBRANCH  20  22
ENDBRANCH   1  18
TORSDOF 12
ENDMDL
MODEL 8
REMARK VINA RESULT:      -6.4     15.694     18.079
REMARK  12 active torsions:
REMARK  status: ('A' for Active; 'I' for Inactive)
REMARK    1  A    between atoms: C_1  and  C_24 
REMARK    2  A    between atoms: C_1  and  C_2 
REMARK    3  A    between atoms: C_1  and  N_7 
REMARK    4  A    between atoms: C_2  and  C_3 
REMARK    5  A    between atoms: C_3  and  C_4 
REMARK       I    between atoms: C_4  and  N_5 
REMARK    6  A    between atoms: C_10  and  C_11 
REMARK    7  A    between atoms: C_11  and  C_12 
REMARK    8  A    between atoms: C_11  and  N_19 
REMARK    9  A    between atoms: C_12  and  C_18 
REMARK       I    between atoms: N_19  and  C_24 
REMARK   10  A    between atoms: C_22  and  O_23 
REMARK   11  A    between atoms: O_23  and  P_29 
REMARK   12  A    between atoms: P_29  and  O_33 
ROOT
HETATM    1  C           1     -21.214  -7.640  -2.266  0.00  0.00     0.189 C 
ENDROOT
BRANCH   1   2
HETATM    2  C           1     -21.898  -7.503  -0.928  0.00  0.00     0.197 C 
HETATM    3  O           1     -22.894  -6.757  -0.809  0.00  0.00    -0.646 OA
HETATM    4  O           1     -21.469  -8.135   0.061  0.00  0.00    -0.646 OA
ENDBRANCH   1   2
BRANCH   1   5
HETATM    5  C           1     -19.763  -8.053  -2.055  0.00  0.00     0.074 C 
BRANCH   5   6
HETATM    6  C           1     -19.456  -9.252  -2.897  0.00  0.00    -0.056 A 
HETATM    7  C           1     -18.131  -9.582  -3.184  0.00  0.00     0.010 A 
HETATM    8  C           1     -17.845 -10.699  -3.968  0.00  0.00     0.038 A 
HETATM    9  C           1     -18.883 -11.487  -4.464  0.00  0.00     0.081 A 
HETATM   10  C           1     -20.207 -11.159  -4.176  0.00  0.00     0.038 A 
HETATM   11  C           1     -20.494 -10.041  -3.393  0.00  0.00     0.010 A 
BRANCH   9  12
HETATM   12  O           1     -18.605 -12.574  -5.226  0.00  0.00    -0.247 OA
BRANCH  12  13
HETATM   13  P           1     -18.191 -12.333  -6.768  0.00  0.00     0.411 P 
HETATM   14  O           1     -18.851 -11.107  -7.270  0.00  0.00    -0.624 OA
HETATM   15  O           1     -18.622 -13.492  -7.580  0.00  0.00    -0.624 OA
BRANCH  13  16
HETATM   16  O           1     -16.589 -12.164  -6.875  0.00  0.00    -0.300 OA
HETATM   17  H           1     -16.283 -12.177  -5.985  0.00  0.00     0.223 HD
ENDBRANCH  13  16
ENDBRANCH  12  13
ENDBRANCH   9  12
ENDBRANCH   5   6
ENDBRANCH   1   5
BRANCH   1  18
HETATM   18  N           1     -21.257  -6.369  -2.963  0.00  0.00    -0.344 N 
HETATM   19  H           1     -21.043  -5.513  -2.468  0.00  0.00     0.163 HD
HETATM   20  C           1     -21.586  -6.327  -4.291  0.00  0.00     0.249 C 
HETATM   21  O           1     -22.741  -6.204  -4.622  0.00  0.00    -0.271 OA
BRANCH  20  22
HETATM   22  C           1     -20.507  -6.436  -5.340  0.00  0.00     0.275 C 
BRANCH  22  23
HETATM   23  C           1     -20.495  -5.172  -6.190  0.00  0.00     0.052 C 
BRANCH  23  24
HETATM   24  C           1     -20.842  -5.524  -7.630  0.00  0.00     0.105 C 
BRANCH  24  25
HETATM   25  C           1     -21.962  -4.634  -8.110  0.00  0.00     0.215 C 
HETATM   26  N           1     -22.962  -4.267  -7.249  0.00  0.00    -0.370 N 
HETATM   27  H           1     -23.713  -3.669  -7.572  0.00  0.00     0.159 HD
HETATM   28  H           1     -22.950  -4.593  -6.291  0.00  0.00     0.159 HD
HETATM   29  O           1     -21.977  -4.244  -9.253  0.00  0.00    -0.274 OA
ENDBRANCH  24  25
ENDBRANCH  23  24
ENDBRANCH  22  23
BRANCH  22  30
HETATM   30  N           1     -20.779  -7.623  -6.215  0.00  0.00    -0.066 N 
HETATM   31  H           1     -21.811  -7.733  -6.344  0.00  0.00     0.275 HD
HETATM   32  H           1     -20.326  -7.480  -7.147  0.00  0.00     0.275 HD
HETATM   33  H           1     -20.391  -8.483  -5.766  0.00  0.00     0.275 HD
ENDBRANCH  22  30
ENDBRANCH  20  22
ENDBRANCH   1  18
TORSDOF 12
ENDMDL
MODEL 9
REMARK VINA RESULT:      -6.3     13.197     16.112
REMARK  12 active torsions:
REMARK  status: ('A' for Active; 'I' for Inactive)
REMARK    1  A    between atoms: C_1  and  C_24 
REMARK    2  A    between atoms: C_1  and  C_2 
REMARK    3  A    between atoms: C_1  and  N_7 
REMARK    4  A    between atoms: C_2  and  C_3 
REMARK    5  A    between atoms: C_3  and  C_4 
REMARK       I    between atoms: C_4  and  N_5 
REMARK    6  A    between atoms: C_10  and  C_11 
REMARK    7  A    between atoms: C_11  and  C_12 
REMARK    8  A    between atoms: C_11  and  N_19 
REMARK    9  A    between atoms: C_12  and  C_18 
REMARK       I    between atoms: N_19  and  C_24 
REMARK   10  A    between atoms: C_22  and  O_23 
REMARK   11  A    between atoms: O_23  and  P_29 
REMARK   12  A    between atoms: P_29  and  O_33 
ROOT
HETATM    1  C           1     -21.597  -4.831  -6.923  0.00  0.00     0.189 C 
ENDROOT
BRANCH   1   2
HETATM    2  C           1     -22.980  -5.027  -6.349  0.00  0.00     0.197 C 
HETATM    3  O           1     -23.169  -5.874  -5.450  0.00  0.00    -0.646 OA
HETATM    4  O           1     -23.935  -4.341  -6.773  0.00  0.00    -0.646 OA
ENDBRANCH   1   2
BRANCH   1   5
HETATM    5  C           1     -21.489  -5.570  -8.251  0.00  0.00     0.074 C 
BRANCH   5   6
HETATM    6  C           1     -21.852  -4.645  -9.370  0.00  0.00    -0.056 A 
HETATM    7  C           1     -23.186  -4.291  -9.576  0.00  0.00     0.010 A 
HETATM    8  C           1     -23.525  -3.428 -10.618  0.00  0.00     0.038 A 
HETATM    9  C           1     -22.531  -2.920 -11.454  0.00  0.00     0.081 A 
HETATM   10  C           1     -21.198  -3.274 -11.248  0.00  0.00     0.038 A 
HETATM   11  C           1     -20.859  -4.136 -10.206  0.00  0.00     0.010 A 
BRANCH   9  12
HETATM   12  O           1     -22.860  -2.082 -12.467  0.00  0.00    -0.247 OA
BRANCH  12  13
HETATM   13  P           1     -23.392  -2.731 -13.847  0.00  0.00     0.411 P 
HETATM   14  O           1     -24.135  -1.711 -14.619  0.00  0.00    -0.624 OA
HETATM   15  O           1     -24.289  -3.868 -13.542  0.00  0.00    -0.624 OA
BRANCH  13  16
HETATM   16  O           1     -22.134  -3.253 -14.715  0.00  0.00    -0.300 OA
HETATM   17  H           1     -22.472  -3.367 -15.587  0.00  0.00     0.223 HD
ENDBRANCH  13  16
ENDBRANCH  12  13
ENDBRANCH   9  12
ENDBRANCH   5   6
ENDBRANCH   1   5
BRANCH   1  18
HETATM   18  N           1     -20.612  -5.355  -5.998  0.00  0.00    -0.344 N 
HETATM   19  H           1     -20.159  -4.736  -5.337  0.00  0.00     0.163 HD
HETATM   20  C           1     -20.294  -6.687  -6.017  0.00  0.00     0.249 C 
HETATM   21  O           1     -19.397  -7.083  -6.723  0.00  0.00    -0.271 OA
BRANCH  20  22
HETATM   22  C           1     -21.064  -7.659  -5.157  0.00  0.00     0.275 C 
BRANCH  22  23
HETATM   23  C           1     -20.509  -7.633  -3.739  0.00  0.00     0.052 C 
BRANCH  23  24
HETATM   24  C           1     -21.280  -6.614  -2.911  0.00  0.00     0.105 C 
BRANCH  24  25
HETATM   25  C           1     -21.737  -7.254  -1.623  0.00  0.00     0.215 C 
HETATM   26  N           1     -21.098  -8.367  -1.147  0.00  0.00    -0.370 N 
HETATM   27  H           1     -21.405  -8.796  -0.283  0.00  0.00     0.159 HD
HETATM   28  H           1     -20.318  -8.760  -1.658  0.00  0.00     0.159 HD
HETATM   29  O           1     -22.668  -6.785  -1.012  0.00  0.00    -0.274 OA
ENDBRANCH  24  25
ENDBRANCH  23  24
ENDBRANCH  22  23
BRANCH  22  30
HETATM   30  N           1     -20.927  -9.041  -5.722  0.00  0.00    -0.066 N 
HETATM   31  H           1     -21.619  -9.676  -5.263  0.00  0.00     0.275 HD
HETATM   32  H           1     -21.107  -9.016  -6.752  0.00  0.00     0.275 HD
HETATM   33  H           1     -19.960  -9.395  -5.545  0.00  0.00     0.275 HD
ENDBRANCH  22  30
ENDBRANCH  20  22
ENDBRANCH   1  18
TORSDOF 12
ENDMDL
