MODEL 1
REMARK VINA RESULT:      -5.1      0.000      0.000
REMARK  6 active torsions:
REMARK  status: ('A' for Active; 'I' for Inactive)
REMARK    1  A    between atoms: C_7  and  C_8 
REMARK       I    between atoms: C_8  and  N_9 
REMARK    2  A    between atoms: N_9  and  C_13 
REMARK    3  A    between atoms: C_12  and  C_13 
REMARK    4  A    between atoms: C_13  and  C_15 
REMARK    5  A    between atoms: C_15  and  C_16 
REMARK    6  A    between atoms: C_16  and  S_17 
ROOT
HETATM    1  O           1     -33.238  -2.608 -10.836  0.00  0.00    -0.271 OA
HETATM    2  C           1     -33.821  -2.836 -11.870  0.00  0.00     0.249 C 
HETATM    3  N           1     -34.910  -2.084 -12.222  0.00  0.00    -0.345 N 
HETATM    4  H           1     -35.398  -2.274 -13.088  0.00  0.00     0.163 HD
ENDROOT
BRANCH   2   5
HETATM    5  C           1     -33.349  -3.949 -12.772  0.00  0.00     0.274 C 
HETATM    6  N           1     -32.305  -4.758 -12.062  0.00  0.00    -0.067 N 
HETATM    7  H           1     -31.978  -5.530 -12.686  0.00  0.00     0.275 HD
HETATM    8  H           1     -31.496  -4.144 -11.816  0.00  0.00     0.275 HD
HETATM    9  H           1     -32.713  -5.164 -11.190  0.00  0.00     0.275 HD
HETATM   10 Se           1     -33.764  -6.491 -10.939  0.00  0.00     0.000 Se
HETATM   11  C           1     -34.933  -7.010  -9.469  0.00  0.00     0.000 C 
HETATM   12  C           1     -35.121  -5.439 -11.862  0.00  0.00     0.003 C 
HETATM   13  C           1     -34.527  -4.845 -13.132  0.00  0.00     0.042 C 
ENDBRANCH   2   5
BRANCH   3  14
HETATM   14  C           1     -35.362  -1.013 -11.355  0.00  0.00     0.186 C 
BRANCH  14  15
HETATM   15  C           1     -36.500  -1.509 -10.497  0.00  0.00     0.196 C 
HETATM   16  O           1     -36.824  -2.717 -10.526  0.00  0.00    -0.646 OA
HETATM   17  O           1     -37.118  -0.714  -9.758  0.00  0.00    -0.646 OA
ENDBRANCH  14  15
BRANCH  14  18
HETATM   18  C           1     -35.839   0.159 -12.203  0.00  0.00     0.046 C 
BRANCH  18  19
HETATM   19  C           1     -36.909  -0.321 -13.176  0.00  0.00     0.076 C 
BRANCH  19  20
HETATM   20  S           1     -36.457   0.170 -14.864  0.00  0.00    -0.173 SA
HETATM   21  C           1     -34.900   0.992 -14.422  0.00  0.00     0.089 C 
ENDBRANCH  19  20
ENDBRANCH  18  19
ENDBRANCH  14  18
ENDBRANCH   3  14
TORSDOF 6
ENDMDL
MODEL 2
REMARK VINA RESULT:      -5.0     14.173     16.612
REMARK  6 active torsions:
REMARK  status: ('A' for Active; 'I' for Inactive)
REMARK    1  A    between atoms: C_7  and  C_8 
REMARK       I    between atoms: C_8  and  N_9 
REMARK    2  A    between atoms: N_9  and  C_13 
REMARK    3  A    between atoms: C_12  and  C_13 
REMARK    4  A    between atoms: C_13  and  C_15 
REMARK    5  A    between atoms: C_15  and  C_16 
REMARK    6  A    between atoms: C_16  and  S_17 
ROOT
HETATM    1  O           1     -21.102  -6.693  -7.150  0.00  0.00    -0.271 OA
HETATM    2  C           1     -20.688  -5.781  -6.474  0.00  0.00     0.249 C 
HETATM    3  N           1     -20.694  -5.884  -5.109  0.00  0.00    -0.345 N 
HETATM    4  H           1     -20.348  -5.120  -4.542  0.00  0.00     0.163 HD
ENDROOT
BRANCH   2   5
HETATM    5  C           1     -20.167  -4.528  -7.134  0.00  0.00     0.274 C 
HETATM    6  N           1     -19.786  -4.834  -8.553  0.00  0.00    -0.067 N 
HETATM    7  H           1     -19.425  -3.966  -9.011  0.00  0.00     0.275 HD
HETATM    8  H           1     -19.044  -5.568  -8.564  0.00  0.00     0.275 HD
HETATM    9  H           1     -20.626  -5.177  -9.071  0.00  0.00     0.275 HD
HETATM   10 Se           1     -21.978  -4.353  -9.719  0.00  0.00     0.000 Se
HETATM   11  C           1     -23.764  -4.924 -10.247  0.00  0.00     0.000 C 
HETATM   12  C           1     -22.471  -3.957  -7.875  0.00  0.00     0.003 C 
HETATM   13  C           1     -21.249  -3.457  -7.118  0.00  0.00     0.042 C 
ENDBRANCH   2   5
BRANCH   3  14
HETATM   14  C           1     -21.195  -7.088  -4.474  0.00  0.00     0.186 C 
BRANCH  14  15
HETATM   15  C           1     -21.528  -6.794  -3.032  0.00  0.00     0.196 C 
HETATM   16  O           1     -22.431  -5.976  -2.754  0.00  0.00    -0.646 OA
HETATM   17  O           1     -20.900  -7.368  -2.117  0.00  0.00    -0.646 OA
ENDBRANCH  14  15
BRANCH  14  18
HETATM   18  C           1     -20.131  -8.175  -4.539  0.00  0.00     0.046 C 
BRANCH  18  19
HETATM   19  C           1     -20.764  -9.479  -5.005  0.00  0.00     0.076 C 
BRANCH  19  20
HETATM   20  S           1     -19.476 -10.741  -5.207  0.00  0.00    -0.173 SA
HETATM   21  C           1     -18.133  -9.591  -5.616  0.00  0.00     0.089 C 
ENDBRANCH  19  20
ENDBRANCH  18  19
ENDBRANCH  14  18
ENDBRANCH   3  14
TORSDOF 6
ENDMDL
MODEL 3
REMARK VINA RESULT:      -4.9     12.383     13.984
REMARK  6 active torsions:
REMARK  status: ('A' for Active; 'I' for Inactive)
REMARK    1  A    between atoms: C_7  and  C_8 
REMARK       I    between atoms: C_8  and  N_9 
REMARK    2  A    between atoms: N_9  and  C_13 
REMARK    3  A    between atoms: C_12  and  C_13 
REMARK    4  A    between atoms: C_13  and  C_15 
REMARK    5  A    between atoms: C_15  and  C_16 
REMARK    6  A    between atoms: C_16  and  S_17 
ROOT
HETATM    1  O           1     -21.354  -3.161  -7.285  0.00  0.00    -0.271 OA
HETATM    2  C           1     -20.696  -4.011  -7.837  0.00  0.00     0.249 C 
HETATM    3  N           1     -20.959  -4.343  -9.139  0.00  0.00    -0.345 N 
HETATM    4  H           1     -20.408  -5.055  -9.601  0.00  0.00     0.163 HD
ENDROOT
BRANCH   2   5
HETATM    5  C           1     -19.584  -4.708  -7.090  0.00  0.00     0.274 C 
HETATM    6  N           1     -19.640  -4.325  -5.641  0.00  0.00    -0.067 N 
HETATM    7  H           1     -18.871  -4.807  -5.123  0.00  0.00     0.275 HD
HETATM    8  H           1     -19.526  -3.290  -5.549  0.00  0.00     0.275 HD
HETATM    9  H           1     -20.562  -4.612  -5.242  0.00  0.00     0.275 HD
HETATM   10 Se           1     -21.165  -6.137  -4.756  0.00  0.00     0.000 Se
HETATM   11  C           1     -22.962  -6.836  -4.473  0.00  0.00     0.000 C 
HETATM   12  C           1     -21.092  -6.634  -6.640  0.00  0.00     0.003 C 
HETATM   13  C           1     -19.749  -6.216  -7.224  0.00  0.00     0.042 C 
ENDBRANCH   2   5
BRANCH   3  14
HETATM   14  C           1     -22.027  -3.673  -9.856  0.00  0.00     0.186 C 
BRANCH  14  15
HETATM   15  C           1     -23.331  -4.388  -9.596  0.00  0.00     0.196 C 
HETATM   16  O           1     -24.094  -3.985  -8.691  0.00  0.00    -0.646 OA
HETATM   17  O           1     -23.647  -5.381 -10.285  0.00  0.00    -0.646 OA
ENDBRANCH  14  15
BRANCH  14  18
HETATM   18  C           1     -21.725  -3.693 -11.349  0.00  0.00     0.046 C 
BRANCH  18  19
HETATM   19  C           1     -22.458  -2.546 -12.030  0.00  0.00     0.076 C 
BRANCH  19  20
HETATM   20  S           1     -23.716  -3.214 -13.155  0.00  0.00    -0.173 SA
HETATM   21  C           1     -23.005  -2.530 -14.678  0.00  0.00     0.089 C 
ENDBRANCH  19  20
ENDBRANCH  18  19
ENDBRANCH  14  18
ENDBRANCH   3  14
TORSDOF 6
ENDMDL
MODEL 4
REMARK VINA RESULT:      -4.9      1.988      2.642
REMARK  6 active torsions:
REMARK  status: ('A' for Active; 'I' for Inactive)
REMARK    1  A    between atoms: C_7  and  C_8 
REMARK       I    between atoms: C_8  and  N_9 
REMARK    2  A    between atoms: N_9  and  C_13 
REMARK    3  A    between atoms: C_12  and  C_13 
REMARK    4  A    between atoms: C_13  and  C_15 
REMARK    5  A    between atoms: C_15  and  C_16 
REMARK    6  A    between atoms: C_16  and  S_17 
ROOT
HETATM    1  O           1     -33.673  -1.453 -10.560  0.00  0.00    -0.271 OA
HETATM    2  C           1     -34.552  -2.235 -10.831  0.00  0.00     0.249 C 
HETATM    3  N           1     -35.723  -1.786 -11.379  0.00  0.00    -0.345 N 
HETATM    4  H           1     -36.460  -2.441 -11.607  0.00  0.00     0.163 HD
ENDROOT
BRANCH   2   5
HETATM    5  C           1     -34.360  -3.708 -10.565  0.00  0.00     0.274 C 
HETATM    6  N           1     -35.508  -4.475 -11.152  0.00  0.00    -0.067 N 
HETATM    7  H           1     -35.375  -5.495 -10.968  0.00  0.00     0.275 HD
HETATM    8  H           1     -36.401  -4.156 -10.714  0.00  0.00     0.275 HD
HETATM    9  H           1     -35.546  -4.309 -12.183  0.00  0.00     0.275 HD
HETATM   10 Se           1     -34.605  -4.932 -13.469  0.00  0.00     0.000 Se
HETATM   11  C           1     -34.280  -4.338 -15.296  0.00  0.00     0.000 C 
HETATM   12  C           1     -33.114  -3.935 -12.706  0.00  0.00     0.003 C 
HETATM   13  C           1     -33.058  -4.175 -11.203  0.00  0.00     0.042 C 
ENDBRANCH   2   5
BRANCH   3  14
HETATM   14  C           1     -35.908  -0.370 -11.636  0.00  0.00     0.186 C 
BRANCH  14  15
HETATM   15  C           1     -36.874   0.201 -10.627  0.00  0.00     0.196 C 
HETATM   16  O           1     -38.070   0.385 -10.941  0.00  0.00    -0.646 OA
HETATM   17  O           1     -36.478   0.490  -9.477  0.00  0.00    -0.646 OA
ENDBRANCH  14  15
BRANCH  14  18
HETATM   18  C           1     -36.466  -0.178 -13.040  0.00  0.00     0.046 C 
BRANCH  18  19
HETATM   19  C           1     -35.319  -0.133 -14.041  0.00  0.00     0.076 C 
BRANCH  19  20
HETATM   20  S           1     -35.973  -0.342 -15.721  0.00  0.00    -0.173 SA
HETATM   21  C           1     -37.670   0.179 -15.340  0.00  0.00     0.089 C 
ENDBRANCH  19  20
ENDBRANCH  18  19
ENDBRANCH  14  18
ENDBRANCH   3  14
TORSDOF 6
ENDMDL
MODEL 5
REMARK VINA RESULT:      -4.8      1.906      6.048
REMARK  6 active torsions:
REMARK  status: ('A' for Active; 'I' for Inactive)
REMARK    1  A    between atoms: C_7  and  C_8 
REMARK       I    between atoms: C_8  and  N_9 
REMARK    2  A    between atoms: N_9  and  C_13 
REMARK    3  A    between atoms: C_12  and  C_13 
REMARK    4  A    between atoms: C_13  and  C_15 
REMARK    5  A    between atoms: C_15  and  C_16 
REMARK    6  A    between atoms: C_16  and  S_17 
ROOT
HETATM    1  O           1     -36.252  -2.662 -11.203  0.00  0.00    -0.271 OA
HETATM    2  C           1     -35.445  -1.830 -11.543  0.00  0.00     0.249 C 
HETATM    3  N           1     -34.203  -2.216 -11.971  0.00  0.00    -0.345 N 
HETATM    4  H           1     -33.527  -1.519 -12.257  0.00  0.00     0.163 HD
ENDROOT
BRANCH   2   5
HETATM    5  C           1     -35.805  -0.366 -11.496  0.00  0.00     0.274 C 
HETATM    6  N           1     -34.757   0.430 -12.215  0.00  0.00    -0.067 N 
HETATM    7  H           1     -35.006   1.444 -12.184  0.00  0.00     0.275 HD
HETATM    8  H           1     -33.831   0.284 -11.754  0.00  0.00     0.275 HD
HETATM    9  H           1     -34.704   0.115 -13.210  0.00  0.00     0.275 HD
HETATM   10 Se           1     -35.716   0.425 -14.555  0.00  0.00     0.000 Se
HETATM   11  C           1     -35.978  -0.471 -16.265  0.00  0.00     0.000 C 
HETATM   12  C           1     -37.078  -0.609 -13.619  0.00  0.00     0.003 C 
HETATM   13  C           1     -37.155  -0.152 -12.169  0.00  0.00     0.042 C 
ENDBRANCH   2   5
BRANCH   3  14
HETATM   14  C           1     -33.857  -3.624 -12.017  0.00  0.00     0.186 C 
BRANCH  14  15
HETATM   15  C           1     -34.443  -4.244 -13.262  0.00  0.00     0.196 C 
HETATM   16  O           1     -34.194  -3.751 -14.383  0.00  0.00    -0.646 OA
HETATM   17  O           1     -35.178  -5.251 -13.171  0.00  0.00    -0.646 OA
ENDBRANCH  14  15
BRANCH  14  18
HETATM   18  C           1     -34.418  -4.324 -10.787  0.00  0.00     0.046 C 
BRANCH  18  19
HETATM   19  C           1     -33.801  -5.711 -10.666  0.00  0.00     0.076 C 
BRANCH  19  20
HETATM   20  S           1     -34.972  -6.826  -9.843  0.00  0.00    -0.173 SA
HETATM   21  C           1     -34.012  -8.346 -10.096  0.00  0.00     0.089 C 
ENDBRANCH  19  20
ENDBRANCH  18  19
ENDBRANCH  14  18
ENDBRANCH   3  14
TORSDOF 6
ENDMDL
MODEL 6
REMARK VINA RESULT:      -4.7     14.219     16.840
REMARK  6 active torsions:
REMARK  status: ('A' for Active; 'I' for Inactive)
REMARK    1  A    between atoms: C_7  and  C_8 
REMARK       I    between atoms: C_8  and  N_9 
REMARK    2  A    between atoms: N_9  and  C_13 
REMARK    3  A    between atoms: C_12  and  C_13 
REMARK    4  A    between atoms: C_13  and  C_15 
REMARK    5  A    between atoms: C_15  and  C_16 
REMARK    6  A    between atoms: C_16  and  S_17 
ROOT
HETATM    1  O           1     -21.438  -7.430  -6.375  0.00  0.00    -0.271 OA
HETATM    2  C           1     -20.680  -6.693  -5.789  0.00  0.00     0.249 C 
HETATM    3  N           1     -20.650  -6.691  -4.420  0.00  0.00    -0.345 N 
HETATM    4  H           1     -20.015  -6.074  -3.929  0.00  0.00     0.163 HD
ENDROOT
BRANCH   2   5
HETATM    5  C           1     -19.769  -5.774  -6.565  0.00  0.00     0.274 C 
HETATM    6  N           1     -19.885  -6.078  -8.030  0.00  0.00    -0.067 N 
HETATM    7  H           1     -19.255  -5.442  -8.568  0.00  0.00     0.275 HD
HETATM    8  H           1     -19.608  -7.070  -8.203  0.00  0.00     0.275 HD
HETATM    9  H           1     -20.873  -5.932  -8.338  0.00  0.00     0.275 HD
HETATM   10 Se           1     -21.761  -4.508  -8.667  0.00  0.00     0.000 Se
HETATM   11  C           1     -23.667  -4.114  -8.765  0.00  0.00     0.000 C 
HETATM   12  C           1     -21.610  -4.114  -6.764  0.00  0.00     0.003 C 
HETATM   13  C           1     -20.172  -4.327  -6.314  0.00  0.00     0.042 C 
ENDBRANCH   2   5
BRANCH   3  14
HETATM   14  C           1     -21.525  -7.574  -3.674  0.00  0.00     0.186 C 
BRANCH  14  15
HETATM   15  C           1     -21.825  -6.963  -2.327  0.00  0.00     0.196 C 
HETATM   16  O           1     -21.446  -7.535  -1.282  0.00  0.00    -0.646 OA
HETATM   17  O           1     -22.454  -5.885  -2.257  0.00  0.00    -0.646 OA
ENDBRANCH  14  15
BRANCH  14  18
HETATM   18  C           1     -20.840  -8.921  -3.479  0.00  0.00     0.046 C 
BRANCH  18  19
HETATM   19  C           1     -21.766 -10.034  -3.951  0.00  0.00     0.076 C 
BRANCH  19  20
HETATM   20  S           1     -22.439 -10.912  -2.512  0.00  0.00    -0.173 SA
HETATM   21  C           1     -22.384 -12.571  -3.247  0.00  0.00     0.089 C 
ENDBRANCH  19  20
ENDBRANCH  18  19
ENDBRANCH  14  18
ENDBRANCH   3  14
TORSDOF 6
ENDMDL
MODEL 7
REMARK VINA RESULT:      -4.6     16.980     18.399
REMARK  6 active torsions:
REMARK  status: ('A' for Active; 'I' for Inactive)
REMARK    1  A    between atoms: C_7  and  C_8 
REMARK       I    between atoms: C_8  and  N_9 
REMARK    2  A    between atoms: N_9  and  C_13 
REMARK    3  A    between atoms: C_12  and  C_13 
REMARK    4  A    between atoms: C_13  and  C_15 
REMARK    5  A    between atoms: C_15  and  C_16 
REMARK    6  A    between atoms: C_16  and  S_17 
ROOT
HETATM    1  O           1     -22.185 -10.267  -3.632  0.00  0.00    -0.271 OA
HETATM    2  C           1     -21.254  -9.667  -4.115  0.00  0.00     0.249 C 
HETATM    3  N           1     -20.870  -8.462  -3.592  0.00  0.00    -0.345 N 
HETATM    4  H           1     -20.090  -7.960  -3.996  0.00  0.00     0.163 HD
ENDROOT
BRANCH   2   5
HETATM    5  C           1     -20.516 -10.246  -5.297  0.00  0.00     0.274 C 
HETATM    6  N           1     -19.522  -9.243  -5.805  0.00  0.00    -0.067 N 
HETATM    7  H           1     -19.010  -9.643  -6.623  0.00  0.00     0.275 HD
HETATM    8  H           1     -20.023  -8.374  -6.098  0.00  0.00     0.275 HD
HETATM    9  H           1     -18.841  -9.014  -5.046  0.00  0.00     0.275 HD
HETATM   10 Se           1     -17.500  -9.876  -4.426  0.00  0.00     0.000 Se
HETATM   11  C           1     -16.504  -9.776  -2.754  0.00  0.00     0.000 C 
HETATM   12  C           1     -18.792 -11.179  -3.767  0.00  0.00     0.003 C 
HETATM   13  C           1     -19.786 -11.513  -4.871  0.00  0.00     0.042 C 
ENDBRANCH   2   5
BRANCH   3  14
HETATM   14  C           1     -21.579  -7.906  -2.455  0.00  0.00     0.186 C 
BRANCH  14  15
HETATM   15  C           1     -21.917  -6.461  -2.732  0.00  0.00     0.196 C 
HETATM   16  O           1     -21.709  -5.978  -3.866  0.00  0.00    -0.646 OA
HETATM   17  O           1     -22.403  -5.749  -1.828  0.00  0.00    -0.646 OA
ENDBRANCH  14  15
BRANCH  14  18
HETATM   18  C           1     -20.698  -7.993  -1.216  0.00  0.00     0.046 C 
BRANCH  18  19
HETATM   19  C           1     -21.193  -9.120  -0.319  0.00  0.00     0.076 C 
BRANCH  19  20
HETATM   20  S           1     -22.921  -8.811   0.143  0.00  0.00    -0.173 SA
HETATM   21  C           1     -23.548 -10.449  -0.327  0.00  0.00     0.089 C 
ENDBRANCH  19  20
ENDBRANCH  18  19
ENDBRANCH  14  18
ENDBRANCH   3  14
TORSDOF 6
ENDMDL
MODEL 8
REMARK VINA RESULT:      -4.6     16.318     18.101
REMARK  6 active torsions:
REMARK  status: ('A' for Active; 'I' for Inactive)
REMARK    1  A    between atoms: C_7  and  C_8 
REMARK       I    between atoms: C_8  and  N_9 
REMARK    2  A    between atoms: N_9  and  C_13 
REMARK    3  A    between atoms: C_12  and  C_13 
REMARK    4  A    between atoms: C_13  and  C_15 
REMARK    5  A    between atoms: C_15  and  C_16 
REMARK    6  A    between atoms: C_16  and  S_17 
ROOT
HETATM    1  O           1     -19.816  -8.138  -1.454  0.00  0.00    -0.271 OA
HETATM    2  C           1     -20.993  -7.914  -1.298  0.00  0.00     0.249 C 
HETATM    3  N           1     -21.786  -7.636  -2.379  0.00  0.00    -0.345 N 
HETATM    4  H           1     -22.772  -7.449  -2.249  0.00  0.00     0.163 HD
ENDROOT
BRANCH   2   5
HETATM    5  C           1     -21.589  -7.940   0.088  0.00  0.00     0.274 C 
HETATM    6  N           1     -23.085  -7.887  -0.011  0.00  0.00    -0.067 N 
HETATM    7  H           1     -23.498  -7.905   0.948  0.00  0.00     0.275 HD
HETATM    8  H           1     -23.370  -7.007  -0.497  0.00  0.00     0.275 HD
HETATM    9  H           1     -23.427  -8.712  -0.554  0.00  0.00     0.275 HD
HETATM   10 Se           1     -23.616 -10.356  -0.121  0.00  0.00     0.000 Se
HETATM   11  C           1     -23.769 -12.001  -1.155  0.00  0.00     0.000 C 
HETATM   12  C           1     -21.672 -10.424   0.007  0.00  0.00     0.003 C 
HETATM   13  C           1     -21.172  -9.222   0.797  0.00  0.00     0.042 C 
ENDBRANCH   2   5
BRANCH   3  14
HETATM   14  C           1     -21.212  -7.612  -3.712  0.00  0.00     0.186 C 
BRANCH  14  15
HETATM   15  C           1     -21.656  -6.358  -4.425  0.00  0.00     0.196 C 
HETATM   16  O           1     -20.838  -5.436  -4.635  0.00  0.00    -0.646 OA
HETATM   17  O           1     -22.840  -6.242  -4.806  0.00  0.00    -0.646 OA
ENDBRANCH  14  15
BRANCH  14  18
HETATM   18  C           1     -21.685  -8.833  -4.489  0.00  0.00     0.046 C 
BRANCH  18  19
HETATM   19  C           1     -20.564  -9.862  -4.547  0.00  0.00     0.076 C 
BRANCH  19  20
HETATM   20  S           1     -19.014  -9.044  -5.019  0.00  0.00    -0.173 SA
HETATM   21  C           1     -17.953  -9.937  -3.847  0.00  0.00     0.089 C 
ENDBRANCH  19  20
ENDBRANCH  18  19
ENDBRANCH  14  18
ENDBRANCH   3  14
TORSDOF 6
ENDMDL
MODEL 9
REMARK VINA RESULT:      -4.5     15.220     17.196
REMARK  6 active torsions:
REMARK  status: ('A' for Active; 'I' for Inactive)
REMARK    1  A    between atoms: C_7  and  C_8 
REMARK       I    between atoms: C_8  and  N_9 
REMARK    2  A    between atoms: N_9  and  C_13 
REMARK    3  A    between atoms: C_12  and  C_13 
REMARK    4  A    between atoms: C_13  and  C_15 
REMARK    5  A    between atoms: C_15  and  C_16 
REMARK    6  A    between atoms: C_16  and  S_17 
ROOT
HETATM    1  O           1     -19.686  -8.786  -5.546  0.00  0.00    -0.271 OA
HETATM    2  C           1     -20.732  -9.237  -5.144  0.00  0.00     0.249 C 
HETATM    3  N           1     -21.540  -8.477  -4.341  0.00  0.00    -0.345 N 
HETATM    4  H           1     -22.417  -8.854  -4.004  0.00  0.00     0.163 HD
ENDROOT
BRANCH   2   5
HETATM    5  C           1     -21.147 -10.636  -5.525  0.00  0.00     0.274 C 
HETATM    6  N           1     -20.115 -11.233  -6.435  0.00  0.00    -0.067 N 
HETATM    7  H           1     -20.401 -12.202  -6.699  0.00  0.00     0.275 HD
HETATM    8  H           1     -20.030 -10.648  -7.296  0.00  0.00     0.275 HD
HETATM    9  H           1     -19.194 -11.264  -5.942  0.00  0.00     0.275 HD
HETATM   10 Se           1     -18.587 -12.312  -4.734  0.00  0.00     0.000 Se
HETATM   11  C           1     -17.132 -12.167  -3.446  0.00  0.00     0.000 C 
HETATM   12  C           1     -19.929 -11.537  -3.552  0.00  0.00     0.003 C 
HETATM   13  C           1     -21.271 -11.490  -4.269  0.00  0.00     0.042 C 
ENDBRANCH   2   5
BRANCH   3  14
HETATM   14  C           1     -21.141  -7.132  -3.975  0.00  0.00     0.186 C 
BRANCH  14  15
HETATM   15  C           1     -21.577  -6.847  -2.558  0.00  0.00     0.196 C 
HETATM   16  O           1     -21.091  -7.503  -1.611  0.00  0.00    -0.646 OA
HETATM   17  O           1     -22.424  -5.956  -2.333  0.00  0.00    -0.646 OA
ENDBRANCH  14  15
BRANCH  14  18
HETATM   18  C           1     -21.798  -6.134  -4.920  0.00  0.00     0.046 C 
BRANCH  18  19
HETATM   19  C           1     -20.722  -5.327  -5.634  0.00  0.00     0.076 C 
BRANCH  19  20
HETATM   20  S           1     -20.942  -5.479  -7.429  0.00  0.00    -0.173 SA
HETATM   21  C           1     -22.370  -4.364  -7.549  0.00  0.00     0.089 C 
ENDBRANCH  19  20
ENDBRANCH  18  19
ENDBRANCH  14  18
ENDBRANCH   3  14
TORSDOF 6
ENDMDL
