MODEL 1
REMARK VINA RESULT:      -6.4      0.000      0.000
REMARK  9 active torsions:
REMARK  status: ('A' for Active; 'I' for Inactive)
REMARK    1  A    between atoms: C_4  and  C_25 
REMARK    2  A    between atoms: C_4  and  C_5 
REMARK    3  A    between atoms: C_5  and  Se_6 
REMARK    4  A    between atoms: N_8  and  C_25 
REMARK    5  A    between atoms: C_12  and  C_13 
REMARK    6  A    between atoms: C_12  and  C_17 
REMARK    7  A    between atoms: C_13  and  C_15 
REMARK    8  A    between atoms: C_13  and  N_23 
REMARK       I    between atoms: N_23  and  C_24 
REMARK    9  A    between atoms: C_24  and  C_25 
ROOT
HETATM    1  O           1     -33.777  -1.894  -9.772  0.00  0.00    -0.271 OA
HETATM    2  H           1     -32.604  -2.490 -12.277  0.00  0.00     0.163 HD
HETATM    3  N           1     -33.370  -2.873 -11.738  0.00  0.00    -0.344 N 
HETATM    4  C           1     -34.108  -2.057 -10.923  0.00  0.00     0.249 C 
ENDROOT
BRANCH   3   5
HETATM    5  C           1     -33.687  -4.285 -11.829  0.00  0.00     0.191 C 
BRANCH   5   6
HETATM    6  C           1     -34.546  -4.689 -10.638  0.00  0.00     0.094 C 
BRANCH   6   7
HETATM    7  C           1     -34.365  -6.150 -10.363  0.00  0.00     0.028 A 
HETATM    8  C           1     -35.206  -6.908  -9.586  0.00  0.00     0.114 A 
HETATM    9  N           1     -34.670  -8.166  -9.606  0.00  0.00    -0.360 N 
HETATM   10  H           1     -35.052  -9.012  -9.116  0.00  0.00     0.166 HD
HETATM   11  C           1     -33.546  -8.120 -10.381  0.00  0.00     0.180 A 
HETATM   12  N           1     -33.336  -6.912 -10.852  0.00  0.00    -0.354 N 
ATOM     13  HN          1     -32.571  -6.607 -11.454  1.00  0.00     0.166 HD
ENDBRANCH   6   7
ENDBRANCH   5   6
BRANCH   5  14
HETATM   14  C           1     -34.442  -4.548 -13.108  0.00  0.00     0.197 C 
HETATM   15  O           1     -34.322  -3.768 -14.078  0.00  0.00    -0.646 OA
HETATM   16  O           1     -35.190  -5.546 -13.197  0.00  0.00    -0.646 OA
ENDBRANCH   5  14
ENDBRANCH   3   5
BRANCH   4  17
HETATM   17  C           1     -35.333  -1.359 -11.462  0.00  0.00     0.274 C 
BRANCH  17  18
HETATM   18  C           1     -34.923  -0.390 -12.563  0.00  0.00     0.042 C 
BRANCH  18  19
HETATM   19  C           1     -36.115  -0.119 -13.472  0.00  0.00     0.003 C 
BRANCH  19  20
HETATM   20 Se           1     -35.504   0.762 -15.100  0.00  0.00     0.000 Se
HETATM   21  C           1     -35.868  -0.764 -16.256  0.00  0.00     0.000 C 
ENDBRANCH  19  20
ENDBRANCH  18  19
ENDBRANCH  17  18
BRANCH  17  22
HETATM   22  N           1     -36.003  -0.602 -10.354  0.00  0.00    -0.067 N 
HETATM   23  H           1     -36.780  -0.025 -10.747  0.00  0.00     0.275 HD
HETATM   24  H           1     -35.307   0.022  -9.889  0.00  0.00     0.275 HD
HETATM   25  H           1     -36.389  -1.276  -9.655  0.00  0.00     0.275 HD
ENDBRANCH  17  22
ENDBRANCH   4  17
TORSDOF 9
ENDMDL
MODEL 2
REMARK VINA RESULT:      -6.4      3.310      6.815
REMARK  9 active torsions:
REMARK  status: ('A' for Active; 'I' for Inactive)
REMARK    1  A    between atoms: C_4  and  C_25 
REMARK    2  A    between atoms: C_4  and  C_5 
REMARK    3  A    between atoms: C_5  and  Se_6 
REMARK    4  A    between atoms: N_8  and  C_25 
REMARK    5  A    between atoms: C_12  and  C_13 
REMARK    6  A    between atoms: C_12  and  C_17 
REMARK    7  A    between atoms: C_13  and  C_15 
REMARK    8  A    between atoms: C_13  and  N_23 
REMARK       I    between atoms: N_23  and  C_24 
REMARK    9  A    between atoms: C_24  and  C_25 
ROOT
HETATM    1  O           1     -33.188  -1.801 -10.508  0.00  0.00    -0.271 OA
HETATM    2  H           1     -35.827  -1.621  -9.504  0.00  0.00     0.163 HD
HETATM    3  N           1     -35.388  -1.432 -10.396  0.00  0.00    -0.344 N 
HETATM    4  C           1     -34.303  -2.167 -10.794  0.00  0.00     0.249 C 
ENDROOT
BRANCH   3   5
HETATM    5  C           1     -35.906  -0.383 -11.252  0.00  0.00     0.191 C 
BRANCH   5   6
HETATM    6  C           1     -36.629  -1.008 -12.438  0.00  0.00     0.094 C 
BRANCH   6   7
HETATM    7  C           1     -36.309  -0.237 -13.681  0.00  0.00     0.028 A 
HETATM    8  C           1     -37.234   0.146 -14.622  0.00  0.00     0.114 A 
HETATM    9  N           1     -36.515   0.816 -15.574  0.00  0.00    -0.360 N 
HETATM   10  H           1     -36.898   1.253 -16.448  0.00  0.00     0.166 HD
HETATM   11  C           1     -35.208   0.811 -15.178  0.00  0.00     0.180 A 
HETATM   12  N           1     -35.053   0.181 -14.037  0.00  0.00    -0.354 N 
ATOM     13  HN          1     -34.184   0.034 -13.523  1.00  0.00     0.166 HD
ENDBRANCH   6   7
ENDBRANCH   5   6
BRANCH   5  14
HETATM   14  C           1     -36.871   0.473 -10.468  0.00  0.00     0.197 C 
HETATM   15  O           1     -38.073   0.532 -10.808  0.00  0.00    -0.646 OA
HETATM   16  O           1     -36.467   1.125  -9.481  0.00  0.00    -0.646 OA
ENDBRANCH   5  14
ENDBRANCH   3   5
BRANCH   4  17
HETATM   17  C           1     -34.501  -3.435 -11.588  0.00  0.00     0.274 C 
BRANCH  17  18
HETATM   18  C           1     -33.719  -4.569 -10.938  0.00  0.00     0.042 C 
BRANCH  18  19
HETATM   19  C           1     -34.325  -5.905 -11.347  0.00  0.00     0.003 C 
BRANCH  19  20
HETATM   20 Se           1     -34.942  -6.853  -9.759  0.00  0.00     0.000 Se
HETATM   21  C           1     -33.951  -8.486 -10.150  0.00  0.00     0.000 C 
ENDBRANCH  19  20
ENDBRANCH  18  19
ENDBRANCH  17  18
BRANCH  17  22
HETATM   22  N           1     -34.008  -3.228 -12.989  0.00  0.00    -0.067 N 
HETATM   23  H           1     -34.606  -2.518 -13.468  0.00  0.00     0.275 HD
HETATM   24  H           1     -34.054  -4.132 -13.511  0.00  0.00     0.275 HD
HETATM   25  H           1     -33.019  -2.890 -12.964  0.00  0.00     0.275 HD
ENDBRANCH  17  22
ENDBRANCH   4  17
TORSDOF 9
ENDMDL
MODEL 3
REMARK VINA RESULT:      -6.2     12.321     14.105
REMARK  9 active torsions:
REMARK  status: ('A' for Active; 'I' for Inactive)
REMARK    1  A    between atoms: C_4  and  C_25 
REMARK    2  A    between atoms: C_4  and  C_5 
REMARK    3  A    between atoms: C_5  and  Se_6 
REMARK    4  A    between atoms: N_8  and  C_25 
REMARK    5  A    between atoms: C_12  and  C_13 
REMARK    6  A    between atoms: C_12  and  C_17 
REMARK    7  A    between atoms: C_13  and  C_15 
REMARK    8  A    between atoms: C_13  and  N_23 
REMARK       I    between atoms: N_23  and  C_24 
REMARK    9  A    between atoms: C_24  and  C_25 
ROOT
HETATM    1  O           1     -21.289  -2.998  -6.820  0.00  0.00    -0.271 OA
HETATM    2  H           1     -23.753  -4.282  -7.352  0.00  0.00     0.163 HD
HETATM    3  N           1     -22.996  -3.925  -7.921  0.00  0.00    -0.344 N 
HETATM    4  C           1     -21.714  -3.942  -7.443  0.00  0.00     0.249 C 
ENDROOT
BRANCH   3   5
HETATM    5  C           1     -23.270  -3.396  -9.243  0.00  0.00     0.191 C 
BRANCH   5   6
HETATM    6  C           1     -22.166  -3.826 -10.200  0.00  0.00     0.094 C 
BRANCH   6   7
HETATM    7  C           1     -22.509  -3.387 -11.589  0.00  0.00     0.028 A 
HETATM    8  C           1     -21.816  -3.753 -12.717  0.00  0.00     0.114 A 
HETATM    9  N           1     -22.464  -3.132 -13.749  0.00  0.00    -0.360 N 
HETATM   10  H           1     -22.208  -3.186 -14.766  0.00  0.00     0.166 HD
HETATM   11  C           1     -23.505  -2.428 -13.215  0.00  0.00     0.180 A 
HETATM   12  N           1     -23.557  -2.563 -11.910  0.00  0.00    -0.354 N 
ATOM     13  HN          1     -24.233  -2.145 -11.270  1.00  0.00     0.166 HD
ENDBRANCH   6   7
ENDBRANCH   5   6
BRANCH   5  14
HETATM   14  C           1     -24.596  -3.926  -9.731  0.00  0.00     0.197 C 
HETATM   15  O           1     -25.571  -3.153  -9.855  0.00  0.00    -0.646 OA
HETATM   16  O           1     -24.719  -5.138 -10.009  0.00  0.00    -0.646 OA
ENDBRANCH   5  14
ENDBRANCH   3   5
BRANCH   4  17
HETATM   17  C           1     -20.832  -5.141  -7.691  0.00  0.00     0.274 C 
BRANCH  17  18
HETATM   18  C           1     -21.261  -6.285  -6.781  0.00  0.00     0.042 C 
BRANCH  18  19
HETATM   19  C           1     -20.780  -6.014  -5.361  0.00  0.00     0.003 C 
BRANCH  19  20
HETATM   20 Se           1     -21.475  -7.388  -4.166  0.00  0.00     0.000 Se
HETATM   21  C           1     -21.658  -6.194  -2.636  0.00  0.00     0.000 C 
ENDBRANCH  19  20
ENDBRANCH  18  19
ENDBRANCH  17  18
BRANCH  17  22
HETATM   22  N           1     -19.405  -4.780  -7.399  0.00  0.00    -0.067 N 
HETATM   23  H           1     -19.334  -4.397  -6.429  0.00  0.00     0.275 HD
HETATM   24  H           1     -19.082  -4.060  -8.083  0.00  0.00     0.275 HD
HETATM   25  H           1     -18.806  -5.632  -7.481  0.00  0.00     0.275 HD
ENDBRANCH  17  22
ENDBRANCH   4  17
TORSDOF 9
ENDMDL
MODEL 4
REMARK VINA RESULT:      -5.9     13.527     15.423
REMARK  9 active torsions:
REMARK  status: ('A' for Active; 'I' for Inactive)
REMARK    1  A    between atoms: C_4  and  C_25 
REMARK    2  A    between atoms: C_4  and  C_5 
REMARK    3  A    between atoms: C_5  and  Se_6 
REMARK    4  A    between atoms: N_8  and  C_25 
REMARK    5  A    between atoms: C_12  and  C_13 
REMARK    6  A    between atoms: C_12  and  C_17 
REMARK    7  A    between atoms: C_13  and  C_15 
REMARK    8  A    between atoms: C_13  and  N_23 
REMARK       I    between atoms: N_23  and  C_24 
REMARK    9  A    between atoms: C_24  and  C_25 
ROOT
HETATM    1  O           1     -20.471  -4.925  -5.128  0.00  0.00    -0.271 OA
HETATM    2  H           1     -22.985  -4.138  -6.160  0.00  0.00     0.163 HD
HETATM    3  N           1     -22.233  -4.732  -6.485  0.00  0.00    -0.344 N 
HETATM    4  C           1     -21.471  -5.426  -5.585  0.00  0.00     0.249 C 
ENDROOT
BRANCH   3   5
HETATM    5  C           1     -21.964  -4.848  -7.905  0.00  0.00     0.191 C 
BRANCH   5   6
HETATM    6  C           1     -22.568  -3.655  -8.635  0.00  0.00     0.094 C 
BRANCH   6   7
HETATM    7  C           1     -22.557  -3.913 -10.110  0.00  0.00     0.028 A 
HETATM    8  C           1     -23.429  -4.750 -10.762  0.00  0.00     0.114 A 
HETATM    9  N           1     -23.063  -4.688 -12.079  0.00  0.00    -0.360 N 
HETATM   10  H           1     -23.513  -5.204 -12.874  0.00  0.00     0.166 HD
HETATM   11  C           1     -22.004  -3.830 -12.169  0.00  0.00     0.180 A 
HETATM   12  N           1     -21.676  -3.346 -10.993  0.00  0.00    -0.354 N 
ATOM     13  HN          1     -20.925  -2.688 -10.782  1.00  0.00     0.166 HD
ENDBRANCH   6   7
ENDBRANCH   5   6
BRANCH   5  14
HETATM   14  C           1     -20.473  -4.876  -8.133  0.00  0.00     0.197 C 
HETATM   15  O           1     -19.842  -3.805  -8.271  0.00  0.00    -0.646 OA
HETATM   16  O           1     -19.870  -5.969  -8.186  0.00  0.00    -0.646 OA
ENDBRANCH   5  14
ENDBRANCH   3   5
BRANCH   4  17
HETATM   17  C           1     -21.879  -6.816  -5.163  0.00  0.00     0.274 C 
BRANCH  17  18
HETATM   18  C           1     -21.804  -6.929  -3.646  0.00  0.00     0.042 C 
BRANCH  18  19
HETATM   19  C           1     -20.851  -8.054  -3.266  0.00  0.00     0.003 C 
BRANCH  19  20
HETATM   20 Se           1     -20.857  -8.286  -1.330  0.00  0.00     0.000 Se
HETATM   21  C           1     -22.262  -6.974  -1.013  0.00  0.00     0.000 C 
ENDBRANCH  19  20
ENDBRANCH  18  19
ENDBRANCH  17  18
BRANCH  17  22
HETATM   22  N           1     -20.952  -7.818  -5.784  0.00  0.00    -0.067 N 
HETATM   23  H           1     -21.286  -8.784  -5.564  0.00  0.00     0.275 HD
HETATM   24  H           1     -19.990  -7.686  -5.400  0.00  0.00     0.275 HD
HETATM   25  H           1     -20.936  -7.683  -6.820  0.00  0.00     0.275 HD
ENDBRANCH  17  22
ENDBRANCH   4  17
TORSDOF 9
ENDMDL
MODEL 5
REMARK VINA RESULT:      -5.9     13.406     15.207
REMARK  9 active torsions:
REMARK  status: ('A' for Active; 'I' for Inactive)
REMARK    1  A    between atoms: C_4  and  C_25 
REMARK    2  A    between atoms: C_4  and  C_5 
REMARK    3  A    between atoms: C_5  and  Se_6 
REMARK    4  A    between atoms: N_8  and  C_25 
REMARK    5  A    between atoms: C_12  and  C_13 
REMARK    6  A    between atoms: C_12  and  C_17 
REMARK    7  A    between atoms: C_13  and  C_15 
REMARK    8  A    between atoms: C_13  and  N_23 
REMARK       I    between atoms: N_23  and  C_24 
REMARK    9  A    between atoms: C_24  and  C_25 
ROOT
HETATM    1  O           1     -20.918  -7.784  -6.056  0.00  0.00    -0.271 OA
HETATM    2  H           1     -19.325  -5.525  -6.657  0.00  0.00     0.163 HD
HETATM    3  N           1     -20.294  -5.776  -6.805  0.00  0.00    -0.344 N 
HETATM    4  C           1     -20.936  -6.585  -5.908  0.00  0.00     0.249 C 
ENDROOT
BRANCH   3   5
HETATM    5  C           1     -21.002  -5.276  -7.968  0.00  0.00     0.191 C 
BRANCH   5   6
HETATM    6  C           1     -22.135  -4.363  -7.518  0.00  0.00     0.094 C 
BRANCH   6   7
HETATM    7  C           1     -23.131  -4.218  -8.626  0.00  0.00     0.028 A 
HETATM    8  C           1     -23.152  -4.990  -9.763  0.00  0.00     0.114 A 
HETATM    9  N           1     -24.211  -4.520 -10.491  0.00  0.00    -0.360 N 
HETATM   10  H           1     -24.529  -4.877 -11.426  0.00  0.00     0.166 HD
HETATM   11  C           1     -24.778  -3.502  -9.778  0.00  0.00     0.180 A 
HETATM   12  N           1     -24.146  -3.297  -8.646  0.00  0.00    -0.354 N 
ATOM     13  HN          1     -24.364  -2.601  -7.932  1.00  0.00     0.166 HD
ENDBRANCH   6   7
ENDBRANCH   5   6
BRANCH   5  14
HETATM   14  C           1     -20.048  -4.501  -8.843  0.00  0.00     0.197 C 
HETATM   15  O           1     -19.415  -3.531  -8.371  0.00  0.00    -0.646 OA
HETATM   16  O           1     -19.891  -4.828 -10.039  0.00  0.00    -0.646 OA
ENDBRANCH   5  14
ENDBRANCH   3   5
BRANCH   4  17
HETATM   17  C           1     -21.665  -5.981  -4.733  0.00  0.00     0.274 C 
BRANCH  17  18
HETATM   18  C           1     -21.112  -6.563  -3.438  0.00  0.00     0.042 C 
BRANCH  18  19
HETATM   19  C           1     -22.015  -6.166  -2.277  0.00  0.00     0.003 C 
BRANCH  19  20
HETATM   20 Se           1     -22.056  -7.607  -0.964  0.00  0.00     0.000 Se
HETATM   21  C           1     -21.245  -8.927  -2.147  0.00  0.00     0.000 C 
ENDBRANCH  19  20
ENDBRANCH  18  19
ENDBRANCH  17  18
BRANCH  17  22
HETATM   22  N           1     -23.128  -6.297  -4.837  0.00  0.00    -0.067 N 
HETATM   23  H           1     -23.580  -6.165  -3.905  0.00  0.00     0.275 HD
HETATM   24  H           1     -23.248  -7.288  -5.146  0.00  0.00     0.275 HD
HETATM   25  H           1     -23.574  -5.658  -5.534  0.00  0.00     0.275 HD
ENDBRANCH  17  22
ENDBRANCH   4  17
TORSDOF 9
ENDMDL
MODEL 6
REMARK VINA RESULT:      -5.8      4.432      6.028
REMARK  9 active torsions:
REMARK  status: ('A' for Active; 'I' for Inactive)
REMARK    1  A    between atoms: C_4  and  C_25 
REMARK    2  A    between atoms: C_4  and  C_5 
REMARK    3  A    between atoms: C_5  and  Se_6 
REMARK    4  A    between atoms: N_8  and  C_25 
REMARK    5  A    between atoms: C_12  and  C_13 
REMARK    6  A    between atoms: C_12  and  C_17 
REMARK    7  A    between atoms: C_13  and  C_15 
REMARK    8  A    between atoms: C_13  and  N_23 
REMARK       I    between atoms: N_23  and  C_24 
REMARK    9  A    between atoms: C_24  and  C_25 
ROOT
HETATM    1  O           1     -34.530  -2.904 -14.513  0.00  0.00    -0.271 OA
HETATM    2  H           1     -34.695  -5.214 -16.139  0.00  0.00     0.163 HD
HETATM    3  N           1     -33.942  -4.709 -15.691  0.00  0.00    -0.344 N 
HETATM    4  C           1     -34.165  -4.056 -14.508  0.00  0.00     0.249 C 
ENDROOT
BRANCH   3   5
HETATM    5  C           1     -32.627  -4.675 -16.300  0.00  0.00     0.191 C 
BRANCH   5   6
HETATM    6  C           1     -32.428  -5.927 -17.146  0.00  0.00     0.094 C 
BRANCH   6   7
HETATM    7  C           1     -31.001  -6.371 -17.055  0.00  0.00     0.028 A 
HETATM    8  C           1     -30.407  -7.268 -17.909  0.00  0.00     0.114 A 
HETATM    9  N           1     -29.119  -7.381 -17.464  0.00  0.00    -0.360 N 
HETATM   10  H           1     -28.369  -7.986 -17.881  0.00  0.00     0.166 HD
HETATM   11  C           1     -28.987  -6.563 -16.379  0.00  0.00     0.180 A 
HETATM   12  N           1     -30.110  -5.939 -16.108  0.00  0.00    -0.354 N 
ATOM     13  HN          1     -30.283  -5.274 -15.353  1.00  0.00     0.166 HD
ENDBRANCH   6   7
ENDBRANCH   5   6
BRANCH   5  14
HETATM   14  C           1     -32.510  -3.452 -17.176  0.00  0.00     0.197 C 
HETATM   15  O           1     -33.541  -2.865 -17.571  0.00  0.00    -0.646 OA
HETATM   16  O           1     -31.383  -3.027 -17.508  0.00  0.00    -0.646 OA
ENDBRANCH   5  14
ENDBRANCH   3   5
BRANCH   4  17
HETATM   17  C           1     -33.956  -4.775 -13.198  0.00  0.00     0.274 C 
BRANCH  17  18
HETATM   18  C           1     -34.903  -4.206 -12.149  0.00  0.00     0.042 C 
BRANCH  18  19
HETATM   19  C           1     -34.147  -3.993 -10.844  0.00  0.00     0.003 C 
BRANCH  19  20
HETATM   20 Se           1     -33.838  -2.087 -10.575  0.00  0.00     0.000 Se
HETATM   21  C           1     -35.498  -1.531 -11.431  0.00  0.00     0.000 C 
ENDBRANCH  19  20
ENDBRANCH  18  19
ENDBRANCH  17  18
BRANCH  17  22
HETATM   22  N           1     -32.538  -4.586 -12.745  0.00  0.00    -0.067 N 
HETATM   23  H           1     -32.086  -3.839 -13.319  0.00  0.00     0.275 HD
HETATM   24  H           1     -32.013  -5.481 -12.863  0.00  0.00     0.275 HD
HETATM   25  H           1     -32.528  -4.306 -11.738  0.00  0.00     0.275 HD
ENDBRANCH  17  22
ENDBRANCH   4  17
TORSDOF 9
ENDMDL
MODEL 7
REMARK VINA RESULT:      -5.7     14.047     15.314
REMARK  9 active torsions:
REMARK  status: ('A' for Active; 'I' for Inactive)
REMARK    1  A    between atoms: C_4  and  C_25 
REMARK    2  A    between atoms: C_4  and  C_5 
REMARK    3  A    between atoms: C_5  and  Se_6 
REMARK    4  A    between atoms: N_8  and  C_25 
REMARK    5  A    between atoms: C_12  and  C_13 
REMARK    6  A    between atoms: C_12  and  C_17 
REMARK    7  A    between atoms: C_13  and  C_15 
REMARK    8  A    between atoms: C_13  and  N_23 
REMARK       I    between atoms: N_23  and  C_24 
REMARK    9  A    between atoms: C_24  and  C_25 
ROOT
HETATM    1  O           1     -19.337  -4.882  -7.184  0.00  0.00    -0.271 OA
HETATM    2  H           1     -20.366  -7.498  -7.504  0.00  0.00     0.163 HD
HETATM    3  N           1     -20.379  -6.811  -6.761  0.00  0.00    -0.344 N 
HETATM    4  C           1     -20.382  -5.476  -7.065  0.00  0.00     0.249 C 
ENDROOT
BRANCH   3   5
HETATM    5  C           1     -20.397  -7.240  -5.376  0.00  0.00     0.191 C 
BRANCH   5   6
HETATM    6  C           1     -21.837  -7.301  -4.883  0.00  0.00     0.094 C 
BRANCH   6   7
HETATM    7  C           1     -21.864  -7.135  -3.396  0.00  0.00     0.028 A 
HETATM    8  C           1     -21.471  -8.095  -2.495  0.00  0.00     0.114 A 
HETATM    9  N           1     -21.661  -7.527  -1.265  0.00  0.00    -0.360 N 
HETATM   10  H           1     -21.465  -7.976  -0.337  0.00  0.00     0.166 HD
HETATM   11  C           1     -22.151  -6.268  -1.467  0.00  0.00     0.180 A 
HETATM   12  N           1     -22.285  -6.004  -2.746  0.00  0.00    -0.354 N 
ATOM     13  HN          1     -22.628  -5.140  -3.167  1.00  0.00     0.166 HD
ENDBRANCH   6   7
ENDBRANCH   5   6
BRANCH   5  14
HETATM   14  C           1     -19.768  -8.606  -5.266  0.00  0.00     0.197 C 
HETATM   15  O           1     -20.306  -9.590  -5.821  0.00  0.00    -0.646 OA
HETATM   16  O           1     -18.710  -8.756  -4.618  0.00  0.00    -0.646 OA
ENDBRANCH   5  14
ENDBRANCH   3   5
BRANCH   4  17
HETATM   17  C           1     -21.690  -4.747  -7.251  0.00  0.00     0.274 C 
BRANCH  17  18
HETATM   18  C           1     -22.181  -4.941  -8.680  0.00  0.00     0.042 C 
BRANCH  18  19
HETATM   19  C           1     -22.678  -3.611  -9.232  0.00  0.00     0.003 C 
BRANCH  19  20
HETATM   20 Se           1     -22.171  -3.455 -11.108  0.00  0.00     0.000 Se
HETATM   21  C           1     -20.402  -4.237 -10.863  0.00  0.00     0.000 C 
ENDBRANCH  19  20
ENDBRANCH  18  19
ENDBRANCH  17  18
BRANCH  17  22
HETATM   22  N           1     -21.487  -3.284  -6.988  0.00  0.00    -0.067 N 
HETATM   23  H           1     -20.600  -2.968  -7.440  0.00  0.00     0.275 HD
HETATM   24  H           1     -21.430  -3.120  -5.958  0.00  0.00     0.275 HD
HETATM   25  H           1     -22.290  -2.744  -7.383  0.00  0.00     0.275 HD
ENDBRANCH  17  22
ENDBRANCH   4  17
TORSDOF 9
ENDMDL
MODEL 8
REMARK VINA RESULT:      -5.7     13.018     14.324
REMARK  9 active torsions:
REMARK  status: ('A' for Active; 'I' for Inactive)
REMARK    1  A    between atoms: C_4  and  C_25 
REMARK    2  A    between atoms: C_4  and  C_5 
REMARK    3  A    between atoms: C_5  and  Se_6 
REMARK    4  A    between atoms: N_8  and  C_25 
REMARK    5  A    between atoms: C_12  and  C_13 
REMARK    6  A    between atoms: C_12  and  C_17 
REMARK    7  A    between atoms: C_13  and  C_15 
REMARK    8  A    between atoms: C_13  and  N_23 
REMARK       I    between atoms: N_23  and  C_24 
REMARK    9  A    between atoms: C_24  and  C_25 
ROOT
HETATM    1  O           1     -20.890  -4.031  -6.568  0.00  0.00    -0.271 OA
HETATM    2  H           1     -19.865  -6.520  -7.441  0.00  0.00     0.163 HD
HETATM    3  N           1     -20.692  -6.224  -6.938  0.00  0.00    -0.344 N 
HETATM    4  C           1     -21.248  -5.000  -7.194  0.00  0.00     0.249 C 
ENDROOT
BRANCH   3   5
HETATM    5  C           1     -21.288  -7.098  -5.946  0.00  0.00     0.191 C 
BRANCH   5   6
HETATM    6  C           1     -20.193  -7.887  -5.241  0.00  0.00     0.094 C 
BRANCH   6   7
HETATM    7  C           1     -20.667  -9.283  -4.986  0.00  0.00     0.028 A 
HETATM    8  C           1     -20.879  -9.820  -3.739  0.00  0.00     0.114 A 
HETATM    9  N           1     -21.300 -11.101  -3.972  0.00  0.00    -0.360 N 
HETATM   10  H           1     -21.557 -11.812  -3.243  0.00  0.00     0.166 HD
HETATM   11  C           1     -21.325 -11.284  -5.325  0.00  0.00     0.180 A 
HETATM   12  N           1     -20.947 -10.202  -5.964  0.00  0.00    -0.354 N 
ATOM     13  HN          1     -20.877 -10.071  -6.973  1.00  0.00     0.166 HD
ENDBRANCH   6   7
ENDBRANCH   5   6
BRANCH   5  14
HETATM   14  C           1     -22.042  -6.269  -4.936  0.00  0.00     0.197 C 
HETATM   15  O           1     -21.454  -5.827  -3.925  0.00  0.00    -0.646 OA
HETATM   16  O           1     -23.256  -6.026  -5.108  0.00  0.00    -0.646 OA
ENDBRANCH   5  14
ENDBRANCH   3   5
BRANCH   4  17
HETATM   17  C           1     -22.307  -4.860  -8.260  0.00  0.00     0.274 C 
BRANCH  17  18
HETATM   18  C           1     -21.768  -4.010  -9.404  0.00  0.00     0.042 C 
BRANCH  18  19
HETATM   19  C           1     -22.510  -4.357 -10.689  0.00  0.00     0.003 C 
BRANCH  19  20
HETATM   20 Se           1     -22.448  -2.835 -11.906  0.00  0.00     0.000 Se
HETATM   21  C           1     -24.300  -3.017 -12.487  0.00  0.00     0.000 C 
ENDBRANCH  19  20
ENDBRANCH  18  19
ENDBRANCH  17  18
BRANCH  17  22
HETATM   22  N           1     -23.519  -4.197  -7.675  0.00  0.00    -0.067 N 
HETATM   23  H           1     -23.258  -3.255  -7.307  0.00  0.00     0.275 HD
HETATM   24  H           1     -23.894  -4.784  -6.897  0.00  0.00     0.275 HD
HETATM   25  H           1     -24.250  -4.091  -8.415  0.00  0.00     0.275 HD
ENDBRANCH  17  22
ENDBRANCH   4  17
TORSDOF 9
ENDMDL
MODEL 9
REMARK VINA RESULT:      -5.6     14.866     16.572
REMARK  9 active torsions:
REMARK  status: ('A' for Active; 'I' for Inactive)
REMARK    1  A    between atoms: C_4  and  C_25 
REMARK    2  A    between atoms: C_4  and  C_5 
REMARK    3  A    between atoms: C_5  and  Se_6 
REMARK    4  A    between atoms: N_8  and  C_25 
REMARK    5  A    between atoms: C_12  and  C_13 
REMARK    6  A    between atoms: C_12  and  C_17 
REMARK    7  A    between atoms: C_13  and  C_15 
REMARK    8  A    between atoms: C_13  and  N_23 
REMARK       I    between atoms: N_23  and  C_24 
REMARK    9  A    between atoms: C_24  and  C_25 
ROOT
HETATM    1  O           1     -22.799  -6.133  -4.729  0.00  0.00    -0.271 OA
HETATM    2  H           1     -21.236  -5.666  -2.417  0.00  0.00     0.163 HD
HETATM    3  N           1     -21.415  -6.467  -3.008  0.00  0.00    -0.344 N 
HETATM    4  C           1     -21.665  -6.291  -4.343  0.00  0.00     0.249 C 
ENDROOT
BRANCH   3   5
HETATM    5  C           1     -21.406  -7.802  -2.442  0.00  0.00     0.191 C 
BRANCH   5   6
HETATM    6  C           1     -19.968  -8.280  -2.293  0.00  0.00     0.094 C 
BRANCH   6   7
HETATM    7  C           1     -19.616  -9.172  -3.443  0.00  0.00     0.028 A 
HETATM    8  C           1     -20.484 -10.051  -4.043  0.00  0.00     0.114 A 
HETATM    9  N           1     -19.754 -10.652  -5.031  0.00  0.00    -0.360 N 
HETATM   10  H           1     -20.097 -11.386  -5.699  0.00  0.00     0.166 HD
HETATM   11  C           1     -18.496 -10.122  -4.991  0.00  0.00     0.180 A 
HETATM   12  N           1     -18.383  -9.224  -4.039  0.00  0.00    -0.354 N 
ATOM     13  HN          1     -17.555  -8.680  -3.796  1.00  0.00     0.166 HD
ENDBRANCH   6   7
ENDBRANCH   5   6
BRANCH   5  14
HETATM   14  C           1     -22.072  -7.777  -1.088  0.00  0.00     0.197 C 
HETATM   15  O           1     -21.925  -8.738  -0.302  0.00  0.00    -0.646 OA
HETATM   16  O           1     -22.771  -6.797  -0.754  0.00  0.00    -0.646 OA
ENDBRANCH   5  14
ENDBRANCH   3   5
BRANCH   4  17
HETATM   17  C           1     -20.525  -6.292  -5.331  0.00  0.00     0.274 C 
BRANCH  17  18
HETATM   18  C           1     -20.376  -4.902  -5.937  0.00  0.00     0.042 C 
BRANCH  18  19
HETATM   19  C           1     -19.454  -4.972  -7.148  0.00  0.00     0.003 C 
BRANCH  19  20
HETATM   20 Se           1     -20.416  -4.370  -8.733  0.00  0.00     0.000 Se
HETATM   21  C           1     -22.072  -3.984  -7.781  0.00  0.00     0.000 C 
ENDBRANCH  19  20
ENDBRANCH  18  19
ENDBRANCH  17  18
BRANCH  17  22
HETATM   22  N           1     -20.809  -7.283  -6.420  0.00  0.00    -0.067 N 
HETATM   23  H           1     -20.383  -8.205  -6.174  0.00  0.00     0.275 HD
HETATM   24  H           1     -20.401  -6.940  -7.318  0.00  0.00     0.275 HD
HETATM   25  H           1     -21.843  -7.395  -6.528  0.00  0.00     0.275 HD
ENDBRANCH  17  22
ENDBRANCH   4  17
TORSDOF 9
ENDMDL
