MODEL 1
REMARK VINA RESULT:      -5.7      0.000      0.000
REMARK  6 active torsions:
REMARK  status: ('A' for Active; 'I' for Inactive)
REMARK    1  A    between atoms: N_2  and  C_5 
REMARK    2  A    between atoms: O_3  and  C_4 
REMARK    3  A    between atoms: C_4  and  C_5 
REMARK    4  A    between atoms: C_5  and  C_6 
REMARK       I    between atoms: C_6  and  N_7 
REMARK    5  A    between atoms: N_7  and  C_9 
REMARK    6  A    between atoms: C_9  and  C_15 
ROOT
HETATM    1  C           1     -24.179  -3.180 -10.038  0.00  0.00     0.297 C 
ENDROOT
BRANCH   1   2
HETATM    2  N           1     -25.615  -3.548  -9.805  0.00  0.00    -0.064 N 
HETATM    3  H           1     -25.751  -3.807  -8.802  0.00  0.00     0.275 HD
HETATM    4  H           1     -26.225  -2.732 -10.040  0.00  0.00     0.275 HD
HETATM    5  H           1     -25.869  -4.359 -10.412  0.00  0.00     0.275 HD
ENDBRANCH   1   2
BRANCH   1   6
HETATM    6  C           1     -23.302  -3.897  -9.019  0.00  0.00     0.206 C 
BRANCH   6   7
HETATM    7  O           1     -24.026  -4.098  -7.836  0.00  0.00    -0.398 OA
HETATM    8  H           1     -24.931  -4.187  -8.081  0.00  0.00     0.209 HD
ENDBRANCH   6   7
ENDBRANCH   1   6
BRANCH   1   9
HETATM    9  C           1     -23.774  -3.594 -11.431  0.00  0.00     0.250 C 
HETATM   10  O           1     -23.621  -4.764 -11.693  0.00  0.00    -0.271 OA
HETATM   11  N           1     -23.579  -2.644 -12.398  0.00  0.00    -0.349 N 
HETATM   12  H           1     -23.707  -1.665 -12.178  0.00  0.00     0.163 HD
BRANCH  11  13
HETATM   13  C           1     -23.189  -3.042 -13.737  0.00  0.00     0.235 C 
BRANCH  13  14
HETATM   14  C           1     -23.497  -1.926 -14.703  0.00  0.00     0.191 C 
HETATM   15  O           1     -24.556  -1.272 -14.587  0.00  0.00    -0.647 OA
HETATM   16  O           1     -22.692  -1.654 -15.621  0.00  0.00    -0.647 OA
ENDBRANCH  13  14
ENDBRANCH  11  13
ENDBRANCH   1   9
TORSDOF 6
ENDMDL
MODEL 2
REMARK VINA RESULT:      -5.6     15.436     16.552
REMARK  6 active torsions:
REMARK  status: ('A' for Active; 'I' for Inactive)
REMARK    1  A    between atoms: N_2  and  C_5 
REMARK    2  A    between atoms: O_3  and  C_4 
REMARK    3  A    between atoms: C_4  and  C_5 
REMARK    4  A    between atoms: C_5  and  C_6 
REMARK       I    between atoms: C_6  and  N_7 
REMARK    5  A    between atoms: N_7  and  C_9 
REMARK    6  A    between atoms: C_9  and  C_15 
ROOT
HETATM    1  C           1     -30.495 -15.669 -22.185  0.00  0.00     0.297 C 
ENDROOT
BRANCH   1   2
HETATM    2  N           1     -30.656 -17.065 -21.661  0.00  0.00    -0.064 N 
HETATM    3  H           1     -30.508 -17.749 -22.437  0.00  0.00     0.275 HD
HETATM    4  H           1     -29.952 -17.236 -20.908  0.00  0.00     0.275 HD
HETATM    5  H           1     -31.618 -17.183 -21.272  0.00  0.00     0.275 HD
ENDBRANCH   1   2
BRANCH   1   6
HETATM    6  C           1     -31.836 -15.164 -22.702  0.00  0.00     0.206 C 
BRANCH   6   7
HETATM    7  O           1     -31.931 -13.781 -22.485  0.00  0.00    -0.398 OA
HETATM    8  H           1     -32.179 -13.392 -23.306  0.00  0.00     0.209 HD
ENDBRANCH   6   7
ENDBRANCH   1   6
BRANCH   1   9
HETATM    9  C           1     -30.012 -14.768 -21.076  0.00  0.00     0.250 C 
HETATM   10  O           1     -29.125 -13.975 -21.284  0.00  0.00    -0.271 OA
HETATM   11  N           1     -30.579 -14.850 -19.832  0.00  0.00    -0.349 N 
HETATM   12  H           1     -31.322 -15.515 -19.657  0.00  0.00     0.163 HD
BRANCH  11  13
HETATM   13  C           1     -30.114 -13.985 -18.764  0.00  0.00     0.235 C 
BRANCH  13  14
HETATM   14  C           1     -29.381 -14.805 -17.734  0.00  0.00     0.191 C 
HETATM   15  O           1     -29.732 -14.763 -16.535  0.00  0.00    -0.647 OA
HETATM   16  O           1     -28.420 -15.528 -18.078  0.00  0.00    -0.647 OA
ENDBRANCH  13  14
ENDBRANCH  11  13
ENDBRANCH   1   9
TORSDOF 6
ENDMDL
MODEL 3
REMARK VINA RESULT:      -5.6      1.495      5.134
REMARK  6 active torsions:
REMARK  status: ('A' for Active; 'I' for Inactive)
REMARK    1  A    between atoms: N_2  and  C_5 
REMARK    2  A    between atoms: O_3  and  C_4 
REMARK    3  A    between atoms: C_4  and  C_5 
REMARK    4  A    between atoms: C_5  and  C_6 
REMARK       I    between atoms: C_6  and  N_7 
REMARK    5  A    between atoms: N_7  and  C_9 
REMARK    6  A    between atoms: C_9  and  C_15 
ROOT
HETATM    1  C           1     -22.920  -2.163 -14.286  0.00  0.00     0.297 C 
ENDROOT
BRANCH   1   2
HETATM    2  N           1     -22.308  -3.152 -15.234  0.00  0.00    -0.064 N 
HETATM    3  H           1     -22.710  -4.100 -15.056  0.00  0.00     0.275 HD
HETATM    4  H           1     -22.516  -2.865 -16.217  0.00  0.00     0.275 HD
HETATM    5  H           1     -21.275  -3.180 -15.089  0.00  0.00     0.275 HD
ENDBRANCH   1   2
BRANCH   1   6
HETATM    6  C           1     -23.782  -1.180 -15.067  0.00  0.00     0.206 C 
BRANCH   6   7
HETATM    7  O           1     -24.929  -0.869 -14.323  0.00  0.00    -0.398 OA
HETATM    8  H           1     -25.024  -1.542 -13.672  0.00  0.00     0.209 HD
ENDBRANCH   6   7
ENDBRANCH   1   6
BRANCH   1   9
HETATM    9  C           1     -23.776  -2.894 -13.281  0.00  0.00     0.250 C 
HETATM   10  O           1     -24.538  -3.755 -13.649  0.00  0.00    -0.271 OA
HETATM   11  N           1     -23.688  -2.580 -11.951  0.00  0.00    -0.349 N 
HETATM   12  H           1     -23.049  -1.858 -11.643  0.00  0.00     0.163 HD
BRANCH  11  13
HETATM   13  C           1     -24.510  -3.282 -10.984  0.00  0.00     0.235 C 
BRANCH  13  14
HETATM   14  C           1     -23.625  -4.031 -10.020  0.00  0.00     0.191 C 
HETATM   15  O           1     -22.757  -4.819 -10.452  0.00  0.00    -0.647 OA
HETATM   16  O           1     -23.761  -3.865  -8.788  0.00  0.00    -0.647 OA
ENDBRANCH  13  14
ENDBRANCH  11  13
ENDBRANCH   1   9
TORSDOF 6
ENDMDL
MODEL 4
REMARK VINA RESULT:      -5.5      1.649      5.461
REMARK  6 active torsions:
REMARK  status: ('A' for Active; 'I' for Inactive)
REMARK    1  A    between atoms: N_2  and  C_5 
REMARK    2  A    between atoms: O_3  and  C_4 
REMARK    3  A    between atoms: C_4  and  C_5 
REMARK    4  A    between atoms: C_5  and  C_6 
REMARK       I    between atoms: C_6  and  N_7 
REMARK    5  A    between atoms: N_7  and  C_9 
REMARK    6  A    between atoms: C_9  and  C_15 
ROOT
HETATM    1  C           1     -22.830  -2.788 -12.407  0.00  0.00     0.297 C 
ENDROOT
BRANCH   1   2
HETATM    2  N           1     -21.659  -3.715 -12.556  0.00  0.00    -0.064 N 
HETATM    3  H           1     -21.006  -3.584 -11.751  0.00  0.00     0.275 HD
HETATM    4  H           1     -21.998  -4.703 -12.573  0.00  0.00     0.275 HD
HETATM    5  H           1     -21.158  -3.502 -13.447  0.00  0.00     0.275 HD
ENDBRANCH   1   2
BRANCH   1   6
HETATM    6  C           1     -23.696  -2.861 -13.658  0.00  0.00     0.206 C 
BRANCH   6   7
HETATM    7  O           1     -24.437  -1.677 -13.783  0.00  0.00    -0.398 OA
HETATM    8  H           1     -25.068  -1.674 -13.084  0.00  0.00     0.209 HD
ENDBRANCH   6   7
ENDBRANCH   1   6
BRANCH   1   9
HETATM    9  C           1     -23.645  -3.199 -11.206  0.00  0.00     0.250 C 
HETATM   10  O           1     -24.851  -3.146 -11.247  0.00  0.00    -0.271 OA
HETATM   11  N           1     -23.017  -3.632 -10.068  0.00  0.00    -0.349 N 
HETATM   12  H           1     -22.007  -3.677 -10.034  0.00  0.00     0.163 HD
BRANCH  11  13
HETATM   13  C           1     -23.801  -4.027  -8.913  0.00  0.00     0.235 C 
BRANCH  13  14
HETATM   14  C           1     -22.896  -4.168  -7.715  0.00  0.00     0.191 C 
HETATM   15  O           1     -23.324  -4.698  -6.667  0.00  0.00    -0.647 OA
HETATM   16  O           1     -21.718  -3.753  -7.769  0.00  0.00    -0.647 OA
ENDBRANCH  13  14
ENDBRANCH  11  13
ENDBRANCH   1   9
TORSDOF 6
ENDMDL
MODEL 5
REMARK VINA RESULT:      -5.5      7.682      8.921
REMARK  6 active torsions:
REMARK  status: ('A' for Active; 'I' for Inactive)
REMARK    1  A    between atoms: N_2  and  C_5 
REMARK    2  A    between atoms: O_3  and  C_4 
REMARK    3  A    between atoms: C_4  and  C_5 
REMARK    4  A    between atoms: C_5  and  C_6 
REMARK       I    between atoms: C_6  and  N_7 
REMARK    5  A    between atoms: N_7  and  C_9 
REMARK    6  A    between atoms: C_9  and  C_15 
ROOT
HETATM    1  C           1     -30.115  -7.147 -17.399  0.00  0.00     0.297 C 
ENDROOT
BRANCH   1   2
HETATM    2  N           1     -31.085  -6.073 -17.002  0.00  0.00    -0.064 N 
HETATM    3  H           1     -31.846  -6.488 -16.419  0.00  0.00     0.275 HD
HETATM    4  H           1     -30.584  -5.340 -16.450  0.00  0.00     0.275 HD
HETATM    5  H           1     -31.498  -5.643 -17.859  0.00  0.00     0.275 HD
ENDBRANCH   1   2
BRANCH   1   6
HETATM    6  C           1     -30.610  -7.834 -18.665  0.00  0.00     0.206 C 
BRANCH   6   7
HETATM    7  O           1     -29.590  -8.641 -19.189  0.00  0.00    -0.398 OA
HETATM    8  H           1     -29.393  -8.310 -20.048  0.00  0.00     0.209 HD
ENDBRANCH   6   7
ENDBRANCH   1   6
BRANCH   1   9
HETATM    9  C           1     -28.762  -6.531 -17.657  0.00  0.00     0.250 C 
HETATM   10  O           1     -28.629  -5.712 -18.534  0.00  0.00    -0.271 OA
HETATM   11  N           1     -27.685  -6.902 -16.896  0.00  0.00    -0.349 N 
HETATM   12  H           1     -27.798  -7.588 -16.161  0.00  0.00     0.163 HD
BRANCH  11  13
HETATM   13  C           1     -26.384  -6.310 -17.144  0.00  0.00     0.235 C 
BRANCH  13  14
HETATM   14  C           1     -25.337  -7.042 -16.343  0.00  0.00     0.191 C 
HETATM   15  O           1     -25.471  -7.167 -15.106  0.00  0.00    -0.647 OA
HETATM   16  O           1     -24.335  -7.524 -16.914  0.00  0.00    -0.647 OA
ENDBRANCH  13  14
ENDBRANCH  11  13
ENDBRANCH   1   9
TORSDOF 6
ENDMDL
MODEL 6
REMARK VINA RESULT:      -5.3      7.689      8.693
REMARK  6 active torsions:
REMARK  status: ('A' for Active; 'I' for Inactive)
REMARK    1  A    between atoms: N_2  and  C_5 
REMARK    2  A    between atoms: O_3  and  C_4 
REMARK    3  A    between atoms: C_4  and  C_5 
REMARK    4  A    between atoms: C_5  and  C_6 
REMARK       I    between atoms: C_6  and  N_7 
REMARK    5  A    between atoms: N_7  and  C_9 
REMARK    6  A    between atoms: C_9  and  C_15 
ROOT
HETATM    1  C           1     -29.096  -6.808 -17.242  0.00  0.00     0.297 C 
ENDROOT
BRANCH   1   2
HETATM    2  N           1     -29.450  -8.247 -17.475  0.00  0.00    -0.064 N 
HETATM    3  H           1     -29.301  -8.484 -18.482  0.00  0.00     0.275 HD
HETATM    4  H           1     -28.842  -8.855 -16.881  0.00  0.00     0.275 HD
HETATM    5  H           1     -30.451  -8.404 -17.225  0.00  0.00     0.275 HD
ENDBRANCH   1   2
BRANCH   1   6
HETATM    6  C           1     -28.171  -6.703 -16.036  0.00  0.00     0.206 C 
BRANCH   6   7
HETATM    7  O           1     -27.018  -5.987 -16.392  0.00  0.00    -0.398 OA
HETATM    8  H           1     -26.282  -6.477 -16.069  0.00  0.00     0.209 HD
ENDBRANCH   6   7
ENDBRANCH   1   6
BRANCH   1   9
HETATM    9  C           1     -28.397  -6.259 -18.461  0.00  0.00     0.250 C 
HETATM   10  O           1     -28.677  -5.158 -18.874  0.00  0.00    -0.271 OA
HETATM   11  N           1     -27.446  -7.008 -19.101  0.00  0.00    -0.349 N 
HETATM   12  H           1     -27.212  -7.930 -18.755  0.00  0.00     0.163 HD
BRANCH  11  13
HETATM   13  C           1     -26.774  -6.481 -20.273  0.00  0.00     0.235 C 
BRANCH  13  14
HETATM   14  C           1     -25.305  -6.814 -20.205  0.00  0.00     0.191 C 
HETATM   15  O           1     -24.731  -7.316 -21.196  0.00  0.00    -0.647 OA
HETATM   16  O           1     -24.661  -6.590 -19.157  0.00  0.00    -0.647 OA
ENDBRANCH  13  14
ENDBRANCH  11  13
ENDBRANCH   1   9
TORSDOF 6
ENDMDL
MODEL 7
REMARK VINA RESULT:      -5.3      1.773      2.090
REMARK  6 active torsions:
REMARK  status: ('A' for Active; 'I' for Inactive)
REMARK    1  A    between atoms: N_2  and  C_5 
REMARK    2  A    between atoms: O_3  and  C_4 
REMARK    3  A    between atoms: C_4  and  C_5 
REMARK    4  A    between atoms: C_5  and  C_6 
REMARK       I    between atoms: C_6  and  N_7 
REMARK    5  A    between atoms: N_7  and  C_9 
REMARK    6  A    between atoms: C_9  and  C_15 
ROOT
HETATM    1  C           1     -23.087  -4.375  -9.321  0.00  0.00     0.297 C 
ENDROOT
BRANCH   1   2
HETATM    2  N           1     -22.638  -3.456  -8.223  0.00  0.00    -0.064 N 
HETATM    3  H           1     -22.897  -3.867  -7.297  0.00  0.00     0.275 HD
HETATM    4  H           1     -21.601  -3.336  -8.272  0.00  0.00     0.275 HD
HETATM    5  H           1     -23.103  -2.528  -8.334  0.00  0.00     0.275 HD
ENDBRANCH   1   2
BRANCH   1   6
HETATM    6  C           1     -24.583  -4.201  -9.548  0.00  0.00     0.206 C 
BRANCH   6   7
HETATM    7  O           1     -24.954  -2.885  -9.236  0.00  0.00    -0.398 OA
HETATM    8  H           1     -25.097  -2.441 -10.053  0.00  0.00     0.209 HD
ENDBRANCH   6   7
ENDBRANCH   1   6
BRANCH   1   9
HETATM    9  C           1     -22.343  -4.040 -10.590  0.00  0.00     0.250 C 
HETATM   10  O           1     -21.162  -4.276 -10.679  0.00  0.00    -0.271 OA
HETATM   11  N           1     -23.008  -3.470 -11.643  0.00  0.00    -0.349 N 
HETATM   12  H           1     -23.998  -3.272 -11.568  0.00  0.00     0.163 HD
BRANCH  11  13
HETATM   13  C           1     -22.294  -3.148 -12.863  0.00  0.00     0.235 C 
BRANCH  13  14
HETATM   14  C           1     -23.275  -2.703 -13.919  0.00  0.00     0.191 C 
HETATM   15  O           1     -22.919  -2.638 -15.115  0.00  0.00    -0.647 OA
HETATM   16  O           1     -24.444  -2.399 -13.597  0.00  0.00    -0.647 OA
ENDBRANCH  13  14
ENDBRANCH  11  13
ENDBRANCH   1   9
TORSDOF 6
ENDMDL
MODEL 8
REMARK VINA RESULT:      -5.3      1.768      2.031
REMARK  6 active torsions:
REMARK  status: ('A' for Active; 'I' for Inactive)
REMARK    1  A    between atoms: N_2  and  C_5 
REMARK    2  A    between atoms: O_3  and  C_4 
REMARK    3  A    between atoms: C_4  and  C_5 
REMARK    4  A    between atoms: C_5  and  C_6 
REMARK       I    between atoms: C_6  and  N_7 
REMARK    5  A    between atoms: N_7  and  C_9 
REMARK    6  A    between atoms: C_9  and  C_15 
ROOT
HETATM    1  C           1     -23.318  -3.755 -10.208  0.00  0.00     0.297 C 
ENDROOT
BRANCH   1   2
HETATM    2  N           1     -24.442  -3.060  -9.498  0.00  0.00    -0.064 N 
HETATM    3  H           1     -24.774  -2.255 -10.074  0.00  0.00     0.275 HD
HETATM    4  H           1     -25.229  -3.733  -9.353  0.00  0.00     0.275 HD
HETATM    5  H           1     -24.107  -2.711  -8.573  0.00  0.00     0.275 HD
ENDBRANCH   1   2
BRANCH   1   6
HETATM    6  C           1     -23.764  -5.152 -10.619  0.00  0.00     0.206 C 
BRANCH   6   7
HETATM    7  O           1     -23.527  -5.336 -11.989  0.00  0.00    -0.398 OA
HETATM    8  H           1     -24.334  -5.637 -12.368  0.00  0.00     0.209 HD
ENDBRANCH   6   7
ENDBRANCH   1   6
BRANCH   1   9
HETATM    9  C           1     -22.938  -2.967 -11.437  0.00  0.00     0.250 C 
HETATM   10  O           1     -21.782  -2.674 -11.635  0.00  0.00    -0.271 OA
HETATM   11  N           1     -23.903  -2.582 -12.330  0.00  0.00    -0.349 N 
HETATM   12  H           1     -24.871  -2.827 -12.164  0.00  0.00     0.163 HD
BRANCH  11  13
HETATM   13  C           1     -23.538  -1.825 -13.512  0.00  0.00     0.235 C 
BRANCH  13  14
HETATM   14  C           1     -23.270  -2.772 -14.654  0.00  0.00     0.191 C 
HETATM   15  O           1     -23.917  -3.837 -14.748  0.00  0.00    -0.647 OA
HETATM   16  O           1     -22.400  -2.492 -15.508  0.00  0.00    -0.647 OA
ENDBRANCH  13  14
ENDBRANCH  11  13
ENDBRANCH   1   9
TORSDOF 6
ENDMDL
MODEL 9
REMARK VINA RESULT:      -5.1      2.753      3.415
REMARK  6 active torsions:
REMARK  status: ('A' for Active; 'I' for Inactive)
REMARK    1  A    between atoms: N_2  and  C_5 
REMARK    2  A    between atoms: O_3  and  C_4 
REMARK    3  A    between atoms: C_4  and  C_5 
REMARK    4  A    between atoms: C_5  and  C_6 
REMARK       I    between atoms: C_6  and  N_7 
REMARK    5  A    between atoms: N_7  and  C_9 
REMARK    6  A    between atoms: C_9  and  C_15 
ROOT
HETATM    1  C           1     -20.847  -4.700  -8.916  0.00  0.00     0.297 C 
ENDROOT
BRANCH   1   2
HETATM    2  N           1     -19.671  -3.966  -8.343  0.00  0.00    -0.064 N 
HETATM    3  H           1     -19.091  -3.576  -9.120  0.00  0.00     0.275 HD
HETATM    4  H           1     -20.011  -3.185  -7.737  0.00  0.00     0.275 HD
HETATM    5  H           1     -19.093  -4.623  -7.774  0.00  0.00     0.275 HD
ENDBRANCH   1   2
BRANCH   1   6
HETATM    6  C           1     -22.035  -4.568  -7.971  0.00  0.00     0.206 C 
BRANCH   6   7
HETATM    7  O           1     -22.085  -3.263  -7.461  0.00  0.00    -0.398 OA
HETATM    8  H           1     -21.481  -2.748  -7.967  0.00  0.00     0.209 HD
ENDBRANCH   6   7
ENDBRANCH   1   6
BRANCH   1   9
HETATM    9  C           1     -21.203  -4.109 -10.257  0.00  0.00     0.250 C 
HETATM   10  O           1     -20.399  -4.129 -11.159  0.00  0.00    -0.271 OA
HETATM   11  N           1     -22.438  -3.551 -10.454  0.00  0.00    -0.349 N 
HETATM   12  H           1     -23.111  -3.535  -9.699  0.00  0.00     0.163 HD
BRANCH  11  13
HETATM   13  C           1     -22.780  -2.983 -11.744  0.00  0.00     0.235 C 
BRANCH  13  14
HETATM   14  C           1     -24.272  -3.069 -11.952  0.00  0.00     0.191 C 
HETATM   15  O           1     -25.034  -3.194 -10.969  0.00  0.00    -0.647 OA
HETATM   16  O           1     -24.746  -3.015 -13.108  0.00  0.00    -0.647 OA
ENDBRANCH  13  14
ENDBRANCH  11  13
ENDBRANCH   1   9
TORSDOF 6
ENDMDL
