MODEL 1
REMARK VINA RESULT:      -8.8      0.000      0.000
REMARK  12 active torsions:
REMARK  status: ('A' for Active; 'I' for Inactive)
REMARK    1  A    between atoms: C_1  and  O_27 
REMARK    2  A    between atoms: C_3  and  C_25 
REMARK    3  A    between atoms: C_4  and  C_10 
REMARK    4  A    between atoms: C_4  and  C_5 
REMARK    5  A    between atoms: C_10  and  C_12 
REMARK    6  A    between atoms: C_10  and  N_30 
REMARK       I    between atoms: C_12  and  N_22 
REMARK    7  A    between atoms: O_18  and  P_28 
REMARK    8  A    between atoms: N_22  and  C_35 
REMARK    9  A    between atoms: C_23  and  C_35 
REMARK   10  A    between atoms: C_25  and  C_35 
REMARK   11  A    between atoms: P_28  and  O_34 
REMARK   12  A    between atoms: C_33  and  O_34 
ROOT
HETATM    1  O           1     -20.906  -5.910  -3.637  0.00  0.00    -0.271 OA
HETATM    2  C           1     -21.576  -6.488  -4.460  0.00  0.00     0.249 C 
HETATM    3  H           1     -23.174  -5.446  -5.267  0.00  0.00     0.163 HD
HETATM    4  N           1     -22.231  -5.776  -5.431  0.00  0.00    -0.344 N 
ENDROOT
BRANCH   4   5
HETATM    5  C           1     -21.574  -5.497  -6.693  0.00  0.00     0.189 C 
BRANCH   5   6
HETATM    6  C           1     -20.079  -5.572  -6.507  0.00  0.00     0.197 C 
HETATM    7  O           1     -19.452  -4.582  -6.069  0.00  0.00    -0.646 OA
HETATM    8  O           1     -19.466  -6.623  -6.793  0.00  0.00    -0.646 OA
ENDBRANCH   5   6
BRANCH   5   9
HETATM    9  C           1     -21.958  -4.100  -7.165  0.00  0.00     0.074 C 
BRANCH   9  10
HETATM   10  C           1     -22.419  -4.163  -8.588  0.00  0.00    -0.056 A 
HETATM   11  C           1     -23.774  -4.018  -8.890  0.00  0.00     0.010 A 
HETATM   12  C           1     -24.203  -4.077 -10.215  0.00  0.00     0.038 A 
HETATM   13  C           1     -23.278  -4.280 -11.239  0.00  0.00     0.081 A 
HETATM   14  C           1     -21.924  -4.426 -10.938  0.00  0.00     0.038 A 
HETATM   15  C           1     -21.494  -4.367  -9.612  0.00  0.00     0.010 A 
BRANCH  13  16
HETATM   16  O           1     -23.695  -4.337 -12.528  0.00  0.00    -0.247 OA
BRANCH  16  17
HETATM   17  P           1     -23.797  -2.953 -13.354  0.00  0.00     0.411 P 
HETATM   18  O           1     -23.586  -3.222 -14.794  0.00  0.00    -0.624 OA
HETATM   19  O           1     -22.761  -2.014 -12.871  0.00  0.00    -0.624 OA
BRANCH  17  20
HETATM   20  O           1     -25.259  -2.303 -13.136  0.00  0.00    -0.300 OA
HETATM   21  H           1     -25.094  -1.408 -12.894  0.00  0.00     0.223 HD
ENDBRANCH  17  20
ENDBRANCH  16  17
ENDBRANCH  13  16
ENDBRANCH   9  10
ENDBRANCH   5   9
ENDBRANCH   4   5
BRANCH   2  22
HETATM   22  C           1     -21.691  -7.991  -4.419  0.00  0.00     0.278 C 
BRANCH  22  23
HETATM   23  C           1     -20.854  -8.534  -3.269  0.00  0.00     0.081 C 
BRANCH  23  24
HETATM   24  C           1     -21.737  -9.276  -2.315  0.00  0.00    -0.056 A 
HETATM   25  C           1     -22.298 -10.497  -2.690  0.00  0.00     0.010 A 
HETATM   26  C           1     -23.121 -11.188  -1.801  0.00  0.00     0.037 A 
HETATM   27  C           1     -23.382 -10.659  -0.537  0.00  0.00     0.065 A 
HETATM   28  C           1     -22.821  -9.439  -0.162  0.00  0.00     0.037 A 
HETATM   29  C           1     -21.999  -8.748  -1.051  0.00  0.00     0.010 A 
BRANCH  27  30
HETATM   30  O           1     -24.183 -11.331   0.327  0.00  0.00    -0.361 OA
HETATM   31  H           1     -25.050 -11.446  -0.097  0.00  0.00     0.217 HD
ENDBRANCH  27  30
ENDBRANCH  23  24
ENDBRANCH  22  23
BRANCH  22  32
HETATM   32  N           1     -21.194  -8.565  -5.713  0.00  0.00    -0.066 N 
HETATM   33  H           1     -21.967  -9.093  -6.179  0.00  0.00     0.275 HD
HETATM   34  H           1     -20.873  -7.792  -6.337  0.00  0.00     0.275 HD
HETATM   35  H           1     -20.396  -9.213  -5.522  0.00  0.00     0.275 HD
ENDBRANCH  22  32
ENDBRANCH   2  22
TORSDOF 12
ENDMDL
MODEL 2
REMARK VINA RESULT:      -8.6      1.578      2.328
REMARK  12 active torsions:
REMARK  status: ('A' for Active; 'I' for Inactive)
REMARK    1  A    between atoms: C_1  and  O_27 
REMARK    2  A    between atoms: C_3  and  C_25 
REMARK    3  A    between atoms: C_4  and  C_10 
REMARK    4  A    between atoms: C_4  and  C_5 
REMARK    5  A    between atoms: C_10  and  C_12 
REMARK    6  A    between atoms: C_10  and  N_30 
REMARK       I    between atoms: C_12  and  N_22 
REMARK    7  A    between atoms: O_18  and  P_28 
REMARK    8  A    between atoms: N_22  and  C_35 
REMARK    9  A    between atoms: C_23  and  C_35 
REMARK   10  A    between atoms: C_25  and  C_35 
REMARK   11  A    between atoms: P_28  and  O_34 
REMARK   12  A    between atoms: C_33  and  O_34 
ROOT
HETATM    1  O           1     -21.399  -5.638  -2.700  0.00  0.00    -0.271 OA
HETATM    2  C           1     -21.705  -6.701  -3.186  0.00  0.00     0.249 C 
HETATM    3  H           1     -23.461  -6.762  -4.282  0.00  0.00     0.163 HD
HETATM    4  N           1     -22.450  -6.740  -4.335  0.00  0.00    -0.344 N 
ENDROOT
BRANCH   4   5
HETATM    5  C           1     -21.791  -6.750  -5.626  0.00  0.00     0.189 C 
BRANCH   5   6
HETATM    6  C           1     -20.855  -7.930  -5.703  0.00  0.00     0.197 C 
HETATM    7  O           1     -21.315  -9.087  -5.829  0.00  0.00    -0.646 OA
HETATM    8  O           1     -19.619  -7.753  -5.638  0.00  0.00    -0.646 OA
ENDBRANCH   5   6
BRANCH   5   9
HETATM    9  C           1     -20.999  -5.461  -5.800  0.00  0.00     0.074 C 
BRANCH   9  10
HETATM   10  C           1     -21.294  -4.870  -7.145  0.00  0.00    -0.056 A 
HETATM   11  C           1     -22.519  -4.244  -7.378  0.00  0.00     0.010 A 
HETATM   12  C           1     -22.795  -3.695  -8.630  0.00  0.00     0.038 A 
HETATM   13  C           1     -21.845  -3.771  -9.648  0.00  0.00     0.081 A 
HETATM   14  C           1     -20.621  -4.397  -9.416  0.00  0.00     0.038 A 
HETATM   15  C           1     -20.345  -4.947  -8.163  0.00  0.00     0.010 A 
BRANCH  13  16
HETATM   16  O           1     -22.112  -3.237 -10.865  0.00  0.00    -0.247 OA
BRANCH  16  17
HETATM   17  P           1     -23.376  -3.816 -11.687  0.00  0.00     0.411 P 
HETATM   18  O           1     -24.574  -3.001 -11.389  0.00  0.00    -0.624 OA
HETATM   19  O           1     -23.621  -5.220 -11.288  0.00  0.00    -0.624 OA
BRANCH  17  20
HETATM   20  O           1     -23.062  -3.754 -13.270  0.00  0.00    -0.300 OA
HETATM   21  H           1     -23.825  -3.359 -13.655  0.00  0.00     0.223 HD
ENDBRANCH  17  20
ENDBRANCH  16  17
ENDBRANCH  13  16
ENDBRANCH   9  10
ENDBRANCH   5   9
ENDBRANCH   4   5
BRANCH   2  22
HETATM   22  C           1     -21.265  -7.986  -2.528  0.00  0.00     0.278 C 
BRANCH  22  23
HETATM   23  C           1     -22.003  -8.160  -1.208  0.00  0.00     0.081 C 
BRANCH  23  24
HETATM   24  C           1     -22.613  -9.525  -1.153  0.00  0.00    -0.056 A 
HETATM   25  C           1     -22.398 -10.428  -2.194  0.00  0.00     0.010 A 
HETATM   26  C           1     -22.967 -11.701  -2.142  0.00  0.00     0.037 A 
HETATM   27  C           1     -23.751 -12.070  -1.049  0.00  0.00     0.065 A 
HETATM   28  C           1     -23.967 -11.169  -0.008  0.00  0.00     0.037 A 
HETATM   29  C           1     -23.398  -9.896  -0.060  0.00  0.00     0.010 A 
BRANCH  27  30
HETATM   30  O           1     -24.304 -13.307  -1.000  0.00  0.00    -0.361 OA
HETATM   31  H           1     -25.111 -13.253  -0.461  0.00  0.00     0.217 HD
ENDBRANCH  27  30
ENDBRANCH  23  24
ENDBRANCH  22  23
BRANCH  22  32
HETATM   32  N           1     -19.788  -7.935  -2.272  0.00  0.00    -0.066 N 
HETATM   33  H           1     -19.523  -8.698  -1.608  0.00  0.00     0.275 HD
HETATM   34  H           1     -19.273  -8.062  -3.172  0.00  0.00     0.275 HD
HETATM   35  H           1     -19.538  -7.009  -1.856  0.00  0.00     0.275 HD
ENDBRANCH  22  32
ENDBRANCH   2  22
TORSDOF 12
ENDMDL
MODEL 3
REMARK VINA RESULT:      -8.4      1.948      2.495
REMARK  12 active torsions:
REMARK  status: ('A' for Active; 'I' for Inactive)
REMARK    1  A    between atoms: C_1  and  O_27 
REMARK    2  A    between atoms: C_3  and  C_25 
REMARK    3  A    between atoms: C_4  and  C_10 
REMARK    4  A    between atoms: C_4  and  C_5 
REMARK    5  A    between atoms: C_10  and  C_12 
REMARK    6  A    between atoms: C_10  and  N_30 
REMARK       I    between atoms: C_12  and  N_22 
REMARK    7  A    between atoms: O_18  and  P_28 
REMARK    8  A    between atoms: N_22  and  C_35 
REMARK    9  A    between atoms: C_23  and  C_35 
REMARK   10  A    between atoms: C_25  and  C_35 
REMARK   11  A    between atoms: P_28  and  O_34 
REMARK   12  A    between atoms: C_33  and  O_34 
ROOT
HETATM    1  O           1     -21.572  -7.652  -6.509  0.00  0.00    -0.271 OA
HETATM    2  C           1     -20.811  -6.722  -6.381  0.00  0.00     0.249 C 
HETATM    3  H           1     -19.248  -6.598  -7.732  0.00  0.00     0.163 HD
HETATM    4  N           1     -20.151  -6.223  -7.472  0.00  0.00    -0.344 N 
ENDROOT
BRANCH   4   5
HETATM    5  C           1     -20.747  -5.158  -8.256  0.00  0.00     0.189 C 
BRANCH   5   6
HETATM    6  C           1     -20.129  -3.840  -7.862  0.00  0.00     0.197 C 
HETATM    7  O           1     -18.888  -3.689  -7.918  0.00  0.00    -0.646 OA
HETATM    8  O           1     -20.856  -2.898  -7.479  0.00  0.00    -0.646 OA
ENDBRANCH   5   6
BRANCH   5   9
HETATM    9  C           1     -22.247  -5.115  -7.992  0.00  0.00     0.074 C 
BRANCH   9  10
HETATM   10  C           1     -22.953  -4.598  -9.208  0.00  0.00    -0.056 A 
HETATM   11  C           1     -24.083  -3.791  -9.069  0.00  0.00     0.010 A 
HETATM   12  C           1     -24.740  -3.311 -10.200  0.00  0.00     0.038 A 
HETATM   13  C           1     -24.268  -3.636 -11.472  0.00  0.00     0.081 A 
HETATM   14  C           1     -23.139  -4.442 -11.612  0.00  0.00     0.038 A 
HETATM   15  C           1     -22.480  -4.924 -10.480  0.00  0.00     0.010 A 
BRANCH  13  16
HETATM   16  O           1     -24.906  -3.168 -12.573  0.00  0.00    -0.247 OA
BRANCH  16  17
HETATM   17  P           1     -24.033  -2.376 -13.677  0.00  0.00     0.411 P 
HETATM   18  O           1     -23.696  -3.293 -14.789  0.00  0.00    -0.624 OA
HETATM   19  O           1     -22.788  -1.877 -13.054  0.00  0.00    -0.624 OA
BRANCH  17  20
HETATM   20  O           1     -24.889  -1.130 -14.247  0.00  0.00    -0.300 OA
HETATM   21  H           1     -24.712  -0.421 -13.653  0.00  0.00     0.223 HD
ENDBRANCH  17  20
ENDBRANCH  16  17
ENDBRANCH  13  16
ENDBRANCH   9  10
ENDBRANCH   5   9
ENDBRANCH   4   5
BRANCH   2  22
HETATM   22  C           1     -20.589  -6.110  -5.020  0.00  0.00     0.278 C 
BRANCH  22  23
HETATM   23  C           1     -21.894  -6.130  -4.234  0.00  0.00     0.081 C 
BRANCH  23  24
HETATM   24  C           1     -21.686  -6.848  -2.938  0.00  0.00    -0.056 A 
HETATM   25  C           1     -22.353  -6.421  -1.790  0.00  0.00     0.010 A 
HETATM   26  C           1     -22.159  -7.091  -0.581  0.00  0.00     0.037 A 
HETATM   27  C           1     -21.299  -8.187  -0.522  0.00  0.00     0.065 A 
HETATM   28  C           1     -20.633  -8.615  -1.669  0.00  0.00     0.037 A 
HETATM   29  C           1     -20.826  -7.945  -2.877  0.00  0.00     0.010 A 
BRANCH  27  30
HETATM   30  O           1     -21.111  -8.837   0.653  0.00  0.00    -0.361 OA
HETATM   31  H           1     -21.829  -8.580   1.256  0.00  0.00     0.217 HD
ENDBRANCH  27  30
ENDBRANCH  23  24
ENDBRANCH  22  23
BRANCH  22  32
HETATM   32  N           1     -20.123  -4.694  -5.179  0.00  0.00    -0.066 N 
HETATM   33  H           1     -20.702  -4.067  -4.576  0.00  0.00     0.275 HD
HETATM   34  H           1     -19.120  -4.623  -4.893  0.00  0.00     0.275 HD
HETATM   35  H           1     -20.221  -4.405  -6.179  0.00  0.00     0.275 HD
ENDBRANCH  22  32
ENDBRANCH   2  22
TORSDOF 12
ENDMDL
MODEL 4
REMARK VINA RESULT:      -8.3      3.594     10.227
REMARK  12 active torsions:
REMARK  status: ('A' for Active; 'I' for Inactive)
REMARK    1  A    between atoms: C_1  and  O_27 
REMARK    2  A    between atoms: C_3  and  C_25 
REMARK    3  A    between atoms: C_4  and  C_10 
REMARK    4  A    between atoms: C_4  and  C_5 
REMARK    5  A    between atoms: C_10  and  C_12 
REMARK    6  A    between atoms: C_10  and  N_30 
REMARK       I    between atoms: C_12  and  N_22 
REMARK    7  A    between atoms: O_18  and  P_28 
REMARK    8  A    between atoms: N_22  and  C_35 
REMARK    9  A    between atoms: C_23  and  C_35 
REMARK   10  A    between atoms: C_25  and  C_35 
REMARK   11  A    between atoms: P_28  and  O_34 
REMARK   12  A    between atoms: C_33  and  O_34 
ROOT
HETATM    1  O           1     -19.400  -4.864  -6.032  0.00  0.00    -0.271 OA
HETATM    2  C           1     -20.151  -5.733  -6.408  0.00  0.00     0.249 C 
HETATM    3  H           1     -19.291  -7.405  -7.275  0.00  0.00     0.163 HD
HETATM    4  N           1     -19.729  -7.036  -6.440  0.00  0.00    -0.344 N 
ENDROOT
BRANCH   4   5
HETATM    5  C           1     -19.909  -7.885  -5.279  0.00  0.00     0.189 C 
BRANCH   5   6
HETATM    6  C           1     -18.827  -8.937  -5.254  0.00  0.00     0.197 C 
HETATM    7  O           1     -18.534  -9.558  -6.299  0.00  0.00    -0.646 OA
HETATM    8  O           1     -18.224  -9.188  -4.188  0.00  0.00    -0.646 OA
ENDBRANCH   5   6
BRANCH   5   9
HETATM    9  C           1     -21.272  -8.561  -5.353  0.00  0.00     0.074 C 
BRANCH   9  10
HETATM   10  C           1     -21.597  -9.176  -4.026  0.00  0.00    -0.056 A 
HETATM   11  C           1     -22.084 -10.482  -3.963  0.00  0.00     0.010 A 
HETATM   12  C           1     -22.387 -11.055  -2.729  0.00  0.00     0.038 A 
HETATM   13  C           1     -22.203 -10.321  -1.556  0.00  0.00     0.081 A 
HETATM   14  C           1     -21.717  -9.016  -1.619  0.00  0.00     0.038 A 
HETATM   15  C           1     -21.413  -8.442  -2.854  0.00  0.00     0.010 A 
BRANCH  13  16
HETATM   16  O           1     -22.497 -10.878  -0.355  0.00  0.00    -0.247 OA
BRANCH  16  17
HETATM   17  P           1     -21.291 -11.542   0.489  0.00  0.00     0.411 P 
HETATM   18  O           1     -20.268 -12.068  -0.442  0.00  0.00    -0.624 OA
HETATM   19  O           1     -21.820 -12.647   1.318  0.00  0.00    -0.624 OA
BRANCH  17  20
HETATM   20  O           1     -20.623 -10.423   1.444  0.00  0.00    -0.300 OA
HETATM   21  H           1     -21.298 -10.194   2.059  0.00  0.00     0.223 HD
ENDBRANCH  17  20
ENDBRANCH  16  17
ENDBRANCH  13  16
ENDBRANCH   9  10
ENDBRANCH   5   9
ENDBRANCH   4   5
BRANCH   2  22
HETATM   22  C           1     -21.553  -5.384  -6.842  0.00  0.00     0.278 C 
BRANCH  22  23
HETATM   23  C           1     -21.593  -3.938  -7.320  0.00  0.00     0.081 C 
BRANCH  23  24
HETATM   24  C           1     -21.653  -3.908  -8.814  0.00  0.00    -0.056 A 
HETATM   25  C           1     -20.490  -4.091  -9.563  0.00  0.00     0.010 A 
HETATM   26  C           1     -20.547  -4.063 -10.956  0.00  0.00     0.037 A 
HETATM   27  C           1     -21.766  -3.851 -11.601  0.00  0.00     0.065 A 
HETATM   28  C           1     -22.928  -3.668 -10.853  0.00  0.00     0.037 A 
HETATM   29  C           1     -22.871  -3.696  -9.460  0.00  0.00     0.010 A 
BRANCH  27  30
HETATM   30  O           1     -21.819  -3.823 -12.956  0.00  0.00    -0.361 OA
HETATM   31  H           1     -21.803  -4.741 -13.275  0.00  0.00     0.217 HD
ENDBRANCH  27  30
ENDBRANCH  23  24
ENDBRANCH  22  23
BRANCH  22  32
HETATM   32  N           1     -22.491  -5.552  -5.683  0.00  0.00    -0.066 N 
HETATM   33  H           1     -22.892  -4.623  -5.421  0.00  0.00     0.275 HD
HETATM   34  H           1     -23.263  -6.203  -5.951  0.00  0.00     0.275 HD
HETATM   35  H           1     -21.969  -5.949  -4.868  0.00  0.00     0.275 HD
ENDBRANCH  22  32
ENDBRANCH   2  22
TORSDOF 12
ENDMDL
MODEL 5
REMARK VINA RESULT:      -7.9      4.368      9.422
REMARK  12 active torsions:
REMARK  status: ('A' for Active; 'I' for Inactive)
REMARK    1  A    between atoms: C_1  and  O_27 
REMARK    2  A    between atoms: C_3  and  C_25 
REMARK    3  A    between atoms: C_4  and  C_10 
REMARK    4  A    between atoms: C_4  and  C_5 
REMARK    5  A    between atoms: C_10  and  C_12 
REMARK    6  A    between atoms: C_10  and  N_30 
REMARK       I    between atoms: C_12  and  N_22 
REMARK    7  A    between atoms: O_18  and  P_28 
REMARK    8  A    between atoms: N_22  and  C_35 
REMARK    9  A    between atoms: C_23  and  C_35 
REMARK   10  A    between atoms: C_25  and  C_35 
REMARK   11  A    between atoms: P_28  and  O_34 
REMARK   12  A    between atoms: C_33  and  O_34 
ROOT
HETATM    1  O           1     -22.542  -6.495  -4.454  0.00  0.00    -0.271 OA
HETATM    2  C           1     -21.355  -6.645  -4.289  0.00  0.00     0.249 C 
HETATM    3  H           1     -20.653  -6.495  -2.347  0.00  0.00     0.163 HD
HETATM    4  N           1     -20.886  -7.132  -3.098  0.00  0.00    -0.344 N 
ENDROOT
BRANCH   4   5
HETATM    5  C           1     -20.724  -8.561  -2.913  0.00  0.00     0.189 C 
BRANCH   5   6
HETATM    6  C           1     -21.847  -9.086  -2.054  0.00  0.00     0.197 C 
HETATM    7  O           1     -22.368 -10.193  -2.313  0.00  0.00    -0.646 OA
HETATM    8  O           1     -22.259  -8.414  -1.084  0.00  0.00    -0.646 OA
ENDBRANCH   5   6
BRANCH   5   9
HETATM    9  C           1     -19.391  -8.835  -2.228  0.00  0.00     0.074 C 
BRANCH   9  10
HETATM   10  C           1     -18.388  -9.280  -3.248  0.00  0.00    -0.056 A 
HETATM   11  C           1     -17.042  -9.396  -2.898  0.00  0.00     0.010 A 
HETATM   12  C           1     -16.108  -9.809  -3.847  0.00  0.00     0.038 A 
HETATM   13  C           1     -16.519 -10.108  -5.146  0.00  0.00     0.081 A 
HETATM   14  C           1     -17.864  -9.992  -5.496  0.00  0.00     0.038 A 
HETATM   15  C           1     -18.799  -9.578  -4.546  0.00  0.00     0.010 A 
BRANCH  13  16
HETATM   16  O           1     -15.612 -10.511  -6.069  0.00  0.00    -0.247 OA
BRANCH  16  17
HETATM   17  P           1     -15.424 -12.097  -6.307  0.00  0.00     0.411 P 
HETATM   18  O           1     -15.669 -12.818  -5.038  0.00  0.00    -0.624 OA
HETATM   19  O           1     -14.045 -12.366  -6.769  0.00  0.00    -0.624 OA
BRANCH  17  20
HETATM   20  O           1     -16.475 -12.601  -7.424  0.00  0.00    -0.300 OA
HETATM   21  H           1     -16.435 -11.954  -8.107  0.00  0.00     0.223 HD
ENDBRANCH  17  20
ENDBRANCH  16  17
ENDBRANCH  13  16
ENDBRANCH   9  10
ENDBRANCH   5   9
ENDBRANCH   4   5
BRANCH   2  22
HETATM   22  C           1     -20.389  -6.295  -5.394  0.00  0.00     0.278 C 
BRANCH  22  23
HETATM   23  C           1     -20.390  -4.788  -5.612  0.00  0.00     0.081 C 
BRANCH  23  24
HETATM   24  C           1     -20.841  -4.485  -7.006  0.00  0.00    -0.056 A 
HETATM   25  C           1     -22.196  -4.287  -7.273  0.00  0.00     0.010 A 
HETATM   26  C           1     -22.616  -4.005  -8.573  0.00  0.00     0.037 A 
HETATM   27  C           1     -21.682  -3.921  -9.606  0.00  0.00     0.065 A 
HETATM   28  C           1     -20.328  -4.118  -9.339  0.00  0.00     0.037 A 
HETATM   29  C           1     -19.908  -4.400  -8.040  0.00  0.00     0.010 A 
BRANCH  27  30
HETATM   30  O           1     -22.092  -3.647 -10.869  0.00  0.00    -0.361 OA
HETATM   31  H           1     -22.531  -2.780 -10.860  0.00  0.00     0.217 HD
ENDBRANCH  27  30
ENDBRANCH  23  24
ENDBRANCH  22  23
BRANCH  22  32
HETATM   32  N           1     -20.807  -6.983  -6.659  0.00  0.00    -0.066 N 
HETATM   33  H           1     -20.095  -6.806  -7.404  0.00  0.00     0.275 HD
HETATM   34  H           1     -20.883  -8.012  -6.488  0.00  0.00     0.275 HD
HETATM   35  H           1     -21.734  -6.612  -6.967  0.00  0.00     0.275 HD
ENDBRANCH  22  32
ENDBRANCH   2  22
TORSDOF 12
ENDMDL
MODEL 6
REMARK VINA RESULT:      -7.9      3.794      9.036
REMARK  12 active torsions:
REMARK  status: ('A' for Active; 'I' for Inactive)
REMARK    1  A    between atoms: C_1  and  O_27 
REMARK    2  A    between atoms: C_3  and  C_25 
REMARK    3  A    between atoms: C_4  and  C_10 
REMARK    4  A    between atoms: C_4  and  C_5 
REMARK    5  A    between atoms: C_10  and  C_12 
REMARK    6  A    between atoms: C_10  and  N_30 
REMARK       I    between atoms: C_12  and  N_22 
REMARK    7  A    between atoms: O_18  and  P_28 
REMARK    8  A    between atoms: N_22  and  C_35 
REMARK    9  A    between atoms: C_23  and  C_35 
REMARK   10  A    between atoms: C_25  and  C_35 
REMARK   11  A    between atoms: P_28  and  O_34 
REMARK   12  A    between atoms: C_33  and  O_34 
ROOT
HETATM    1  O           1     -22.863  -6.246  -4.780  0.00  0.00    -0.271 OA
HETATM    2  C           1     -21.727  -6.309  -4.374  0.00  0.00     0.249 C 
HETATM    3  H           1     -21.374  -5.593  -2.463  0.00  0.00     0.163 HD
HETATM    4  N           1     -21.486  -6.424  -3.030  0.00  0.00    -0.344 N 
ENDROOT
BRANCH   4   5
HETATM    5  C           1     -21.393  -7.736  -2.420  0.00  0.00     0.189 C 
BRANCH   5   6
HETATM    6  C           1     -22.208  -7.757  -1.150  0.00  0.00     0.197 C 
HETATM    7  O           1     -22.372  -8.831  -0.530  0.00  0.00    -0.646 OA
HETATM    8  O           1     -22.720  -6.702  -0.718  0.00  0.00    -0.646 OA
ENDBRANCH   5   6
BRANCH   5   9
HETATM    9  C           1     -19.937  -8.041  -2.094  0.00  0.00     0.074 C 
BRANCH   9  10
HETATM   10  C           1     -19.475  -9.206  -2.915  0.00  0.00    -0.056 A 
HETATM   11  C           1     -18.112  -9.397  -3.150  0.00  0.00     0.010 A 
HETATM   12  C           1     -17.682 -10.480  -3.915  0.00  0.00     0.038 A 
HETATM   13  C           1     -18.614 -11.374  -4.443  0.00  0.00     0.081 A 
HETATM   14  C           1     -19.975 -11.183  -4.209  0.00  0.00     0.038 A 
HETATM   15  C           1     -20.406 -10.099  -3.444  0.00  0.00     0.010 A 
BRANCH  13  16
HETATM   16  O           1     -18.196 -12.428  -5.187  0.00  0.00    -0.247 OA
BRANCH  16  17
HETATM   17  P           1     -18.428 -12.370  -6.784  0.00  0.00     0.411 P 
HETATM   18  O           1     -18.643 -10.966  -7.200  0.00  0.00    -0.624 OA
HETATM   19  O           1     -19.615 -13.178  -7.139  0.00  0.00    -0.624 OA
BRANCH  17  20
HETATM   20  O           1     -17.128 -12.961  -7.538  0.00  0.00    -0.300 OA
HETATM   21  H           1     -17.307 -13.878  -7.650  0.00  0.00     0.223 HD
ENDBRANCH  17  20
ENDBRANCH  16  17
ENDBRANCH  13  16
ENDBRANCH   9  10
ENDBRANCH   5   9
ENDBRANCH   4   5
BRANCH   2  22
HETATM   22  C           1     -20.574  -6.262  -5.345  0.00  0.00     0.278 C 
BRANCH  22  23
HETATM   23  C           1     -20.260  -4.813  -5.693  0.00  0.00     0.081 C 
BRANCH  23  24
HETATM   24  C           1     -20.697  -4.531  -7.096  0.00  0.00    -0.056 A 
HETATM   25  C           1     -19.798  -4.687  -8.152  0.00  0.00     0.010 A 
HETATM   26  C           1     -20.206  -4.424  -9.459  0.00  0.00     0.037 A 
HETATM   27  C           1     -21.512  -4.004  -9.712  0.00  0.00     0.065 A 
HETATM   28  C           1     -22.411  -3.848  -8.658  0.00  0.00     0.037 A 
HETATM   29  C           1     -22.003  -4.111  -7.350  0.00  0.00     0.010 A 
BRANCH  27  30
HETATM   30  O           1     -21.907  -3.748 -10.983  0.00  0.00    -0.361 OA
HETATM   31  H           1     -22.022  -4.599 -11.439  0.00  0.00     0.217 HD
ENDBRANCH  27  30
ENDBRANCH  23  24
ENDBRANCH  22  23
BRANCH  22  32
HETATM   32  N           1     -20.942  -7.008  -6.593  0.00  0.00    -0.066 N 
HETATM   33  H           1     -21.962  -6.887  -6.783  0.00  0.00     0.275 HD
HETATM   34  H           1     -20.390  -6.633  -7.399  0.00  0.00     0.275 HD
HETATM   35  H           1     -20.728  -8.023  -6.468  0.00  0.00     0.275 HD
ENDBRANCH  22  32
ENDBRANCH   2  22
TORSDOF 12
ENDMDL
MODEL 7
REMARK VINA RESULT:      -7.6      7.277     10.370
REMARK  12 active torsions:
REMARK  status: ('A' for Active; 'I' for Inactive)
REMARK    1  A    between atoms: C_1  and  O_27 
REMARK    2  A    between atoms: C_3  and  C_25 
REMARK    3  A    between atoms: C_4  and  C_10 
REMARK    4  A    between atoms: C_4  and  C_5 
REMARK    5  A    between atoms: C_10  and  C_12 
REMARK    6  A    between atoms: C_10  and  N_30 
REMARK       I    between atoms: C_12  and  N_22 
REMARK    7  A    between atoms: O_18  and  P_28 
REMARK    8  A    between atoms: N_22  and  C_35 
REMARK    9  A    between atoms: C_23  and  C_35 
REMARK   10  A    between atoms: C_25  and  C_35 
REMARK   11  A    between atoms: P_28  and  O_34 
REMARK   12  A    between atoms: C_33  and  O_34 
ROOT
HETATM    1  O           1     -18.464 -10.553  -4.945  0.00  0.00    -0.271 OA
HETATM    2  C           1     -19.322 -10.191  -4.175  0.00  0.00     0.249 C 
HETATM    3  H           1     -21.013  -9.322  -4.996  0.00  0.00     0.163 HD
HETATM    4  N           1     -20.632 -10.160  -4.574  0.00  0.00    -0.344 N 
ENDROOT
BRANCH   4   5
HETATM    5  C           1     -21.473 -11.327  -4.394  0.00  0.00     0.189 C 
BRANCH   5   6
HETATM    6  C           1     -21.811 -11.914  -5.742  0.00  0.00     0.197 C 
HETATM    7  O           1     -22.650 -12.838  -5.830  0.00  0.00    -0.646 OA
HETATM    8  O           1     -21.252 -11.478  -6.772  0.00  0.00    -0.646 OA
ENDBRANCH   5   6
BRANCH   5   9
HETATM    9  C           1     -22.756 -10.922  -3.680  0.00  0.00     0.074 C 
BRANCH   9  10
HETATM   10  C           1     -22.749 -11.477  -2.289  0.00  0.00    -0.056 A 
HETATM   11  C           1     -23.810 -11.203  -1.424  0.00  0.00     0.010 A 
HETATM   12  C           1     -23.803 -11.718  -0.128  0.00  0.00     0.038 A 
HETATM   13  C           1     -22.738 -12.508   0.302  0.00  0.00     0.081 A 
HETATM   14  C           1     -21.678 -12.782  -0.561  0.00  0.00     0.038 A 
HETATM   15  C           1     -21.683 -12.266  -1.858  0.00  0.00     0.010 A 
BRANCH  13  16
HETATM   16  O           1     -22.732 -13.010   1.562  0.00  0.00    -0.247 OA
BRANCH  16  17
HETATM   17  P           1     -23.167 -14.552   1.766  0.00  0.00     0.411 P 
HETATM   18  O           1     -21.959 -15.406   1.798  0.00  0.00    -0.624 OA
HETATM   19  O           1     -24.038 -14.970   0.646  0.00  0.00    -0.624 OA
BRANCH  17  20
HETATM   20  O           1     -23.970 -14.704   3.159  0.00  0.00    -0.300 OA
HETATM   21  H           1     -24.862 -14.484   2.952  0.00  0.00     0.223 HD
ENDBRANCH  17  20
ENDBRANCH  16  17
ENDBRANCH  13  16
ENDBRANCH   9  10
ENDBRANCH   5   9
ENDBRANCH   4   5
BRANCH   2  22
HETATM   22  C           1     -18.950  -9.773  -2.773  0.00  0.00     0.278 C 
BRANCH  22  23
HETATM   23  C           1     -19.245  -8.290  -2.589  0.00  0.00     0.081 C 
BRANCH  23  24
HETATM   24  C           1     -20.440  -8.124  -1.705  0.00  0.00    -0.056 A 
HETATM   25  C           1     -20.642  -8.996  -0.634  0.00  0.00     0.010 A 
HETATM   26  C           1     -21.756  -8.840   0.190  0.00  0.00     0.037 A 
HETATM   27  C           1     -22.669  -7.814  -0.056  0.00  0.00     0.065 A 
HETATM   28  C           1     -22.467  -6.943  -1.125  0.00  0.00     0.037 A 
HETATM   29  C           1     -21.353  -7.098  -1.950  0.00  0.00     0.010 A 
BRANCH  27  30
HETATM   30  O           1     -23.752  -7.664   0.746  0.00  0.00    -0.361 OA
HETATM   31  H           1     -23.435  -7.519   1.654  0.00  0.00     0.217 HD
ENDBRANCH  27  30
ENDBRANCH  23  24
ENDBRANCH  22  23
BRANCH  22  32
HETATM   32  N           1     -17.489 -10.024  -2.548  0.00  0.00    -0.066 N 
HETATM   33  H           1     -17.368 -10.681  -1.744  0.00  0.00     0.275 HD
HETATM   34  H           1     -17.071 -10.445  -3.409  0.00  0.00     0.275 HD
HETATM   35  H           1     -17.009  -9.120  -2.335  0.00  0.00     0.275 HD
ENDBRANCH  22  32
ENDBRANCH   2  22
TORSDOF 12
ENDMDL
MODEL 8
REMARK VINA RESULT:      -7.6      4.339      5.974
REMARK  12 active torsions:
REMARK  status: ('A' for Active; 'I' for Inactive)
REMARK    1  A    between atoms: C_1  and  O_27 
REMARK    2  A    between atoms: C_3  and  C_25 
REMARK    3  A    between atoms: C_4  and  C_10 
REMARK    4  A    between atoms: C_4  and  C_5 
REMARK    5  A    between atoms: C_10  and  C_12 
REMARK    6  A    between atoms: C_10  and  N_30 
REMARK       I    between atoms: C_12  and  N_22 
REMARK    7  A    between atoms: O_18  and  P_28 
REMARK    8  A    between atoms: N_22  and  C_35 
REMARK    9  A    between atoms: C_23  and  C_35 
REMARK   10  A    between atoms: C_25  and  C_35 
REMARK   11  A    between atoms: P_28  and  O_34 
REMARK   12  A    between atoms: C_33  and  O_34 
ROOT
HETATM    1  O           1     -19.853 -13.085  -4.488  0.00  0.00    -0.271 OA
HETATM    2  C           1     -20.129 -12.333  -3.584  0.00  0.00     0.249 C 
HETATM    3  H           1     -18.674 -12.030  -2.141  0.00  0.00     0.163 HD
HETATM    4  N           1     -19.136 -11.633  -2.950  0.00  0.00    -0.344 N 
ENDROOT
BRANCH   4   5
HETATM    5  C           1     -18.747 -10.324  -3.437  0.00  0.00     0.189 C 
BRANCH   5   6
HETATM    6  C           1     -17.243 -10.205  -3.408  0.00  0.00     0.197 C 
HETATM    7  O           1     -16.697  -9.345  -2.683  0.00  0.00    -0.646 OA
HETATM    8  O           1     -16.543 -10.966  -4.111  0.00  0.00    -0.646 OA
ENDBRANCH   5   6
BRANCH   5   9
HETATM    9  C           1     -19.359  -9.249  -2.547  0.00  0.00     0.074 C 
BRANCH   9  10
HETATM   10  C           1     -20.191  -8.325  -3.381  0.00  0.00    -0.056 A 
HETATM   11  C           1     -20.294  -8.529  -4.758  0.00  0.00     0.010 A 
HETATM   12  C           1     -21.068  -7.667  -5.534  0.00  0.00     0.038 A 
HETATM   13  C           1     -21.740  -6.602  -4.934  0.00  0.00     0.081 A 
HETATM   14  C           1     -21.637  -6.398  -3.559  0.00  0.00     0.038 A 
HETATM   15  C           1     -20.862  -7.259  -2.781  0.00  0.00     0.010 A 
BRANCH  13  16
HETATM   16  O           1     -22.494  -5.765  -5.689  0.00  0.00    -0.247 OA
BRANCH  16  17
HETATM   17  P           1     -21.747  -4.878  -6.813  0.00  0.00     0.411 P 
HETATM   18  O           1     -21.258  -5.761  -7.894  0.00  0.00    -0.624 OA
HETATM   19  O           1     -20.602  -4.169  -6.200  0.00  0.00    -0.624 OA
BRANCH  17  20
HETATM   20  O           1     -22.783  -3.801  -7.424  0.00  0.00    -0.300 OA
HETATM   21  H           1     -22.654  -3.839  -8.356  0.00  0.00     0.223 HD
ENDBRANCH  17  20
ENDBRANCH  16  17
ENDBRANCH  13  16
ENDBRANCH   9  10
ENDBRANCH   5   9
ENDBRANCH   4   5
BRANCH   2  22
HETATM   22  C           1     -21.565 -12.163  -3.153  0.00  0.00     0.278 C 
BRANCH  22  23
HETATM   23  C           1     -21.701 -12.533  -1.682  0.00  0.00     0.081 C 
BRANCH  23  24
HETATM   24  C           1     -21.756 -11.286  -0.856  0.00  0.00    -0.056 A 
HETATM   25  C           1     -20.850 -11.102   0.189  0.00  0.00     0.010 A 
HETATM   26  C           1     -20.901  -9.939   0.958  0.00  0.00     0.037 A 
HETATM   27  C           1     -21.857  -8.961   0.682  0.00  0.00     0.065 A 
HETATM   28  C           1     -22.762  -9.145  -0.362  0.00  0.00     0.037 A 
HETATM   29  C           1     -22.711 -10.308  -1.131  0.00  0.00     0.010 A 
BRANCH  27  30
HETATM   30  O           1     -21.906  -7.832   1.431  0.00  0.00    -0.361 OA
HETATM   31  H           1     -22.826  -7.704   1.720  0.00  0.00     0.217 HD
ENDBRANCH  27  30
ENDBRANCH  23  24
ENDBRANCH  22  23
BRANCH  22  32
HETATM   32  N           1     -22.442 -13.058  -3.977  0.00  0.00    -0.066 N 
HETATM   33  H           1     -21.952 -13.965  -4.147  0.00  0.00     0.275 HD
HETATM   34  H           1     -23.337 -13.236  -3.466  0.00  0.00     0.275 HD
HETATM   35  H           1     -22.649 -12.596  -4.891  0.00  0.00     0.275 HD
ENDBRANCH  22  32
ENDBRANCH   2  22
TORSDOF 12
ENDMDL
MODEL 9
REMARK VINA RESULT:      -7.5      6.289     10.144
REMARK  12 active torsions:
REMARK  status: ('A' for Active; 'I' for Inactive)
REMARK    1  A    between atoms: C_1  and  O_27 
REMARK    2  A    between atoms: C_3  and  C_25 
REMARK    3  A    between atoms: C_4  and  C_10 
REMARK    4  A    between atoms: C_4  and  C_5 
REMARK    5  A    between atoms: C_10  and  C_12 
REMARK    6  A    between atoms: C_10  and  N_30 
REMARK       I    between atoms: C_12  and  N_22 
REMARK    7  A    between atoms: O_18  and  P_28 
REMARK    8  A    between atoms: N_22  and  C_35 
REMARK    9  A    between atoms: C_23  and  C_35 
REMARK   10  A    between atoms: C_25  and  C_35 
REMARK   11  A    between atoms: P_28  and  O_34 
REMARK   12  A    between atoms: C_33  and  O_34 
ROOT
HETATM    1  O           1     -21.536  -7.795  -5.149  0.00  0.00    -0.271 OA
HETATM    2  C           1     -20.855  -8.341  -4.314  0.00  0.00     0.249 C 
HETATM    3  H           1     -19.918  -7.123  -2.927  0.00  0.00     0.163 HD
HETATM    4  N           1     -20.686  -7.763  -3.084  0.00  0.00    -0.344 N 
ENDROOT
BRANCH   4   5
HETATM    5  C           1     -21.609  -8.066  -2.007  0.00  0.00     0.189 C 
BRANCH   5   6
HETATM    6  C           1     -22.274  -6.794  -1.543  0.00  0.00     0.197 C 
HETATM    7  O           1     -22.728  -6.714  -0.381  0.00  0.00    -0.646 OA
HETATM    8  O           1     -22.373  -5.821  -2.321  0.00  0.00    -0.646 OA
ENDBRANCH   5   6
BRANCH   5   9
HETATM    9  C           1     -20.845  -8.693  -0.847  0.00  0.00     0.074 C 
BRANCH   9  10
HETATM   10  C           1     -21.556  -9.930  -0.391  0.00  0.00    -0.056 A 
HETATM   11  C           1     -20.857 -10.921   0.298  0.00  0.00     0.010 A 
HETATM   12  C           1     -21.519 -12.073   0.722  0.00  0.00     0.038 A 
HETATM   13  C           1     -22.879 -12.233   0.458  0.00  0.00     0.081 A 
HETATM   14  C           1     -23.577 -11.242  -0.231  0.00  0.00     0.038 A 
HETATM   15  C           1     -22.916 -10.089  -0.656  0.00  0.00     0.010 A 
BRANCH  13  16
HETATM   16  O           1     -23.523 -13.353   0.871  0.00  0.00    -0.247 OA
BRANCH  16  17
HETATM   17  P           1     -23.570 -14.615  -0.135  0.00  0.00     0.411 P 
HETATM   18  O           1     -24.502 -15.634   0.396  0.00  0.00    -0.624 OA
HETATM   19  O           1     -22.216 -15.199  -0.256  0.00  0.00    -0.624 OA
BRANCH  17  20
HETATM   20  O           1     -24.078 -14.126  -1.588  0.00  0.00    -0.300 OA
HETATM   21  H           1     -23.509 -14.554  -2.203  0.00  0.00     0.223 HD
ENDBRANCH  17  20
ENDBRANCH  16  17
ENDBRANCH  13  16
ENDBRANCH   9  10
ENDBRANCH   5   9
ENDBRANCH   4   5
BRANCH   2  22
HETATM   22  C           1     -20.192  -9.659  -4.626  0.00  0.00     0.278 C 
BRANCH  22  23
HETATM   23  C           1     -18.703  -9.437  -4.858  0.00  0.00     0.081 C 
BRANCH  23  24
HETATM   24  C           1     -17.927 -10.022  -3.720  0.00  0.00    -0.056 A 
HETATM   25  C           1     -18.547 -10.902  -2.833  0.00  0.00     0.010 A 
HETATM   26  C           1     -17.823 -11.448  -1.772  0.00  0.00     0.037 A 
HETATM   27  C           1     -16.480 -11.113  -1.599  0.00  0.00     0.065 A 
HETATM   28  C           1     -15.860 -10.233  -2.486  0.00  0.00     0.037 A 
HETATM   29  C           1     -16.584  -9.688  -3.546  0.00  0.00     0.010 A 
BRANCH  27  30
HETATM   30  O           1     -15.777 -11.643  -0.568  0.00  0.00    -0.361 OA
HETATM   31  H           1     -14.834 -11.468  -0.727  0.00  0.00     0.217 HD
ENDBRANCH  27  30
ENDBRANCH  23  24
ENDBRANCH  22  23
BRANCH  22  32
HETATM   32  N           1     -20.807 -10.249  -5.860  0.00  0.00    -0.066 N 
HETATM   33  H           1     -20.425 -11.209  -6.015  0.00  0.00     0.275 HD
HETATM   34  H           1     -21.844 -10.302  -5.741  0.00  0.00     0.275 HD
HETATM   35  H           1     -20.581  -9.646  -6.684  0.00  0.00     0.275 HD
ENDBRANCH  22  32
ENDBRANCH   2  22
TORSDOF 12
ENDMDL
