MODEL 1
REMARK VINA RESULT:      -7.7      0.000      0.000
REMARK  13 active torsions:
REMARK  status: ('A' for Active; 'I' for Inactive)
REMARK    1  A    between atoms: P_1  and  O_28 
REMARK    2  A    between atoms: P_1  and  O_2 
REMARK    3  A    between atoms: C_4  and  C_15 
REMARK    4  A    between atoms: C_7  and  C_24 
REMARK    5  A    between atoms: C_7  and  C_9 
REMARK    6  A    between atoms: N_8  and  C_24 
REMARK    7  A    between atoms: C_9  and  C_16 
REMARK    8  A    between atoms: C_15  and  C_20 
REMARK    9  A    between atoms: C_16  and  N_17 
REMARK   10  A    between atoms: C_20  and  C_29 
REMARK   11  A    between atoms: C_20  and  N_26 
REMARK       I    between atoms: C_23  and  N_26 
REMARK   12  A    between atoms: C_23  and  C_24 
REMARK   13  A    between atoms: C_25  and  O_28 
ROOT
HETATM    1  C           1     -32.413  -4.465 -16.278  0.00  0.00     0.189 C 
ENDROOT
BRANCH   1   2
HETATM    2  C           1     -32.019  -5.747 -16.999  0.00  0.00     0.074 C 
BRANCH   2   3
HETATM    3  C           1     -30.656  -6.174 -16.552  0.00  0.00    -0.056 A 
HETATM    4  C           1     -30.055  -5.551 -15.458  0.00  0.00     0.010 A 
HETATM    5  C           1     -28.784  -5.950 -15.042  0.00  0.00     0.038 A 
HETATM    6  C           1     -28.115  -6.969 -15.720  0.00  0.00     0.081 A 
HETATM    7  C           1     -28.717  -7.590 -16.814  0.00  0.00     0.038 A 
HETATM    8  C           1     -29.987  -7.193 -17.230  0.00  0.00     0.010 A 
BRANCH   6   9
HETATM    9  O           1     -26.880  -7.355 -15.315  0.00  0.00    -0.247 OA
BRANCH   9  10
HETATM   10  P           1     -25.601  -6.672 -16.025  0.00  0.00     0.411 P 
HETATM   11  O           1     -26.026  -6.013 -17.280  0.00  0.00    -0.624 OA
HETATM   12  O           1     -24.594  -7.712 -16.332  0.00  0.00    -0.624 OA
BRANCH  10  13
HETATM   13  O           1     -24.957  -5.572 -15.032  0.00  0.00    -0.300 OA
HETATM   14  H           1     -24.954  -4.770 -15.526  0.00  0.00     0.223 HD
ENDBRANCH  10  13
ENDBRANCH   9  10
ENDBRANCH   6   9
ENDBRANCH   2   3
ENDBRANCH   1   2
BRANCH   1  15
HETATM   15  C           1     -32.401  -3.314 -17.254  0.00  0.00     0.197 C 
HETATM   16  O           1     -31.319  -2.904 -17.725  0.00  0.00    -0.646 OA
HETATM   17  O           1     -33.475  -2.771 -17.592  0.00  0.00    -0.646 OA
ENDBRANCH   1  15
BRANCH   1  18
HETATM   18  N           1     -33.744  -4.612 -15.721  0.00  0.00    -0.344 N 
HETATM   19  H           1     -34.422  -5.204 -16.182  0.00  0.00     0.163 HD
HETATM   20  C           1     -34.081  -3.951 -14.571  0.00  0.00     0.249 C 
HETATM   21  O           1     -34.557  -2.843 -14.629  0.00  0.00    -0.271 OA
BRANCH  20  22
HETATM   22  C           1     -33.857  -4.607 -13.230  0.00  0.00     0.274 C 
BRANCH  22  23
HETATM   23  C           1     -34.689  -3.897 -12.171  0.00  0.00     0.044 C 
BRANCH  23  24
HETATM   24  C           1     -33.854  -3.705 -10.912  0.00  0.00     0.030 C 
BRANCH  24  25
HETATM   25  C           1     -33.824  -2.229 -10.542  0.00  0.00     0.230 C 
BRANCH  25  26
HETATM   26  N           1     -34.340  -1.413 -11.689  0.00  0.00    -0.079 N 
HETATM   27  H           1     -35.379  -1.507 -11.745  0.00  0.00     0.274 HD
HETATM   28  H           1     -34.088  -0.409 -11.546  0.00  0.00     0.274 HD
HETATM   29  H           1     -33.911  -1.755 -12.579  0.00  0.00     0.274 HD
ENDBRANCH  25  26
ENDBRANCH  24  25
ENDBRANCH  23  24
ENDBRANCH  22  23
BRANCH  22  30
HETATM   30  N           1     -32.405  -4.519 -12.867  0.00  0.00    -0.067 N 
HETATM   31  H           1     -32.184  -5.236 -12.140  0.00  0.00     0.275 HD
HETATM   32  H           1     -32.197  -3.566 -12.491  0.00  0.00     0.275 HD
HETATM   33  H           1     -31.822  -4.692 -13.717  0.00  0.00     0.275 HD
ENDBRANCH  22  30
ENDBRANCH  20  22
ENDBRANCH   1  18
TORSDOF 13
ENDMDL
MODEL 2
REMARK VINA RESULT:      -7.3      0.979      2.077
REMARK  13 active torsions:
REMARK  status: ('A' for Active; 'I' for Inactive)
REMARK    1  A    between atoms: P_1  and  O_28 
REMARK    2  A    between atoms: P_1  and  O_2 
REMARK    3  A    between atoms: C_4  and  C_15 
REMARK    4  A    between atoms: C_7  and  C_24 
REMARK    5  A    between atoms: C_7  and  C_9 
REMARK    6  A    between atoms: N_8  and  C_24 
REMARK    7  A    between atoms: C_9  and  C_16 
REMARK    8  A    between atoms: C_15  and  C_20 
REMARK    9  A    between atoms: C_16  and  N_17 
REMARK   10  A    between atoms: C_20  and  C_29 
REMARK   11  A    between atoms: C_20  and  N_26 
REMARK       I    between atoms: C_23  and  N_26 
REMARK   12  A    between atoms: C_23  and  C_24 
REMARK   13  A    between atoms: C_25  and  O_28 
ROOT
HETATM    1  C           1     -32.347  -4.521 -16.371  0.00  0.00     0.189 C 
ENDROOT
BRANCH   1   2
HETATM    2  C           1     -31.961  -5.804 -17.096  0.00  0.00     0.074 C 
BRANCH   2   3
HETATM    3  C           1     -30.600  -6.240 -16.649  0.00  0.00    -0.056 A 
HETATM    4  C           1     -29.958  -7.294 -17.298  0.00  0.00     0.010 A 
HETATM    5  C           1     -28.690  -7.700 -16.881  0.00  0.00     0.038 A 
HETATM    6  C           1     -28.066  -7.053 -15.815  0.00  0.00     0.081 A 
HETATM    7  C           1     -28.709  -5.999 -15.166  0.00  0.00     0.038 A 
HETATM    8  C           1     -29.977  -5.593 -15.583  0.00  0.00     0.010 A 
BRANCH   6   9
HETATM    9  O           1     -26.834  -7.448 -15.410  0.00  0.00    -0.247 OA
BRANCH   9  10
HETATM   10  P           1     -25.551  -6.724 -16.070  0.00  0.00     0.411 P 
HETATM   11  O           1     -25.182  -5.540 -15.263  0.00  0.00    -0.624 OA
HETATM   12  O           1     -25.881  -6.297 -17.449  0.00  0.00    -0.624 OA
BRANCH  10  13
HETATM   13  O           1     -24.310  -7.757 -16.107  0.00  0.00    -0.300 OA
HETATM   14  H           1     -23.664  -7.344 -16.654  0.00  0.00     0.223 HD
ENDBRANCH  10  13
ENDBRANCH   9  10
ENDBRANCH   6   9
ENDBRANCH   2   3
ENDBRANCH   1   2
BRANCH   1  15
HETATM   15  C           1     -32.394  -3.380 -17.356  0.00  0.00     0.197 C 
HETATM   16  O           1     -33.493  -2.880 -17.681  0.00  0.00    -0.646 OA
HETATM   17  O           1     -31.335  -2.934 -17.848  0.00  0.00    -0.646 OA
ENDBRANCH   1  15
BRANCH   1  18
HETATM   18  N           1     -33.651  -4.686 -15.759  0.00  0.00    -0.344 N 
HETATM   19  H           1     -34.243  -5.460 -16.030  0.00  0.00     0.163 HD
HETATM   20  C           1     -34.080  -3.794 -14.813  0.00  0.00     0.249 C 
HETATM   21  O           1     -34.696  -2.811 -15.146  0.00  0.00    -0.271 OA
BRANCH  20  22
HETATM   22  C           1     -33.783  -4.040 -13.354  0.00  0.00     0.274 C 
BRANCH  22  23
HETATM   23  C           1     -34.691  -5.145 -12.830  0.00  0.00     0.044 C 
BRANCH  23  24
HETATM   24  C           1     -34.849  -5.001 -11.322  0.00  0.00     0.030 C 
BRANCH  24  25
HETATM   25  C           1     -34.488  -6.316 -10.645  0.00  0.00     0.230 C 
BRANCH  25  26
HETATM   26  N           1     -33.108  -6.730 -11.059  0.00  0.00    -0.079 N 
HETATM   27  H           1     -32.888  -7.667 -10.651  0.00  0.00     0.274 HD
HETATM   28  H           1     -33.056  -6.784 -12.102  0.00  0.00     0.274 HD
HETATM   29  H           1     -32.415  -6.028 -10.713  0.00  0.00     0.274 HD
ENDBRANCH  25  26
ENDBRANCH  24  25
ENDBRANCH  23  24
ENDBRANCH  22  23
BRANCH  22  30
HETATM   30  N           1     -34.026  -2.782 -12.575  0.00  0.00    -0.067 N 
HETATM   31  H           1     -35.032  -2.734 -12.298  0.00  0.00     0.275 HD
HETATM   32  H           1     -33.787  -1.954 -13.166  0.00  0.00     0.275 HD
HETATM   33  H           1     -33.427  -2.782 -11.718  0.00  0.00     0.275 HD
ENDBRANCH  22  30
ENDBRANCH  20  22
ENDBRANCH   1  18
TORSDOF 13
ENDMDL
MODEL 3
REMARK VINA RESULT:      -7.1     12.018     14.333
REMARK  13 active torsions:
REMARK  status: ('A' for Active; 'I' for Inactive)
REMARK    1  A    between atoms: P_1  and  O_28 
REMARK    2  A    between atoms: P_1  and  O_2 
REMARK    3  A    between atoms: C_4  and  C_15 
REMARK    4  A    between atoms: C_7  and  C_24 
REMARK    5  A    between atoms: C_7  and  C_9 
REMARK    6  A    between atoms: N_8  and  C_24 
REMARK    7  A    between atoms: C_9  and  C_16 
REMARK    8  A    between atoms: C_15  and  C_20 
REMARK    9  A    between atoms: C_16  and  N_17 
REMARK   10  A    between atoms: C_20  and  C_29 
REMARK   11  A    between atoms: C_20  and  N_26 
REMARK       I    between atoms: C_23  and  N_26 
REMARK   12  A    between atoms: C_23  and  C_24 
REMARK   13  A    between atoms: C_25  and  O_28 
ROOT
HETATM    1  C           1     -21.607  -6.844  -5.407  0.00  0.00     0.189 C 
ENDROOT
BRANCH   1   2
HETATM    2  C           1     -20.610  -5.755  -5.782  0.00  0.00     0.074 C 
BRANCH   2   3
HETATM    3  C           1     -21.030  -5.116  -7.069  0.00  0.00    -0.056 A 
HETATM    4  C           1     -22.273  -4.492  -7.166  0.00  0.00     0.010 A 
HETATM    5  C           1     -22.662  -3.897  -8.366  0.00  0.00     0.038 A 
HETATM    6  C           1     -21.809  -3.927  -9.469  0.00  0.00     0.081 A 
HETATM    7  C           1     -20.566  -4.551  -9.371  0.00  0.00     0.038 A 
HETATM    8  C           1     -20.176  -5.146  -8.172  0.00  0.00     0.010 A 
BRANCH   6   9
HETATM    9  O           1     -22.188  -3.349 -10.635  0.00  0.00    -0.247 OA
BRANCH   9  10
HETATM   10  P           1     -23.501  -3.927 -11.376  0.00  0.00     0.411 P 
HETATM   11  O           1     -24.667  -3.076 -11.052  0.00  0.00    -0.624 OA
HETATM   12  O           1     -23.758  -5.310 -10.915  0.00  0.00    -0.624 OA
BRANCH  10  13
HETATM   13  O           1     -23.261  -3.926 -12.974  0.00  0.00    -0.300 OA
HETATM   14  H           1     -24.107  -4.106 -13.347  0.00  0.00     0.223 HD
ENDBRANCH  10  13
ENDBRANCH   9  10
ENDBRANCH   6   9
ENDBRANCH   2   3
ENDBRANCH   1   2
BRANCH   1  15
HETATM   15  C           1     -20.866  -8.122  -5.101  0.00  0.00     0.197 C 
HETATM   16  O           1     -21.487  -9.204  -5.035  0.00  0.00    -0.646 OA
HETATM   17  O           1     -19.631  -8.098  -4.914  0.00  0.00    -0.646 OA
ENDBRANCH   1  15
BRANCH   1  18
HETATM   18  N           1     -22.358  -6.430  -4.237  0.00  0.00    -0.344 N 
HETATM   19  H           1     -23.344  -6.220  -4.317  0.00  0.00     0.163 HD
HETATM   20  C           1     -21.732  -6.324  -3.024  0.00  0.00     0.249 C 
HETATM   21  O           1     -21.226  -5.278  -2.695  0.00  0.00    -0.271 OA
BRANCH  20  22
HETATM   22  C           1     -21.675  -7.515  -2.099  0.00  0.00     0.274 C 
BRANCH  22  23
HETATM   23  C           1     -22.380  -7.177  -0.792  0.00  0.00     0.044 C 
BRANCH  23  24
HETATM   24  C           1     -22.121  -8.281   0.225  0.00  0.00     0.030 C 
BRANCH  24  25
HETATM   25  C           1     -23.002  -9.482  -0.092  0.00  0.00     0.230 C 
BRANCH  25  26
HETATM   26  N           1     -22.167 -10.727  -0.099  0.00  0.00    -0.079 N 
HETATM   27  H           1     -21.215 -10.511   0.274  0.00  0.00     0.274 HD
HETATM   28  H           1     -22.619 -11.455   0.500  0.00  0.00     0.274 HD
HETATM   29  H           1     -22.085 -11.085  -1.078  0.00  0.00     0.274 HD
ENDBRANCH  25  26
ENDBRANCH  24  25
ENDBRANCH  23  24
ENDBRANCH  22  23
BRANCH  22  30
HETATM   30  N           1     -20.243  -7.862  -1.819  0.00  0.00    -0.067 N 
HETATM   31  H           1     -19.647  -7.016  -1.957  0.00  0.00     0.275 HD
HETATM   32  H           1     -19.933  -8.617  -2.472  0.00  0.00     0.275 HD
HETATM   33  H           1     -20.152  -8.197  -0.834  0.00  0.00     0.275 HD
ENDBRANCH  22  30
ENDBRANCH  20  22
ENDBRANCH   1  18
TORSDOF 13
ENDMDL
MODEL 4
REMARK VINA RESULT:      -7.0     10.703     13.244
REMARK  13 active torsions:
REMARK  status: ('A' for Active; 'I' for Inactive)
REMARK    1  A    between atoms: P_1  and  O_28 
REMARK    2  A    between atoms: P_1  and  O_2 
REMARK    3  A    between atoms: C_4  and  C_15 
REMARK    4  A    between atoms: C_7  and  C_24 
REMARK    5  A    between atoms: C_7  and  C_9 
REMARK    6  A    between atoms: N_8  and  C_24 
REMARK    7  A    between atoms: C_9  and  C_16 
REMARK    8  A    between atoms: C_15  and  C_20 
REMARK    9  A    between atoms: C_16  and  N_17 
REMARK   10  A    between atoms: C_20  and  C_29 
REMARK   11  A    between atoms: C_20  and  N_26 
REMARK       I    between atoms: C_23  and  N_26 
REMARK   12  A    between atoms: C_23  and  C_24 
REMARK   13  A    between atoms: C_25  and  O_28 
ROOT
HETATM    1  C           1     -21.589  -5.563  -6.618  0.00  0.00     0.189 C 
ENDROOT
BRANCH   1   2
HETATM    2  C           1     -22.002  -4.175  -7.090  0.00  0.00     0.074 C 
BRANCH   2   3
HETATM    3  C           1     -22.457  -4.247  -8.514  0.00  0.00    -0.056 A 
HETATM    4  C           1     -23.813  -4.137  -8.819  0.00  0.00     0.010 A 
HETATM    5  C           1     -24.236  -4.204 -10.147  0.00  0.00     0.038 A 
HETATM    6  C           1     -23.303  -4.382 -11.169  0.00  0.00     0.081 A 
HETATM    7  C           1     -21.947  -4.493 -10.862  0.00  0.00     0.038 A 
HETATM    8  C           1     -21.524  -4.425  -9.535  0.00  0.00     0.010 A 
BRANCH   6   9
HETATM    9  O           1     -23.715  -4.448 -12.458  0.00  0.00    -0.247 OA
BRANCH   9  10
HETATM   10  P           1     -23.849  -3.066 -13.282  0.00  0.00     0.411 P 
HETATM   11  O           1     -22.864  -2.087 -12.770  0.00  0.00    -0.624 OA
HETATM   12  O           1     -25.216  -2.523 -13.115  0.00  0.00    -0.624 OA
BRANCH  10  13
HETATM   13  O           1     -23.567  -3.343 -14.848  0.00  0.00    -0.300 OA
HETATM   14  H           1     -23.163  -4.193 -14.876  0.00  0.00     0.223 HD
ENDBRANCH  10  13
ENDBRANCH   9  10
ENDBRANCH   6   9
ENDBRANCH   2   3
ENDBRANCH   1   2
BRANCH   1  15
HETATM   15  C           1     -20.102  -5.585  -6.360  0.00  0.00     0.197 C 
HETATM   16  O           1     -19.543  -4.600  -5.833  0.00  0.00    -0.646 OA
HETATM   17  O           1     -19.429  -6.591  -6.674  0.00  0.00    -0.646 OA
ENDBRANCH   1  15
BRANCH   1  18
HETATM   18  N           1     -22.295  -5.888  -5.394  0.00  0.00    -0.344 N 
HETATM   19  H           1     -23.251  -5.582  -5.265  0.00  0.00     0.163 HD
HETATM   20  C           1     -21.669  -6.609  -4.413  0.00  0.00     0.249 C 
HETATM   21  O           1     -21.050  -6.038  -3.547  0.00  0.00    -0.271 OA
BRANCH  20  22
HETATM   22  C           1     -21.752  -8.115  -4.415  0.00  0.00     0.274 C 
BRANCH  22  23
HETATM   23  C           1     -20.939  -8.671  -3.253  0.00  0.00     0.044 C 
BRANCH  23  24
HETATM   24  C           1     -21.793  -9.646  -2.455  0.00  0.00     0.030 C 
BRANCH  24  25
HETATM   25  C           1     -22.026  -9.092  -1.056  0.00  0.00     0.230 C 
BRANCH  25  26
HETATM   26  N           1     -21.350  -7.760  -0.926  0.00  0.00    -0.079 N 
HETATM   27  H           1     -20.347  -7.850  -1.206  0.00  0.00     0.274 HD
HETATM   28  H           1     -21.825  -7.065  -1.545  0.00  0.00     0.274 HD
HETATM   29  H           1     -21.407  -7.437   0.067  0.00  0.00     0.274 HD
ENDBRANCH  25  26
ENDBRANCH  24  25
ENDBRANCH  23  24
ENDBRANCH  22  23
BRANCH  22  30
HETATM   30  N           1     -21.203  -8.644  -5.706  0.00  0.00    -0.067 N 
HETATM   31  H           1     -21.784  -8.294  -6.500  0.00  0.00     0.275 HD
HETATM   32  H           1     -21.224  -9.689  -5.693  0.00  0.00     0.275 HD
HETATM   33  H           1     -20.217  -8.319  -5.825  0.00  0.00     0.275 HD
ENDBRANCH  22  30
ENDBRANCH  20  22
ENDBRANCH   1  18
TORSDOF 13
ENDMDL
MODEL 5
REMARK VINA RESULT:      -6.7     12.448     14.890
REMARK  13 active torsions:
REMARK  status: ('A' for Active; 'I' for Inactive)
REMARK    1  A    between atoms: P_1  and  O_28 
REMARK    2  A    between atoms: P_1  and  O_2 
REMARK    3  A    between atoms: C_4  and  C_15 
REMARK    4  A    between atoms: C_7  and  C_24 
REMARK    5  A    between atoms: C_7  and  C_9 
REMARK    6  A    between atoms: N_8  and  C_24 
REMARK    7  A    between atoms: C_9  and  C_16 
REMARK    8  A    between atoms: C_15  and  C_20 
REMARK    9  A    between atoms: C_16  and  N_17 
REMARK   10  A    between atoms: C_20  and  C_29 
REMARK   11  A    between atoms: C_20  and  N_26 
REMARK       I    between atoms: C_23  and  N_26 
REMARK   12  A    between atoms: C_23  and  C_24 
REMARK   13  A    between atoms: C_25  and  O_28 
ROOT
HETATM    1  C           1     -20.753  -5.090  -6.189  0.00  0.00     0.189 C 
ENDROOT
BRANCH   1   2
HETATM    2  C           1     -21.559  -6.361  -5.960  0.00  0.00     0.074 C 
BRANCH   2   3
HETATM    3  C           1     -21.340  -6.846  -4.561  0.00  0.00    -0.056 A 
HETATM    4  C           1     -21.978  -6.213  -3.496  0.00  0.00     0.010 A 
HETATM    5  C           1     -21.773  -6.666  -2.192  0.00  0.00     0.038 A 
HETATM    6  C           1     -20.930  -7.751  -1.955  0.00  0.00     0.081 A 
HETATM    7  C           1     -20.293  -8.384  -3.022  0.00  0.00     0.038 A 
HETATM    8  C           1     -20.497  -7.932  -4.325  0.00  0.00     0.010 A 
BRANCH   6   9
HETATM    9  O           1     -20.731  -8.191  -0.688  0.00  0.00    -0.247 OA
BRANCH   9  10
HETATM   10  P           1     -21.895  -9.075  -0.001  0.00  0.00     0.411 P 
HETATM   11  O           1     -21.288 -10.052   0.930  0.00  0.00    -0.624 OA
HETATM   12  O           1     -22.649  -9.797  -1.051  0.00  0.00    -0.624 OA
BRANCH  10  13
HETATM   13  O           1     -22.897  -8.106   0.814  0.00  0.00    -0.300 OA
HETATM   14  H           1     -23.653  -8.636   0.999  0.00  0.00     0.223 HD
ENDBRANCH  10  13
ENDBRANCH   9  10
ENDBRANCH   6   9
ENDBRANCH   2   3
ENDBRANCH   1   2
BRANCH   1  15
HETATM   15  C           1     -19.644  -5.367  -7.175  0.00  0.00     0.197 C 
HETATM   16  O           1     -19.419  -6.538  -7.550  0.00  0.00    -0.646 OA
HETATM   17  O           1     -18.951  -4.425  -7.617  0.00  0.00    -0.646 OA
ENDBRANCH   1  15
BRANCH   1  18
HETATM   18  N           1     -21.620  -4.055  -6.717  0.00  0.00    -0.344 N 
HETATM   19  H           1     -21.354  -3.082  -6.638  0.00  0.00     0.163 HD
HETATM   20  C           1     -22.800  -4.395  -7.324  0.00  0.00     0.249 C 
HETATM   21  O           1     -23.810  -4.485  -6.670  0.00  0.00    -0.271 OA
BRANCH  20  22
HETATM   22  C           1     -22.835  -4.655  -8.810  0.00  0.00     0.274 C 
BRANCH  22  23
HETATM   23  C           1     -21.873  -3.709  -9.515  0.00  0.00     0.044 C 
BRANCH  23  24
HETATM   24  C           1     -21.469  -4.302 -10.859  0.00  0.00     0.030 C 
BRANCH  24  25
HETATM   25  C           1     -21.943  -3.388 -11.981  0.00  0.00     0.230 C 
BRANCH  25  26
HETATM   26  N           1     -23.070  -4.044 -12.720  0.00  0.00    -0.079 N 
HETATM   27  H           1     -23.184  -3.591 -13.655  0.00  0.00     0.274 HD
HETATM   28  H           1     -22.859  -5.060 -12.849  0.00  0.00     0.274 HD
HETATM   29  H           1     -23.953  -3.940 -12.172  0.00  0.00     0.274 HD
ENDBRANCH  25  26
ENDBRANCH  24  25
ENDBRANCH  23  24
ENDBRANCH  22  23
BRANCH  22  30
HETATM   30  N           1     -24.226  -4.428  -9.324  0.00  0.00    -0.067 N 
HETATM   31  H           1     -24.813  -5.268  -9.122  0.00  0.00     0.275 HD
HETATM   32  H           1     -24.194  -4.266 -10.356  0.00  0.00     0.275 HD
HETATM   33  H           1     -24.639  -3.591  -8.854  0.00  0.00     0.275 HD
ENDBRANCH  22  30
ENDBRANCH  20  22
ENDBRANCH   1  18
TORSDOF 13
ENDMDL
MODEL 6
REMARK VINA RESULT:      -6.3     12.175     14.677
REMARK  13 active torsions:
REMARK  status: ('A' for Active; 'I' for Inactive)
REMARK    1  A    between atoms: P_1  and  O_28 
REMARK    2  A    between atoms: P_1  and  O_2 
REMARK    3  A    between atoms: C_4  and  C_15 
REMARK    4  A    between atoms: C_7  and  C_24 
REMARK    5  A    between atoms: C_7  and  C_9 
REMARK    6  A    between atoms: N_8  and  C_24 
REMARK    7  A    between atoms: C_9  and  C_16 
REMARK    8  A    between atoms: C_15  and  C_20 
REMARK    9  A    between atoms: C_16  and  N_17 
REMARK   10  A    between atoms: C_20  and  C_29 
REMARK   11  A    between atoms: C_20  and  N_26 
REMARK       I    between atoms: C_23  and  N_26 
REMARK   12  A    between atoms: C_23  and  C_24 
REMARK   13  A    between atoms: C_25  and  O_28 
ROOT
HETATM    1  C           1     -20.716  -7.543  -5.291  0.00  0.00     0.189 C 
ENDROOT
BRANCH   1   2
HETATM    2  C           1     -19.853  -6.474  -5.948  0.00  0.00     0.074 C 
BRANCH   2   3
HETATM    3  C           1     -20.700  -5.638  -6.856  0.00  0.00    -0.056 A 
HETATM    4  C           1     -20.212  -5.251  -8.103  0.00  0.00     0.010 A 
HETATM    5  C           1     -21.002  -4.471  -8.949  0.00  0.00     0.038 A 
HETATM    6  C           1     -22.278  -4.078  -8.547  0.00  0.00     0.081 A 
HETATM    7  C           1     -22.765  -4.466  -7.299  0.00  0.00     0.038 A 
HETATM    8  C           1     -21.976  -5.245  -6.453  0.00  0.00     0.010 A 
BRANCH   6   9
HETATM    9  O           1     -23.045  -3.321  -9.369  0.00  0.00    -0.247 OA
BRANCH   9  10
HETATM   10  P           1     -24.089  -4.077 -10.341  0.00  0.00     0.411 P 
HETATM   11  O           1     -23.363  -5.059 -11.177  0.00  0.00    -0.624 OA
HETATM   12  O           1     -24.756  -3.085 -11.214  0.00  0.00    -0.624 OA
BRANCH  10  13
HETATM   13  O           1     -25.197  -4.844  -9.450  0.00  0.00    -0.300 OA
HETATM   14  H           1     -25.651  -4.161  -8.987  0.00  0.00     0.223 HD
ENDBRANCH  10  13
ENDBRANCH   9  10
ENDBRANCH   6   9
ENDBRANCH   2   3
ENDBRANCH   1   2
BRANCH   1  15
HETATM   15  C           1     -20.249  -8.909  -5.732  0.00  0.00     0.197 C 
HETATM   16  O           1     -21.078  -9.828  -5.905  0.00  0.00    -0.646 OA
HETATM   17  O           1     -19.032  -9.121  -5.924  0.00  0.00    -0.646 OA
ENDBRANCH   1  15
BRANCH   1  18
HETATM   18  N           1     -20.604  -7.437  -3.849  0.00  0.00    -0.344 N 
HETATM   19  H           1     -20.601  -6.527  -3.408  0.00  0.00     0.163 HD
HETATM   20  C           1     -20.503  -8.569  -3.085  0.00  0.00     0.249 C 
HETATM   21  O           1     -19.417  -9.031  -2.832  0.00  0.00    -0.271 OA
BRANCH  20  22
HETATM   22  C           1     -21.750  -9.238  -2.560  0.00  0.00     0.274 C 
BRANCH  22  23
HETATM   23  C           1     -21.678  -9.325  -1.042  0.00  0.00     0.044 C 
BRANCH  23  24
HETATM   24  C           1     -21.373  -7.948  -0.467  0.00  0.00     0.030 C 
BRANCH  24  25
HETATM   25  C           1     -22.673  -7.265  -0.064  0.00  0.00     0.230 C 
BRANCH  25  26
HETATM   26  N           1     -23.604  -8.275   0.537  0.00  0.00    -0.079 N 
HETATM   27  H           1     -24.420  -7.784   0.968  0.00  0.00     0.274 HD
HETATM   28  H           1     -23.943  -8.926  -0.208  0.00  0.00     0.274 HD
HETATM   29  H           1     -23.098  -8.821   1.271  0.00  0.00     0.274 HD
ENDBRANCH  25  26
ENDBRANCH  24  25
ENDBRANCH  23  24
ENDBRANCH  22  23
BRANCH  22  30
HETATM   30  N           1     -21.856 -10.619  -3.135  0.00  0.00    -0.067 N 
HETATM   31  H           1     -21.801 -10.567  -4.177  0.00  0.00     0.275 HD
HETATM   32  H           1     -22.769 -11.044  -2.856  0.00  0.00     0.275 HD
HETATM   33  H           1     -21.073 -11.208  -2.773  0.00  0.00     0.275 HD
ENDBRANCH  22  30
ENDBRANCH  20  22
ENDBRANCH   1  18
TORSDOF 13
ENDMDL
MODEL 7
REMARK VINA RESULT:      -6.2     12.497     14.912
REMARK  13 active torsions:
REMARK  status: ('A' for Active; 'I' for Inactive)
REMARK    1  A    between atoms: P_1  and  O_28 
REMARK    2  A    between atoms: P_1  and  O_2 
REMARK    3  A    between atoms: C_4  and  C_15 
REMARK    4  A    between atoms: C_7  and  C_24 
REMARK    5  A    between atoms: C_7  and  C_9 
REMARK    6  A    between atoms: N_8  and  C_24 
REMARK    7  A    between atoms: C_9  and  C_16 
REMARK    8  A    between atoms: C_15  and  C_20 
REMARK    9  A    between atoms: C_16  and  N_17 
REMARK   10  A    between atoms: C_20  and  C_29 
REMARK   11  A    between atoms: C_20  and  N_26 
REMARK       I    between atoms: C_23  and  N_26 
REMARK   12  A    between atoms: C_23  and  C_24 
REMARK   13  A    between atoms: C_25  and  O_28 
ROOT
HETATM    1  C           1     -20.977  -7.280  -3.729  0.00  0.00     0.189 C 
ENDROOT
BRANCH   1   2
HETATM    2  C           1     -22.034  -7.215  -4.823  0.00  0.00     0.074 C 
BRANCH   2   3
HETATM    3  C           1     -21.587  -6.269  -5.894  0.00  0.00    -0.056 A 
HETATM    4  C           1     -22.442  -5.261  -6.336  0.00  0.00     0.010 A 
HETATM    5  C           1     -22.024  -4.380  -7.333  0.00  0.00     0.038 A 
HETATM    6  C           1     -20.752  -4.508  -7.890  0.00  0.00     0.081 A 
HETATM    7  C           1     -19.896  -5.517  -7.447  0.00  0.00     0.038 A 
HETATM    8  C           1     -20.314  -6.397  -6.449  0.00  0.00     0.010 A 
BRANCH   6   9
HETATM    9  O           1     -20.346  -3.651  -8.859  0.00  0.00    -0.247 OA
BRANCH   9  10
HETATM   10  P           1     -20.660  -4.041 -10.394  0.00  0.00     0.411 P 
HETATM   11  O           1     -19.680  -5.048 -10.858  0.00  0.00    -0.624 OA
HETATM   12  O           1     -20.560  -2.831 -11.240  0.00  0.00    -0.624 OA
BRANCH  10  13
HETATM   13  O           1     -22.151  -4.653 -10.501  0.00  0.00    -0.300 OA
HETATM   14  H           1     -22.603  -4.090 -11.105  0.00  0.00     0.223 HD
ENDBRANCH  10  13
ENDBRANCH   9  10
ENDBRANCH   6   9
ENDBRANCH   2   3
ENDBRANCH   1   2
BRANCH   1  15
HETATM   15  C           1     -21.589  -6.868  -2.412  0.00  0.00     0.197 C 
HETATM   16  O           1     -22.425  -5.941  -2.374  0.00  0.00    -0.646 OA
HETATM   17  O           1     -21.259  -7.455  -1.359  0.00  0.00    -0.646 OA
ENDBRANCH   1  15
BRANCH   1  18
HETATM   18  N           1     -20.473  -8.636  -3.624  0.00  0.00    -0.344 N 
HETATM   19  H           1     -19.714  -8.845  -2.989  0.00  0.00     0.163 HD
HETATM   20  C           1     -21.025  -9.631  -4.384  0.00  0.00     0.249 C 
HETATM   21  O           1     -20.577  -9.873  -5.479  0.00  0.00    -0.271 OA
BRANCH  20  22
HETATM   22  C           1     -22.192 -10.427  -3.852  0.00  0.00     0.274 C 
BRANCH  22  23
HETATM   23  C           1     -21.987 -10.698  -2.367  0.00  0.00     0.044 C 
BRANCH  23  24
HETATM   24  C           1     -23.316 -11.087  -1.734  0.00  0.00     0.030 C 
BRANCH  24  25
HETATM   25  C           1     -23.288 -10.757  -0.248  0.00  0.00     0.230 C 
BRANCH  25  26
HETATM   26  N           1     -23.198  -9.272  -0.066  0.00  0.00    -0.079 N 
HETATM   27  H           1     -22.207  -8.964  -0.195  0.00  0.00     0.274 HD
HETATM   28  H           1     -23.804  -8.795  -0.772  0.00  0.00     0.274 HD
HETATM   29  H           1     -23.520  -9.018   0.895  0.00  0.00     0.274 HD
ENDBRANCH  25  26
ENDBRANCH  24  25
ENDBRANCH  23  24
ENDBRANCH  22  23
BRANCH  22  30
HETATM   30  N           1     -22.286 -11.729  -4.589  0.00  0.00    -0.067 N 
HETATM   31  H           1     -22.991 -11.645  -5.354  0.00  0.00     0.275 HD
HETATM   32  H           1     -22.577 -12.484  -3.928  0.00  0.00     0.275 HD
HETATM   33  H           1     -21.354 -11.967  -4.998  0.00  0.00     0.275 HD
ENDBRANCH  22  30
ENDBRANCH  20  22
ENDBRANCH   1  18
TORSDOF 13
ENDMDL
MODEL 8
REMARK VINA RESULT:      -6.1     13.769     16.068
REMARK  13 active torsions:
REMARK  status: ('A' for Active; 'I' for Inactive)
REMARK    1  A    between atoms: P_1  and  O_28 
REMARK    2  A    between atoms: P_1  and  O_2 
REMARK    3  A    between atoms: C_4  and  C_15 
REMARK    4  A    between atoms: C_7  and  C_24 
REMARK    5  A    between atoms: C_7  and  C_9 
REMARK    6  A    between atoms: N_8  and  C_24 
REMARK    7  A    between atoms: C_9  and  C_16 
REMARK    8  A    between atoms: C_15  and  C_20 
REMARK    9  A    between atoms: C_16  and  N_17 
REMARK   10  A    between atoms: C_20  and  C_29 
REMARK   11  A    between atoms: C_20  and  N_26 
REMARK       I    between atoms: C_23  and  N_26 
REMARK   12  A    between atoms: C_23  and  C_24 
REMARK   13  A    between atoms: C_25  and  O_28 
ROOT
HETATM    1  C           1     -21.349  -7.729  -2.403  0.00  0.00     0.189 C 
ENDROOT
BRANCH   1   2
HETATM    2  C           1     -19.977  -8.205  -1.943  0.00  0.00     0.074 C 
BRANCH   2   3
HETATM    3  C           1     -19.539  -9.360  -2.789  0.00  0.00    -0.056 A 
HETATM    4  C           1     -18.320  -9.308  -3.464  0.00  0.00     0.010 A 
HETATM    5  C           1     -17.914 -10.384  -4.252  0.00  0.00     0.038 A 
HETATM    6  C           1     -18.726 -11.512  -4.366  0.00  0.00     0.081 A 
HETATM    7  C           1     -19.945 -11.564  -3.690  0.00  0.00     0.038 A 
HETATM    8  C           1     -20.352 -10.488  -2.902  0.00  0.00     0.010 A 
BRANCH   6   9
HETATM    9  O           1     -18.330 -12.558  -5.132  0.00  0.00    -0.247 OA
BRANCH   9  10
HETATM   10  P           1     -18.740 -12.552  -6.694  0.00  0.00     0.411 P 
HETATM   11  O           1     -19.486 -13.789  -7.013  0.00  0.00    -0.624 OA
HETATM   12  O           1     -17.517 -12.485  -7.524  0.00  0.00    -0.624 OA
BRANCH  10  13
HETATM   13  O           1     -19.672 -11.268  -7.000  0.00  0.00    -0.300 OA
HETATM   14  H           1     -20.420 -11.613  -7.456  0.00  0.00     0.223 HD
ENDBRANCH  10  13
ENDBRANCH   9  10
ENDBRANCH   6   9
ENDBRANCH   2   3
ENDBRANCH   1   2
BRANCH   1  15
HETATM   15  C           1     -22.199  -7.405  -1.199  0.00  0.00     0.197 C 
HETATM   16  O           1     -22.577  -6.231  -0.998  0.00  0.00    -0.646 OA
HETATM   17  O           1     -22.526  -8.311  -0.402  0.00  0.00    -0.646 OA
ENDBRANCH   1  15
BRANCH   1  18
HETATM   18  N           1     -21.199  -6.542  -3.222  0.00  0.00    -0.344 N 
HETATM   19  H           1     -20.762  -5.715  -2.839  0.00  0.00     0.163 HD
HETATM   20  C           1     -21.649  -6.543  -4.515  0.00  0.00     0.249 C 
HETATM   21  O           1     -22.780  -6.201  -4.761  0.00  0.00    -0.271 OA
BRANCH  20  22
HETATM   22  C           1     -20.729  -6.971  -5.633  0.00  0.00     0.274 C 
BRANCH  22  23
HETATM   23  C           1     -21.031  -6.152  -6.881  0.00  0.00     0.044 C 
BRANCH  23  24
HETATM   24  C           1     -20.259  -4.840  -6.827  0.00  0.00     0.030 C 
BRANCH  24  25
HETATM   25  C           1     -21.208  -3.680  -7.096  0.00  0.00     0.230 C 
BRANCH  25  26
HETATM   26  N           1     -22.598  -4.206  -7.295  0.00  0.00    -0.079 N 
HETATM   27  H           1     -23.144  -3.534  -7.881  0.00  0.00     0.274 HD
HETATM   28  H           1     -22.556  -5.133  -7.776  0.00  0.00     0.274 HD
HETATM   29  H           1     -23.065  -4.318  -6.366  0.00  0.00     0.274 HD
ENDBRANCH  25  26
ENDBRANCH  24  25
ENDBRANCH  23  24
ENDBRANCH  22  23
BRANCH  22  30
HETATM   30  N           1     -20.943  -8.426  -5.927  0.00  0.00    -0.067 N 
HETATM   31  H           1     -20.944  -8.964  -5.032  0.00  0.00     0.275 HD
HETATM   32  H           1     -20.174  -8.774  -6.543  0.00  0.00     0.275 HD
HETATM   33  H           1     -21.860  -8.552  -6.412  0.00  0.00     0.275 HD
ENDBRANCH  22  30
ENDBRANCH  20  22
ENDBRANCH   1  18
TORSDOF 13
ENDMDL
MODEL 9
REMARK VINA RESULT:      -6.0     12.925     15.319
REMARK  13 active torsions:
REMARK  status: ('A' for Active; 'I' for Inactive)
REMARK    1  A    between atoms: P_1  and  O_28 
REMARK    2  A    between atoms: P_1  and  O_2 
REMARK    3  A    between atoms: C_4  and  C_15 
REMARK    4  A    between atoms: C_7  and  C_24 
REMARK    5  A    between atoms: C_7  and  C_9 
REMARK    6  A    between atoms: N_8  and  C_24 
REMARK    7  A    between atoms: C_9  and  C_16 
REMARK    8  A    between atoms: C_15  and  C_20 
REMARK    9  A    between atoms: C_16  and  N_17 
REMARK   10  A    between atoms: C_20  and  C_29 
REMARK   11  A    between atoms: C_20  and  N_26 
REMARK       I    between atoms: C_23  and  N_26 
REMARK   12  A    between atoms: C_23  and  C_24 
REMARK   13  A    between atoms: C_25  and  O_28 
ROOT
HETATM    1  C           1     -20.965  -7.020  -6.014  0.00  0.00     0.189 C 
ENDROOT
BRANCH   1   2
HETATM    2  C           1     -19.839  -7.709  -5.256  0.00  0.00     0.074 C 
BRANCH   2   3
HETATM    3  C           1     -20.416  -8.709  -4.303  0.00  0.00    -0.056 A 
HETATM    4  C           1     -21.540  -9.450  -4.667  0.00  0.00     0.010 A 
HETATM    5  C           1     -22.077 -10.382  -3.778  0.00  0.00     0.038 A 
HETATM    6  C           1     -21.492 -10.572  -2.527  0.00  0.00     0.081 A 
HETATM    7  C           1     -20.368  -9.830  -2.164  0.00  0.00     0.038 A 
HETATM    8  C           1     -19.830  -8.898  -3.052  0.00  0.00     0.010 A 
BRANCH   6   9
HETATM    9  O           1     -22.014 -11.477  -1.664  0.00  0.00    -0.247 OA
BRANCH   9  10
HETATM   10  P           1     -22.592 -10.937  -0.256  0.00  0.00     0.411 P 
HETATM   11  O           1     -23.124  -9.568  -0.433  0.00  0.00    -0.624 OA
HETATM   12  O           1     -21.504 -10.917   0.748  0.00  0.00    -0.624 OA
BRANCH  10  13
HETATM   13  O           1     -23.776 -11.913   0.250  0.00  0.00    -0.300 OA
HETATM   14  H           1     -23.387 -12.435   0.930  0.00  0.00     0.223 HD
ENDBRANCH  10  13
ENDBRANCH   9  10
ENDBRANCH   6   9
ENDBRANCH   2   3
ENDBRANCH   1   2
BRANCH   1  15
HETATM   15  C           1     -21.741  -6.134  -5.070  0.00  0.00     0.197 C 
HETATM   16  O           1     -22.972  -5.985  -5.222  0.00  0.00    -0.646 OA
HETATM   17  O           1     -21.151  -5.550  -4.135  0.00  0.00    -0.646 OA
ENDBRANCH   1  15
BRANCH   1  18
HETATM   18  N           1     -20.407  -6.214  -7.083  0.00  0.00    -0.344 N 
HETATM   19  H           1     -19.608  -6.550  -7.605  0.00  0.00     0.163 HD
HETATM   20  C           1     -20.963  -5.000  -7.386  0.00  0.00     0.249 C 
HETATM   21  O           1     -20.566  -4.001  -6.836  0.00  0.00    -0.271 OA
BRANCH  20  22
HETATM   22  C           1     -22.069  -4.912  -8.408  0.00  0.00     0.274 C 
BRANCH  22  23
HETATM   23  C           1     -21.547  -4.227  -9.664  0.00  0.00     0.044 C 
BRANCH  23  24
HETATM   24  C           1     -22.710  -3.926 -10.600  0.00  0.00     0.030 C 
BRANCH  24  25
HETATM   25  C           1     -22.271  -2.912 -11.648  0.00  0.00     0.230 C 
BRANCH  25  26
HETATM   26  N           1     -21.950  -3.622 -12.929  0.00  0.00    -0.079 N 
HETATM   27  H           1     -21.106  -4.223 -12.793  0.00  0.00     0.274 HD
HETATM   28  H           1     -22.761  -4.219 -13.210  0.00  0.00     0.274 HD
HETATM   29  H           1     -21.761  -2.919 -13.679  0.00  0.00     0.274 HD
ENDBRANCH  25  26
ENDBRANCH  24  25
ENDBRANCH  23  24
ENDBRANCH  22  23
BRANCH  22  30
HETATM   30  N           1     -23.208  -4.117  -7.843  0.00  0.00    -0.067 N 
HETATM   31  H           1     -23.178  -3.146  -8.226  0.00  0.00     0.275 HD
HETATM   32  H           1     -23.129  -4.084  -6.802  0.00  0.00     0.275 HD
HETATM   33  H           1     -24.113  -4.568  -8.108  0.00  0.00     0.275 HD
ENDBRANCH  22  30
ENDBRANCH  20  22
ENDBRANCH   1  18
TORSDOF 13
ENDMDL
