MODEL 1
REMARK VINA RESULT:      -6.5      0.000      0.000
REMARK  12 active torsions:
REMARK  status: ('A' for Active; 'I' for Inactive)
REMARK    1  A    between atoms: C_1  and  C_20 
REMARK    2  A    between atoms: C_1  and  C_2 
REMARK    3  A    between atoms: C_2  and  C_3 
REMARK    4  A    between atoms: C_3  and  C_4 
REMARK    5  A    between atoms: C_3  and  N_7 
REMARK       I    between atoms: N_7  and  C_8 
REMARK    6  A    between atoms: C_8  and  C_9 
REMARK    7  A    between atoms: C_9  and  C_10 
REMARK    8  A    between atoms: C_9  and  N_23 
REMARK    9  A    between atoms: C_10  and  O_11 
REMARK   10  A    between atoms: O_11  and  P_12 
REMARK   11  A    between atoms: P_12  and  O_13 
REMARK   12  A    between atoms: N_19  and  C_20 
ROOT
HETATM    1  N           1     -35.517  -3.107 -11.172  0.00  0.00    -0.345 N 
HETATM    2  C           1     -35.361  -1.848 -10.660  0.00  0.00     0.251 C 
HETATM    3  H           1     -36.383  -3.365 -11.629  0.00  0.00     0.163 HD
HETATM    4  O           1     -34.328  -1.541 -10.115  0.00  0.00    -0.271 OA
ENDROOT
BRANCH   2   5
HETATM    5  C           1     -36.481  -0.843 -10.777  0.00  0.00     0.298 C 
BRANCH   5   6
HETATM    6  C           1     -36.341  -0.077 -12.086  0.00  0.00     0.224 C 
BRANCH   6   7
HETATM    7  O           1     -36.447  -0.968 -13.163  0.00  0.00    -0.287 OA
BRANCH   7   8
HETATM    8  P           1     -35.723  -0.512 -14.534  0.00  0.00     0.406 P 
HETATM    9  O           1     -34.605   0.404 -14.219  0.00  0.00    -0.624 OA
HETATM   10  O           1     -36.702   0.180 -15.401  0.00  0.00    -0.624 OA
BRANCH   8  11
HETATM   11  O           1     -35.152  -1.814 -15.300  0.00  0.00    -0.300 OA
HETATM   12  H           1     -34.421  -2.102 -14.779  0.00  0.00     0.223 HD
ENDBRANCH   8  11
ENDBRANCH   7   8
ENDBRANCH   6   7
ENDBRANCH   5   6
BRANCH   5  13
HETATM   13  N           1     -36.411   0.118  -9.628  0.00  0.00    -0.064 N 
HETATM   14  H           1     -36.998  -0.236  -8.840  0.00  0.00     0.275 HD
HETATM   15  H           1     -35.419   0.208  -9.309  0.00  0.00     0.275 HD
HETATM   16  H           1     -36.764   1.053  -9.933  0.00  0.00     0.275 HD
ENDBRANCH   5  13
ENDBRANCH   2   5
BRANCH   1  17
HETATM   17  C           1     -34.442  -4.074 -11.060  0.00  0.00     0.185 C 
BRANCH  17  18
HETATM   18  C           1     -35.022  -5.481 -11.070  0.00  0.00     0.038 C 
BRANCH  18  19
HETATM   19  C           1     -33.978  -6.465 -10.555  0.00  0.00     0.030 C 
BRANCH  19  20
HETATM   20  C           1     -34.664  -7.761 -10.141  0.00  0.00     0.230 C 
BRANCH  20  21
HETATM   21  N           1     -33.654  -8.870 -10.097  0.00  0.00    -0.079 N 
HETATM   22  H           1     -32.974  -8.692  -9.325  0.00  0.00     0.274 HD
HETATM   23  H           1     -34.143  -9.778  -9.928  0.00  0.00     0.274 HD
HETATM   24  H           1     -33.145  -8.912 -11.008  0.00  0.00     0.274 HD
ENDBRANCH  20  21
ENDBRANCH  19  20
ENDBRANCH  18  19
ENDBRANCH  17  18
BRANCH  17  25
HETATM   25  C           1     -33.496  -3.910 -12.225  0.00  0.00     0.196 C 
HETATM   26  O           1     -32.264  -4.026 -12.051  0.00  0.00    -0.646 OA
HETATM   27  O           1     -33.946  -3.658 -13.364  0.00  0.00    -0.646 OA
ENDBRANCH  17  25
ENDBRANCH   1  17
TORSDOF 12
ENDMDL
MODEL 2
REMARK VINA RESULT:      -5.9     11.818     13.385
REMARK  12 active torsions:
REMARK  status: ('A' for Active; 'I' for Inactive)
REMARK    1  A    between atoms: C_1  and  C_20 
REMARK    2  A    between atoms: C_1  and  C_2 
REMARK    3  A    between atoms: C_2  and  C_3 
REMARK    4  A    between atoms: C_3  and  C_4 
REMARK    5  A    between atoms: C_3  and  N_7 
REMARK       I    between atoms: N_7  and  C_8 
REMARK    6  A    between atoms: C_8  and  C_9 
REMARK    7  A    between atoms: C_9  and  C_10 
REMARK    8  A    between atoms: C_9  and  N_23 
REMARK    9  A    between atoms: C_10  and  O_11 
REMARK   10  A    between atoms: O_11  and  P_12 
REMARK   11  A    between atoms: P_12  and  O_13 
REMARK   12  A    between atoms: N_19  and  C_20 
ROOT
HETATM    1  N           1     -21.848  -5.086  -8.345  0.00  0.00    -0.345 N 
HETATM    2  C           1     -23.137  -4.640  -8.455  0.00  0.00     0.251 C 
HETATM    3  H           1     -21.394  -5.520  -9.138  0.00  0.00     0.163 HD
HETATM    4  O           1     -23.680  -4.120  -7.508  0.00  0.00    -0.271 OA
ENDROOT
BRANCH   2   5
HETATM    5  C           1     -23.881  -4.796  -9.759  0.00  0.00     0.298 C 
BRANCH   5   6
HETATM    6  C           1     -22.967  -4.406 -10.914  0.00  0.00     0.224 C 
BRANCH   6   7
HETATM    7  O           1     -23.631  -4.624 -12.129  0.00  0.00    -0.287 OA
BRANCH   7   8
HETATM    8  P           1     -23.963  -3.305 -13.002  0.00  0.00     0.406 P 
HETATM    9  O           1     -23.017  -2.226 -12.641  0.00  0.00    -0.624 OA
HETATM   10  O           1     -25.347  -2.864 -12.722  0.00  0.00    -0.624 OA
BRANCH   8  11
HETATM   11  O           1     -23.814  -3.648 -14.573  0.00  0.00    -0.300 OA
HETATM   12  H           1     -22.924  -3.424 -14.788  0.00  0.00     0.223 HD
ENDBRANCH   8  11
ENDBRANCH   7   8
ENDBRANCH   6   7
ENDBRANCH   5   6
BRANCH   5  13
HETATM   13  N           1     -25.088  -3.906  -9.755  0.00  0.00    -0.064 N 
HETATM   14  H           1     -25.101  -3.332 -10.628  0.00  0.00     0.275 HD
HETATM   15  H           1     -25.952  -4.492  -9.712  0.00  0.00     0.275 HD
HETATM   16  H           1     -25.053  -3.274  -8.923  0.00  0.00     0.275 HD
ENDBRANCH   5  13
ENDBRANCH   2   5
BRANCH   1  17
HETATM   17  C           1     -21.134  -4.936  -7.092  0.00  0.00     0.185 C 
BRANCH  17  18
HETATM   18  C           1     -21.036  -6.288  -6.399  0.00  0.00     0.038 C 
BRANCH  18  19
HETATM   19  C           1     -22.041  -6.348  -5.256  0.00  0.00     0.030 C 
BRANCH  19  20
HETATM   20  C           1     -21.299  -6.337  -3.926  0.00  0.00     0.230 C 
BRANCH  20  21
HETATM   21  N           1     -22.265  -6.043  -2.816  0.00  0.00    -0.079 N 
HETATM   22  H           1     -22.682  -6.937  -2.471  0.00  0.00     0.274 HD
HETATM   23  H           1     -21.761  -5.570  -2.032  0.00  0.00     0.274 HD
HETATM   24  H           1     -23.024  -5.419  -3.171  0.00  0.00     0.274 HD
ENDBRANCH  20  21
ENDBRANCH  19  20
ENDBRANCH  18  19
ENDBRANCH  17  18
BRANCH  17  25
HETATM   25  C           1     -19.746  -4.407  -7.365  0.00  0.00     0.196 C 
HETATM   26  O           1     -18.795  -4.740  -6.627  0.00  0.00    -0.646 OA
HETATM   27  O           1     -19.551  -3.637  -8.330  0.00  0.00    -0.646 OA
ENDBRANCH  17  25
ENDBRANCH   1  17
TORSDOF 12
ENDMDL
MODEL 3
REMARK VINA RESULT:      -5.9      2.644      5.767
REMARK  12 active torsions:
REMARK  status: ('A' for Active; 'I' for Inactive)
REMARK    1  A    between atoms: C_1  and  C_20 
REMARK    2  A    between atoms: C_1  and  C_2 
REMARK    3  A    between atoms: C_2  and  C_3 
REMARK    4  A    between atoms: C_3  and  C_4 
REMARK    5  A    between atoms: C_3  and  N_7 
REMARK       I    between atoms: N_7  and  C_8 
REMARK    6  A    between atoms: C_8  and  C_9 
REMARK    7  A    between atoms: C_9  and  C_10 
REMARK    8  A    between atoms: C_9  and  N_23 
REMARK    9  A    between atoms: C_10  and  O_11 
REMARK   10  A    between atoms: O_11  and  P_12 
REMARK   11  A    between atoms: P_12  and  O_13 
REMARK   12  A    between atoms: N_19  and  C_20 
ROOT
HETATM    1  N           1     -35.205  -1.843 -11.977  0.00  0.00    -0.345 N 
HETATM    2  C           1     -34.071  -2.302 -11.362  0.00  0.00     0.251 C 
HETATM    3  H           1     -35.748  -2.462 -12.565  0.00  0.00     0.163 HD
HETATM    4  O           1     -33.423  -1.562 -10.661  0.00  0.00    -0.271 OA
ENDROOT
BRANCH   2   5
HETATM    5  C           1     -33.633  -3.732 -11.560  0.00  0.00     0.298 C 
BRANCH   5   6
HETATM    6  C           1     -34.248  -4.279 -12.842  0.00  0.00     0.224 C 
BRANCH   6   7
HETATM    7  O           1     -33.928  -3.432 -13.913  0.00  0.00    -0.287 OA
BRANCH   7   8
HETATM    8  P           1     -34.161  -4.041 -15.391  0.00  0.00     0.406 P 
HETATM    9  O           1     -34.780  -3.012 -16.256  0.00  0.00    -0.624 OA
HETATM   10  O           1     -35.054  -5.218 -15.305  0.00  0.00    -0.624 OA
BRANCH   8  11
HETATM   11  O           1     -32.742  -4.488 -16.019  0.00  0.00    -0.300 OA
HETATM   12  H           1     -32.960  -5.101 -16.701  0.00  0.00     0.223 HD
ENDBRANCH   8  11
ENDBRANCH   7   8
ENDBRANCH   6   7
ENDBRANCH   5   6
BRANCH   5  13
HETATM   13  N           1     -34.089  -4.560 -10.396  0.00  0.00    -0.064 N 
HETATM   14  H           1     -34.750  -4.004  -9.809  0.00  0.00     0.275 HD
HETATM   15  H           1     -34.573  -5.418 -10.748  0.00  0.00     0.275 HD
HETATM   16  H           1     -33.262  -4.838  -9.821  0.00  0.00     0.275 HD
ENDBRANCH   5  13
ENDBRANCH   2   5
BRANCH   1  17
HETATM   17  C           1     -35.626  -0.468 -11.787  0.00  0.00     0.185 C 
BRANCH  17  18
HETATM   18  C           1     -36.153   0.088 -13.103  0.00  0.00     0.038 C 
BRANCH  18  19
HETATM   19  C           1     -35.051   0.876 -13.800  0.00  0.00     0.030 C 
BRANCH  19  20
HETATM   20  C           1     -35.203   0.735 -15.309  0.00  0.00     0.230 C 
BRANCH  20  21
HETATM   21  N           1     -36.197   1.741 -15.809  0.00  0.00    -0.079 N 
HETATM   22  H           1     -36.477   2.374 -15.027  0.00  0.00     0.274 HD
HETATM   23  H           1     -35.765   2.305 -16.576  0.00  0.00     0.274 HD
HETATM   24  H           1     -37.041   1.244 -16.175  0.00  0.00     0.274 HD
ENDBRANCH  20  21
ENDBRANCH  19  20
ENDBRANCH  18  19
ENDBRANCH  17  18
BRANCH  17  25
HETATM   25  C           1     -36.717  -0.417 -10.745  0.00  0.00     0.196 C 
HETATM   26  O           1     -37.786  -1.038 -10.929  0.00  0.00    -0.646 OA
HETATM   27  O           1     -36.551   0.247  -9.699  0.00  0.00    -0.646 OA
ENDBRANCH  17  25
ENDBRANCH   1  17
TORSDOF 12
ENDMDL
MODEL 4
REMARK VINA RESULT:      -5.9     11.647     13.212
REMARK  12 active torsions:
REMARK  status: ('A' for Active; 'I' for Inactive)
REMARK    1  A    between atoms: C_1  and  C_20 
REMARK    2  A    between atoms: C_1  and  C_2 
REMARK    3  A    between atoms: C_2  and  C_3 
REMARK    4  A    between atoms: C_3  and  C_4 
REMARK    5  A    between atoms: C_3  and  N_7 
REMARK       I    between atoms: N_7  and  C_8 
REMARK    6  A    between atoms: C_8  and  C_9 
REMARK    7  A    between atoms: C_9  and  C_10 
REMARK    8  A    between atoms: C_9  and  N_23 
REMARK    9  A    between atoms: C_10  and  O_11 
REMARK   10  A    between atoms: O_11  and  P_12 
REMARK   11  A    between atoms: P_12  and  O_13 
REMARK   12  A    between atoms: N_19  and  C_20 
ROOT
HETATM    1  N           1     -23.021  -4.183  -8.828  0.00  0.00    -0.345 N 
HETATM    2  C           1     -22.693  -4.288 -10.152  0.00  0.00     0.251 C 
HETATM    3  H           1     -23.904  -3.769  -8.556  0.00  0.00     0.163 HD
HETATM    4  O           1     -21.640  -4.783 -10.476  0.00  0.00    -0.271 OA
ENDROOT
BRANCH   2   5
HETATM    5  C           1     -23.648  -3.787 -11.207  0.00  0.00     0.298 C 
BRANCH   5   6
HETATM    6  C           1     -23.045  -2.573 -11.902  0.00  0.00     0.224 C 
BRANCH   6   7
HETATM    7  O           1     -22.430  -2.975 -13.096  0.00  0.00    -0.287 OA
BRANCH   7   8
HETATM    8  P           1     -23.301  -2.781 -14.443  0.00  0.00     0.406 P 
HETATM    9  O           1     -22.406  -2.398 -15.558  0.00  0.00    -0.624 OA
HETATM   10  O           1     -24.308  -1.718 -14.229  0.00  0.00    -0.624 OA
BRANCH   8  11
HETATM   11  O           1     -24.049  -4.166 -14.805  0.00  0.00    -0.300 OA
HETATM   12  H           1     -23.604  -4.490 -15.569  0.00  0.00     0.223 HD
ENDBRANCH   8  11
ENDBRANCH   7   8
ENDBRANCH   6   7
ENDBRANCH   5   6
BRANCH   5  13
HETATM   13  N           1     -24.946  -3.399 -10.563  0.00  0.00    -0.064 N 
HETATM   14  H           1     -24.808  -2.537  -9.991  0.00  0.00     0.275 HD
HETATM   15  H           1     -25.660  -3.214 -11.305  0.00  0.00     0.275 HD
HETATM   16  H           1     -25.276  -4.177  -9.948  0.00  0.00     0.275 HD
ENDBRANCH   5  13
ENDBRANCH   2   5
BRANCH   1  17
HETATM   17  C           1     -22.104  -4.665  -7.813  0.00  0.00     0.185 C 
BRANCH  17  18
HETATM   18  C           1     -21.094  -3.575  -7.484  0.00  0.00     0.038 C 
BRANCH  18  19
HETATM   19  C           1     -19.687  -4.077  -7.784  0.00  0.00     0.030 C 
BRANCH  19  20
HETATM   20  C           1     -19.214  -4.972  -6.645  0.00  0.00     0.230 C 
BRANCH  20  21
HETATM   21  N           1     -19.543  -6.401  -6.962  0.00  0.00    -0.079 N 
HETATM   22  H           1     -19.728  -6.922  -6.075  0.00  0.00     0.274 HD
HETATM   23  H           1     -20.393  -6.436  -7.569  0.00  0.00     0.274 HD
HETATM   24  H           1     -18.738  -6.841  -7.463  0.00  0.00     0.274 HD
ENDBRANCH  20  21
ENDBRANCH  19  20
ENDBRANCH  18  19
ENDBRANCH  17  18
BRANCH  17  25
HETATM   25  C           1     -22.877  -5.029  -6.569  0.00  0.00     0.196 C 
HETATM   26  O           1     -24.059  -4.648  -6.435  0.00  0.00    -0.646 OA
HETATM   27  O           1     -22.334  -5.712  -5.674  0.00  0.00    -0.646 OA
ENDBRANCH  17  25
ENDBRANCH   1  17
TORSDOF 12
ENDMDL
MODEL 5
REMARK VINA RESULT:      -5.9     12.624     15.073
REMARK  12 active torsions:
REMARK  status: ('A' for Active; 'I' for Inactive)
REMARK    1  A    between atoms: C_1  and  C_20 
REMARK    2  A    between atoms: C_1  and  C_2 
REMARK    3  A    between atoms: C_2  and  C_3 
REMARK    4  A    between atoms: C_3  and  C_4 
REMARK    5  A    between atoms: C_3  and  N_7 
REMARK       I    between atoms: N_7  and  C_8 
REMARK    6  A    between atoms: C_8  and  C_9 
REMARK    7  A    between atoms: C_9  and  C_10 
REMARK    8  A    between atoms: C_9  and  N_23 
REMARK    9  A    between atoms: C_10  and  O_11 
REMARK   10  A    between atoms: O_11  and  P_12 
REMARK   11  A    between atoms: P_12  and  O_13 
REMARK   12  A    between atoms: N_19  and  C_20 
ROOT
HETATM    1  N           1     -22.184  -4.855  -9.044  0.00  0.00    -0.345 N 
HETATM    2  C           1     -21.703  -4.593  -7.789  0.00  0.00     0.251 C 
HETATM    3  H           1     -22.145  -5.795  -9.415  0.00  0.00     0.163 HD
HETATM    4  O           1     -21.750  -3.470  -7.346  0.00  0.00    -0.271 OA
ENDROOT
BRANCH   2   5
HETATM    5  C           1     -21.116  -5.708  -6.959  0.00  0.00     0.298 C 
BRANCH   5   6
HETATM    6  C           1     -20.774  -5.183  -5.571  0.00  0.00     0.224 C 
BRANCH   6   7
HETATM    7  O           1     -20.318  -6.239  -4.770  0.00  0.00    -0.287 OA
BRANCH   7   8
HETATM    8  P           1     -21.435  -6.976  -3.866  0.00  0.00     0.406 P 
HETATM    9  O           1     -22.629  -6.109  -3.754  0.00  0.00    -0.624 OA
HETATM   10  O           1     -20.885  -7.236  -2.517  0.00  0.00    -0.624 OA
BRANCH   8  11
HETATM   11  O           1     -21.850  -8.376  -4.556  0.00  0.00    -0.300 OA
HETATM   12  H           1     -21.982  -8.972  -3.839  0.00  0.00     0.223 HD
ENDBRANCH   8  11
ENDBRANCH   7   8
ENDBRANCH   6   7
ENDBRANCH   5   6
BRANCH   5  13
HETATM   13  N           1     -19.870  -6.219  -7.619  0.00  0.00    -0.064 N 
HETATM   14  H           1     -19.380  -6.881  -6.977  0.00  0.00     0.275 HD
HETATM   15  H           1     -20.124  -6.717  -8.503  0.00  0.00     0.275 HD
HETATM   16  H           1     -19.239  -5.417  -7.841  0.00  0.00     0.275 HD
ENDBRANCH   5  13
ENDBRANCH   2   5
BRANCH   1  17
HETATM   17  C           1     -22.749  -3.783  -9.841  0.00  0.00     0.185 C 
BRANCH  17  18
HETATM   18  C           1     -22.307  -3.942 -11.290  0.00  0.00     0.038 C 
BRANCH  18  19
HETATM   19  C           1     -22.542  -2.637 -12.039  0.00  0.00     0.030 C 
BRANCH  19  20
HETATM   20  C           1     -23.407  -2.904 -13.264  0.00  0.00     0.230 C 
BRANCH  20  21
HETATM   21  N           1     -22.534  -3.024 -14.478  0.00  0.00    -0.079 N 
HETATM   22  H           1     -22.691  -3.953 -14.930  0.00  0.00     0.274 HD
HETATM   23  H           1     -22.773  -2.264 -15.155  0.00  0.00     0.274 HD
HETATM   24  H           1     -21.532  -2.938 -14.196  0.00  0.00     0.274 HD
ENDBRANCH  20  21
ENDBRANCH  19  20
ENDBRANCH  18  19
ENDBRANCH  17  18
BRANCH  17  25
HETATM   25  C           1     -24.255  -3.840  -9.764  0.00  0.00     0.196 C 
HETATM   26  O           1     -24.907  -2.802  -9.522  0.00  0.00    -0.646 OA
HETATM   27  O           1     -24.849  -4.926  -9.942  0.00  0.00    -0.646 OA
ENDBRANCH  17  25
ENDBRANCH   1  17
TORSDOF 12
ENDMDL
MODEL 6
REMARK VINA RESULT:      -5.8      2.426      5.351
REMARK  12 active torsions:
REMARK  status: ('A' for Active; 'I' for Inactive)
REMARK    1  A    between atoms: C_1  and  C_20 
REMARK    2  A    between atoms: C_1  and  C_2 
REMARK    3  A    between atoms: C_2  and  C_3 
REMARK    4  A    between atoms: C_3  and  C_4 
REMARK    5  A    between atoms: C_3  and  N_7 
REMARK       I    between atoms: N_7  and  C_8 
REMARK    6  A    between atoms: C_8  and  C_9 
REMARK    7  A    between atoms: C_9  and  C_10 
REMARK    8  A    between atoms: C_9  and  N_23 
REMARK    9  A    between atoms: C_10  and  O_11 
REMARK   10  A    between atoms: O_11  and  P_12 
REMARK   11  A    between atoms: P_12  and  O_13 
REMARK   12  A    between atoms: N_19  and  C_20 
ROOT
HETATM    1  N           1     -35.309  -1.497 -12.120  0.00  0.00    -0.345 N 
HETATM    2  C           1     -35.137  -2.733 -11.559  0.00  0.00     0.251 C 
HETATM    3  H           1     -34.536  -1.042 -12.588  0.00  0.00     0.163 HD
HETATM    4  O           1     -36.060  -3.277 -11.000  0.00  0.00    -0.271 OA
ENDROOT
BRANCH   2   5
HETATM    5  C           1     -33.794  -3.417 -11.638  0.00  0.00     0.298 C 
BRANCH   5   6
HETATM    6  C           1     -33.657  -4.113 -12.986  0.00  0.00     0.224 C 
BRANCH   6   7
HETATM    7  O           1     -34.368  -3.395 -13.957  0.00  0.00    -0.287 OA
BRANCH   7   8
HETATM    8  P           1     -34.228  -3.927 -15.476  0.00  0.00     0.406 P 
HETATM    9  O           1     -32.800  -4.165 -15.785  0.00  0.00    -0.624 OA
HETATM   10  O           1     -34.773  -2.914 -16.407  0.00  0.00    -0.624 OA
BRANCH   8  11
HETATM   11  O           1     -35.051  -5.307 -15.641  0.00  0.00    -0.300 OA
HETATM   12  H           1     -35.860  -5.165 -15.180  0.00  0.00     0.223 HD
ENDBRANCH   8  11
ENDBRANCH   7   8
ENDBRANCH   6   7
ENDBRANCH   5   6
BRANCH   5  13
HETATM   13  N           1     -33.685  -4.433 -10.540  0.00  0.00    -0.064 N 
HETATM   14  H           1     -33.534  -3.947  -9.628  0.00  0.00     0.275 HD
HETATM   15  H           1     -34.568  -4.991 -10.494  0.00  0.00     0.275 HD
HETATM   16  H           1     -32.880  -5.070 -10.733  0.00  0.00     0.275 HD
ENDBRANCH   5  13
ENDBRANCH   2   5
BRANCH   1  17
HETATM   17  C           1     -36.599  -0.840 -12.044  0.00  0.00     0.185 C 
BRANCH  17  18
HETATM   18  C           1     -36.526   0.309 -11.048  0.00  0.00     0.038 C 
BRANCH  18  19
HETATM   19  C           1     -37.608   0.135  -9.990  0.00  0.00     0.030 C 
BRANCH  19  20
HETATM   20  C           1     -36.958  -0.055  -8.625  0.00  0.00     0.230 C 
BRANCH  20  21
HETATM   21  N           1     -36.271   1.214  -8.216  0.00  0.00    -0.079 N 
HETATM   22  H           1     -35.583   1.008  -7.457  0.00  0.00     0.274 HD
HETATM   23  H           1     -35.770   1.620  -9.038  0.00  0.00     0.274 HD
HETATM   24  H           1     -36.981   1.896  -7.867  0.00  0.00     0.274 HD
ENDBRANCH  20  21
ENDBRANCH  19  20
ENDBRANCH  18  19
ENDBRANCH  17  18
BRANCH  17  25
HETATM   25  C           1     -36.971  -0.304 -13.406  0.00  0.00     0.196 C 
HETATM   26  O           1     -38.020  -0.688 -13.963  0.00  0.00    -0.646 OA
HETATM   27  O           1     -36.227   0.525 -13.974  0.00  0.00    -0.646 OA
ENDBRANCH  17  25
ENDBRANCH   1  17
TORSDOF 12
ENDMDL
MODEL 7
REMARK VINA RESULT:      -5.6      2.879      5.984
REMARK  12 active torsions:
REMARK  status: ('A' for Active; 'I' for Inactive)
REMARK    1  A    between atoms: C_1  and  C_20 
REMARK    2  A    between atoms: C_1  and  C_2 
REMARK    3  A    between atoms: C_2  and  C_3 
REMARK    4  A    between atoms: C_3  and  C_4 
REMARK    5  A    between atoms: C_3  and  N_7 
REMARK       I    between atoms: N_7  and  C_8 
REMARK    6  A    between atoms: C_8  and  C_9 
REMARK    7  A    between atoms: C_9  and  C_10 
REMARK    8  A    between atoms: C_9  and  N_23 
REMARK    9  A    between atoms: C_10  and  O_11 
REMARK   10  A    between atoms: O_11  and  P_12 
REMARK   11  A    between atoms: P_12  and  O_13 
REMARK   12  A    between atoms: N_19  and  C_20 
ROOT
HETATM    1  N           1     -35.087  -1.153 -12.200  0.00  0.00    -0.345 N 
HETATM    2  C           1     -34.403  -2.298 -12.506  0.00  0.00     0.251 C 
HETATM    3  H           1     -34.851  -0.631 -11.366  0.00  0.00     0.163 HD
HETATM    4  O           1     -34.684  -2.922 -13.502  0.00  0.00    -0.271 OA
ENDROOT
BRANCH   2   5
HETATM    5  C           1     -33.297  -2.782 -11.600  0.00  0.00     0.298 C 
BRANCH   5   6
HETATM    6  C           1     -32.880  -4.188 -12.013  0.00  0.00     0.224 C 
BRANCH   6   7
HETATM    7  O           1     -33.264  -5.100 -11.021  0.00  0.00    -0.287 OA
BRANCH   7   8
HETATM    8  P           1     -34.693  -5.821 -11.236  0.00  0.00     0.406 P 
HETATM    9  O           1     -35.758  -5.000 -10.617  0.00  0.00    -0.624 OA
HETATM   10  O           1     -34.670  -7.160 -10.605  0.00  0.00    -0.624 OA
BRANCH   8  11
HETATM   11  O           1     -34.986  -5.977 -12.817  0.00  0.00    -0.300 OA
HETATM   12  H           1     -35.574  -6.710 -12.885  0.00  0.00     0.223 HD
ENDBRANCH   8  11
ENDBRANCH   7   8
ENDBRANCH   6   7
ENDBRANCH   5   6
BRANCH   5  13
HETATM   13  N           1     -33.786  -2.803 -10.183  0.00  0.00    -0.064 N 
HETATM   14  H           1     -32.971  -2.860  -9.533  0.00  0.00     0.275 HD
HETATM   15  H           1     -34.326  -1.929  -9.988  0.00  0.00     0.275 HD
HETATM   16  H           1     -34.405  -3.633 -10.040  0.00  0.00     0.275 HD
ENDBRANCH   5  13
ENDBRANCH   2   5
BRANCH   1  17
HETATM   17  C           1     -36.149  -0.688 -13.070  0.00  0.00     0.185 C 
BRANCH  17  18
HETATM   18  C           1     -37.276  -0.106 -12.228  0.00  0.00     0.038 C 
BRANCH  18  19
HETATM   19  C           1     -37.184  -0.649 -10.808  0.00  0.00     0.030 C 
BRANCH  19  20
HETATM   20  C           1     -37.651   0.418  -9.826  0.00  0.00     0.230 C 
BRANCH  20  21
HETATM   21  N           1     -36.473   1.219  -9.358  0.00  0.00    -0.079 N 
HETATM   22  H           1     -36.664   1.595  -8.402  0.00  0.00     0.274 HD
HETATM   23  H           1     -35.626   0.608  -9.328  0.00  0.00     0.274 HD
HETATM   24  H           1     -36.308   2.012 -10.018  0.00  0.00     0.274 HD
ENDBRANCH  20  21
ENDBRANCH  19  20
ENDBRANCH  18  19
ENDBRANCH  17  18
BRANCH  17  25
HETATM   25  C           1     -35.611   0.375 -13.997  0.00  0.00     0.196 C 
HETATM   26  O           1     -36.030   0.450 -15.171  0.00  0.00    -0.646 OA
HETATM   27  O           1     -34.745   1.178 -13.588  0.00  0.00    -0.646 OA
ENDBRANCH  17  25
ENDBRANCH   1  17
TORSDOF 12
ENDMDL
MODEL 8
REMARK VINA RESULT:      -5.6     11.884     13.479
REMARK  12 active torsions:
REMARK  status: ('A' for Active; 'I' for Inactive)
REMARK    1  A    between atoms: C_1  and  C_20 
REMARK    2  A    between atoms: C_1  and  C_2 
REMARK    3  A    between atoms: C_2  and  C_3 
REMARK    4  A    between atoms: C_3  and  C_4 
REMARK    5  A    between atoms: C_3  and  N_7 
REMARK       I    between atoms: N_7  and  C_8 
REMARK    6  A    between atoms: C_8  and  C_9 
REMARK    7  A    between atoms: C_9  and  C_10 
REMARK    8  A    between atoms: C_9  and  N_23 
REMARK    9  A    between atoms: C_10  and  O_11 
REMARK   10  A    between atoms: O_11  and  P_12 
REMARK   11  A    between atoms: P_12  and  O_13 
REMARK   12  A    between atoms: N_19  and  C_20 
ROOT
HETATM    1  N           1     -21.973  -3.874  -9.142  0.00  0.00    -0.345 N 
HETATM    2  C           1     -21.104  -3.970 -10.194  0.00  0.00     0.251 C 
HETATM    3  H           1     -22.807  -3.306  -9.224  0.00  0.00     0.163 HD
HETATM    4  O           1     -20.109  -4.648 -10.096  0.00  0.00    -0.271 OA
ENDROOT
BRANCH   2   5
HETATM    5  C           1     -21.389  -3.230 -11.478  0.00  0.00     0.298 C 
BRANCH   5   6
HETATM    6  C           1     -22.842  -2.772 -11.489  0.00  0.00     0.224 C 
BRANCH   6   7
HETATM    7  O           1     -23.054  -1.916 -12.577  0.00  0.00    -0.287 OA
BRANCH   7   8
HETATM    8  P           1     -24.165  -2.394 -13.649  0.00  0.00     0.406 P 
HETATM    9  O           1     -25.198  -3.201 -12.961  0.00  0.00    -0.624 OA
HETATM   10  O           1     -23.517  -3.211 -14.699  0.00  0.00    -0.624 OA
BRANCH   8  11
HETATM   11  O           1     -24.856  -1.099 -14.323  0.00  0.00    -0.300 OA
HETATM   12  H           1     -24.801  -1.250 -15.252  0.00  0.00     0.223 HD
ENDBRANCH   8  11
ENDBRANCH   7   8
ENDBRANCH   6   7
ENDBRANCH   5   6
BRANCH   5  13
HETATM   13  N           1     -21.145  -4.141 -12.645  0.00  0.00    -0.064 N 
HETATM   14  H           1     -20.117  -4.278 -12.772  0.00  0.00     0.275 HD
HETATM   15  H           1     -21.599  -5.066 -12.465  0.00  0.00     0.275 HD
HETATM   16  H           1     -21.550  -3.716 -13.509  0.00  0.00     0.275 HD
ENDBRANCH   5  13
ENDBRANCH   2   5
BRANCH   1  17
HETATM   17  C           1     -21.699  -4.585  -7.908  0.00  0.00     0.185 C 
BRANCH  17  18
HETATM   18  C           1     -20.696  -3.795  -7.079  0.00  0.00     0.038 C 
BRANCH  18  19
HETATM   19  C           1     -19.845  -4.756  -6.259  0.00  0.00     0.030 C 
BRANCH  19  20
HETATM   20  C           1     -19.720  -6.081  -7.000  0.00  0.00     0.230 C 
BRANCH  20  21
HETATM   21  N           1     -20.252  -7.188  -6.138  0.00  0.00    -0.079 N 
HETATM   22  H           1     -19.631  -8.025  -6.223  0.00  0.00     0.274 HD
HETATM   23  H           1     -20.277  -6.873  -5.142  0.00  0.00     0.274 HD
HETATM   24  H           1     -21.217  -7.438  -6.450  0.00  0.00     0.274 HD
ENDBRANCH  20  21
ENDBRANCH  19  20
ENDBRANCH  18  19
ENDBRANCH  17  18
BRANCH  17  25
HETATM   25  C           1     -22.981  -4.749  -7.128  0.00  0.00     0.196 C 
HETATM   26  O           1     -22.978  -5.372  -6.045  0.00  0.00    -0.646 OA
HETATM   27  O           1     -24.045  -4.260  -7.566  0.00  0.00    -0.646 OA
ENDBRANCH  17  25
ENDBRANCH   1  17
TORSDOF 12
ENDMDL
MODEL 9
REMARK VINA RESULT:      -5.6     12.681     15.128
REMARK  12 active torsions:
REMARK  status: ('A' for Active; 'I' for Inactive)
REMARK    1  A    between atoms: C_1  and  C_20 
REMARK    2  A    between atoms: C_1  and  C_2 
REMARK    3  A    between atoms: C_2  and  C_3 
REMARK    4  A    between atoms: C_3  and  C_4 
REMARK    5  A    between atoms: C_3  and  N_7 
REMARK       I    between atoms: N_7  and  C_8 
REMARK    6  A    between atoms: C_8  and  C_9 
REMARK    7  A    between atoms: C_9  and  C_10 
REMARK    8  A    between atoms: C_9  and  N_23 
REMARK    9  A    between atoms: C_10  and  O_11 
REMARK   10  A    between atoms: O_11  and  P_12 
REMARK   11  A    between atoms: P_12  and  O_13 
REMARK   12  A    between atoms: N_19  and  C_20 
ROOT
HETATM    1  N           1     -22.505  -4.727  -8.106  0.00  0.00    -0.345 N 
HETATM    2  C           1     -21.708  -4.315  -7.073  0.00  0.00     0.251 C 
HETATM    3  H           1     -22.926  -5.647  -8.085  0.00  0.00     0.163 HD
HETATM    4  O           1     -21.204  -3.217  -7.099  0.00  0.00    -0.271 OA
ENDROOT
BRANCH   2   5
HETATM    5  C           1     -21.459  -5.231  -5.900  0.00  0.00     0.298 C 
BRANCH   5   6
HETATM    6  C           1     -20.480  -6.324  -6.309  0.00  0.00     0.224 C 
BRANCH   6   7
HETATM    7  O           1     -21.149  -7.554  -6.367  0.00  0.00    -0.287 OA
BRANCH   7   8
HETATM    8  P           1     -20.754  -8.630  -5.228  0.00  0.00     0.406 P 
HETATM    9  O           1     -19.342  -8.432  -4.832  0.00  0.00    -0.624 OA
HETATM   10  O           1     -20.932 -10.000  -5.761  0.00  0.00    -0.624 OA
BRANCH   8  11
HETATM   11  O           1     -21.708  -8.426  -3.940  0.00  0.00    -0.300 OA
HETATM   12  H           1     -21.482  -9.131  -3.356  0.00  0.00     0.223 HD
ENDBRANCH   8  11
ENDBRANCH   7   8
ENDBRANCH   6   7
ENDBRANCH   5   6
BRANCH   5  13
HETATM   13  N           1     -22.753  -5.856  -5.471  0.00  0.00    -0.064 N 
HETATM   14  H           1     -22.724  -6.883  -5.659  0.00  0.00     0.275 HD
HETATM   15  H           1     -22.895  -5.694  -4.448  0.00  0.00     0.275 HD
HETATM   16  H           1     -23.542  -5.427  -6.005  0.00  0.00     0.275 HD
ENDBRANCH   5  13
ENDBRANCH   2   5
BRANCH   1  17
HETATM   17  C           1     -22.744  -3.847  -9.233  0.00  0.00     0.185 C 
BRANCH  17  18
HETATM   18  C           1     -21.950  -4.336 -10.437  0.00  0.00     0.038 C 
BRANCH  18  19
HETATM   19  C           1     -21.523  -3.144 -11.283  0.00  0.00     0.030 C 
BRANCH  19  20
HETATM   20  C           1     -22.525  -2.936 -12.411  0.00  0.00     0.230 C 
BRANCH  20  21
HETATM   21  N           1     -23.140  -4.253 -12.784  0.00  0.00    -0.079 N 
HETATM   22  H           1     -23.343  -4.801 -11.917  0.00  0.00     0.274 HD
HETATM   23  H           1     -24.030  -4.086 -13.306  0.00  0.00     0.274 HD
HETATM   24  H           1     -22.476  -4.788 -13.388  0.00  0.00     0.274 HD
ENDBRANCH  20  21
ENDBRANCH  19  20
ENDBRANCH  18  19
ENDBRANCH  17  18
BRANCH  17  25
HETATM   25  C           1     -24.216  -3.846  -9.566  0.00  0.00     0.196 C 
HETATM   26  O           1     -24.760  -4.886  -9.995  0.00  0.00    -0.646 OA
HETATM   27  O           1     -24.890  -2.804  -9.413  0.00  0.00    -0.646 OA
ENDBRANCH  17  25
ENDBRANCH   1  17
TORSDOF 12
ENDMDL
