MODEL 1
REMARK VINA RESULT:      -6.3      0.000      0.000
REMARK  7 active torsions:
REMARK  status: ('A' for Active; 'I' for Inactive)
REMARK    1  A    between atoms: C_1  and  C_2 
REMARK    2  A    between atoms: C_1  and  C_11 
REMARK    3  A    between atoms: C_1  and  N_6 
REMARK       I    between atoms: C_2  and  N_19 
REMARK    4  A    between atoms: C_4  and  C_17 
REMARK    5  A    between atoms: C_4  and  C_9 
REMARK    6  A    between atoms: C_7  and  C_9 
REMARK    7  A    between atoms: C_9  and  N_19 
ROOT
HETATM    1  C           1     -34.539  -2.404 -12.028  0.00  0.00     0.249 C 
HETATM    2  H           1     -35.927  -2.112 -13.535  0.00  0.00     0.163 HD
HETATM    3  N           1     -35.408  -1.669 -12.788  0.00  0.00    -0.344 N 
HETATM    4  O           1     -33.920  -1.874 -11.135  0.00  0.00    -0.271 OA
ENDROOT
BRANCH   1   5
HETATM    5  C           1     -34.353  -3.876 -12.305  0.00  0.00     0.278 C 
BRANCH   5   6
HETATM    6  C           1     -33.363  -4.460 -11.306  0.00  0.00     0.017 C 
HETATM    7  C           1     -32.066  -4.808 -12.024  0.00  0.00     0.012 C 
HETATM    8  C           1     -33.951  -5.718 -10.683  0.00  0.00     0.012 C 
ENDBRANCH   5   6
BRANCH   5   9
HETATM    9  N           1     -33.823  -4.058 -13.697  0.00  0.00    -0.066 N 
HETATM   10  H           1     -32.811  -3.799 -13.721  0.00  0.00     0.275 HD
HETATM   11  H           1     -33.932  -5.058 -13.982  0.00  0.00     0.275 HD
HETATM   12  H           1     -34.356  -3.447 -14.356  0.00  0.00     0.275 HD
ENDBRANCH   5   9
ENDBRANCH   1   5
BRANCH   3  13
HETATM   13  C           1     -35.587  -0.255 -12.520  0.00  0.00     0.189 C 
BRANCH  13  14
HETATM   14  C           1     -35.827   0.483 -13.831  0.00  0.00     0.014 C 
HETATM   15  C           1     -34.700   1.479 -14.067  0.00  0.00     0.012 C 
BRANCH  14  16
HETATM   16  C           1     -35.867  -0.520 -14.977  0.00  0.00     0.002 C 
HETATM   17  C           1     -37.135  -0.307 -15.794  0.00  0.00     0.005 C 
ENDBRANCH  14  16
ENDBRANCH  13  14
BRANCH  13  18
HETATM   18  C           1     -36.774  -0.061 -11.609  0.00  0.00     0.197 C 
HETATM   19  O           1     -37.916  -0.404 -11.989  0.00  0.00    -0.646 OA
HETATM   20  O           1     -36.618   0.442 -10.476  0.00  0.00    -0.646 OA
ENDBRANCH  13  18
ENDBRANCH   3  13
TORSDOF 7
ENDMDL
MODEL 2
REMARK VINA RESULT:      -6.0      2.157      3.114
REMARK  7 active torsions:
REMARK  status: ('A' for Active; 'I' for Inactive)
REMARK    1  A    between atoms: C_1  and  C_2 
REMARK    2  A    between atoms: C_1  and  C_11 
REMARK    3  A    between atoms: C_1  and  N_6 
REMARK       I    between atoms: C_2  and  N_19 
REMARK    4  A    between atoms: C_4  and  C_17 
REMARK    5  A    between atoms: C_4  and  C_9 
REMARK    6  A    between atoms: C_7  and  C_9 
REMARK    7  A    between atoms: C_9  and  N_19 
ROOT
HETATM    1  C           1     -34.236  -2.349 -12.366  0.00  0.00     0.249 C 
HETATM    2  H           1     -34.702  -0.564 -11.428  0.00  0.00     0.163 HD
HETATM    3  N           1     -34.842  -1.126 -12.258  0.00  0.00    -0.344 N 
HETATM    4  O           1     -34.403  -3.020 -13.357  0.00  0.00    -0.271 OA
ENDROOT
BRANCH   1   5
HETATM    5  C           1     -33.362  -2.860 -11.247  0.00  0.00     0.278 C 
BRANCH   5   6
HETATM    6  C           1     -34.012  -4.081 -10.610  0.00  0.00     0.017 C 
HETATM    7  C           1     -33.421  -5.345 -11.220  0.00  0.00     0.012 C 
HETATM    8  C           1     -35.513  -4.050 -10.864  0.00  0.00     0.012 C 
ENDBRANCH   5   6
BRANCH   5   9
HETATM    9  N           1     -33.199  -1.786 -10.212  0.00  0.00    -0.066 N 
HETATM   10  H           1     -32.851  -0.912 -10.667  0.00  0.00     0.275 HD
HETATM   11  H           1     -34.122  -1.597  -9.759  0.00  0.00     0.275 HD
HETATM   12  H           1     -32.512  -2.100  -9.489  0.00  0.00     0.275 HD
ENDBRANCH   5   9
ENDBRANCH   1   5
BRANCH   3  13
HETATM   13  C           1     -35.681  -0.635 -13.333  0.00  0.00     0.189 C 
BRANCH  13  14
HETATM   14  C           1     -36.908   0.051 -12.747  0.00  0.00     0.014 C 
HETATM   15  C           1     -38.075  -0.081 -13.715  0.00  0.00     0.012 C 
BRANCH  14  16
HETATM   16  C           1     -37.270  -0.606 -11.422  0.00  0.00     0.002 C 
HETATM   17  C           1     -37.354   0.457 -10.334  0.00  0.00     0.005 C 
ENDBRANCH  14  16
ENDBRANCH  13  14
BRANCH  13  18
HETATM   18  C           1     -34.903   0.352 -14.168  0.00  0.00     0.197 C 
HETATM   19  O           1     -34.679   1.502 -13.729  0.00  0.00    -0.646 OA
HETATM   20  O           1     -34.482   0.022 -15.298  0.00  0.00    -0.646 OA
ENDBRANCH  13  18
ENDBRANCH   3  13
TORSDOF 7
ENDMDL
MODEL 3
REMARK VINA RESULT:      -5.8      1.913      5.071
REMARK  7 active torsions:
REMARK  status: ('A' for Active; 'I' for Inactive)
REMARK    1  A    between atoms: C_1  and  C_2 
REMARK    2  A    between atoms: C_1  and  C_11 
REMARK    3  A    between atoms: C_1  and  N_6 
REMARK       I    between atoms: C_2  and  N_19 
REMARK    4  A    between atoms: C_4  and  C_17 
REMARK    5  A    between atoms: C_4  and  C_9 
REMARK    6  A    between atoms: C_7  and  C_9 
REMARK    7  A    between atoms: C_9  and  N_19 
ROOT
HETATM    1  C           1     -36.360  -0.274 -13.074  0.00  0.00     0.249 C 
HETATM    2  H           1     -34.699  -0.227 -11.841  0.00  0.00     0.163 HD
HETATM    3  N           1     -35.629  -0.605 -11.966  0.00  0.00    -0.344 N 
HETATM    4  O           1     -37.471  -0.725 -13.222  0.00  0.00    -0.271 OA
ENDROOT
BRANCH   1   5
HETATM    5  C           1     -35.778   0.654 -14.112  0.00  0.00     0.278 C 
BRANCH   5   6
HETATM    6  C           1     -36.508   0.461 -15.435  0.00  0.00     0.017 C 
HETATM    7  C           1     -35.842  -0.660 -16.222  0.00  0.00     0.012 C 
HETATM    8  C           1     -36.451   1.750 -16.242  0.00  0.00     0.012 C 
ENDBRANCH   5   6
BRANCH   5   9
HETATM    9  N           1     -34.321   0.344 -14.298  0.00  0.00    -0.066 N 
HETATM   10  H           1     -33.980   0.786 -15.181  0.00  0.00     0.275 HD
HETATM   11  H           1     -33.779   0.723 -13.488  0.00  0.00     0.275 HD
HETATM   12  H           1     -34.189  -0.691 -14.353  0.00  0.00     0.275 HD
ENDBRANCH   5   9
ENDBRANCH   1   5
BRANCH   3  13
HETATM   13  C           1     -36.189  -1.496 -10.968  0.00  0.00     0.189 C 
BRANCH  13  14
HETATM   14  C           1     -35.118  -2.473 -10.501  0.00  0.00     0.014 C 
HETATM   15  C           1     -35.502  -3.885 -10.919  0.00  0.00     0.012 C 
BRANCH  14  16
HETATM   16  C           1     -33.783  -2.101 -11.134  0.00  0.00     0.002 C 
HETATM   17  C           1     -33.005  -3.369 -11.460  0.00  0.00     0.005 C 
ENDBRANCH  14  16
ENDBRANCH  13  14
BRANCH  13  18
HETATM   18  C           1     -36.681  -0.689  -9.792  0.00  0.00     0.197 C 
HETATM   19  O           1     -37.890  -0.381  -9.707  0.00  0.00    -0.646 OA
HETATM   20  O           1     -35.881  -0.327  -8.902  0.00  0.00    -0.646 OA
ENDBRANCH  13  18
ENDBRANCH   3  13
TORSDOF 7
ENDMDL
MODEL 4
REMARK VINA RESULT:      -5.4      1.621      5.368
REMARK  7 active torsions:
REMARK  status: ('A' for Active; 'I' for Inactive)
REMARK    1  A    between atoms: C_1  and  C_2 
REMARK    2  A    between atoms: C_1  and  C_11 
REMARK    3  A    between atoms: C_1  and  N_6 
REMARK       I    between atoms: C_2  and  N_19 
REMARK    4  A    between atoms: C_4  and  C_17 
REMARK    5  A    between atoms: C_4  and  C_9 
REMARK    6  A    between atoms: C_7  and  C_9 
REMARK    7  A    between atoms: C_9  and  N_19 
ROOT
HETATM    1  C           1     -35.898  -0.623 -13.479  0.00  0.00     0.249 C 
HETATM    2  H           1     -33.916  -1.115 -13.142  0.00  0.00     0.163 HD
HETATM    3  N           1     -34.877  -1.408 -13.015  0.00  0.00    -0.344 N 
HETATM    4  O           1     -37.045  -0.973 -13.327  0.00  0.00    -0.271 OA
ENDROOT
BRANCH   1   5
HETATM    5  C           1     -35.592   0.677 -14.180  0.00  0.00     0.278 C 
BRANCH   5   6
HETATM    6  C           1     -36.374   0.748 -15.485  0.00  0.00     0.017 C 
HETATM    7  C           1     -35.942  -0.393 -16.397  0.00  0.00     0.012 C 
HETATM    8  C           1     -36.100   2.078 -16.172  0.00  0.00     0.012 C 
ENDBRANCH   5   6
BRANCH   5   9
HETATM    9  N           1     -34.123   0.751 -14.476  0.00  0.00    -0.066 N 
HETATM   10  H           1     -33.638  -0.068 -14.043  0.00  0.00     0.275 HD
HETATM   11  H           1     -33.976   0.734 -15.511  0.00  0.00     0.275 HD
HETATM   12  H           1     -33.732   1.636 -14.081  0.00  0.00     0.275 HD
ENDBRANCH   5   9
ENDBRANCH   1   5
BRANCH   3  13
HETATM   13  C           1     -35.171  -2.657 -12.341  0.00  0.00     0.189 C 
BRANCH  13  14
HETATM   14  C           1     -33.942  -3.556 -12.378  0.00  0.00     0.014 C 
HETATM   15  C           1     -32.989  -3.161 -11.258  0.00  0.00     0.012 C 
BRANCH  14  16
HETATM   16  C           1     -34.369  -5.006 -12.194  0.00  0.00     0.002 C 
HETATM   17  C           1     -33.719  -5.572 -10.938  0.00  0.00     0.005 C 
ENDBRANCH  14  16
ENDBRANCH  13  14
BRANCH  13  18
HETATM   18  C           1     -35.547  -2.378 -10.907  0.00  0.00     0.197 C 
HETATM   19  O           1     -35.015  -1.425 -10.295  0.00  0.00    -0.646 OA
HETATM   20  O           1     -36.390  -3.098 -10.329  0.00  0.00    -0.646 OA
ENDBRANCH  13  18
ENDBRANCH   3  13
TORSDOF 7
ENDMDL
MODEL 5
REMARK VINA RESULT:      -5.2      2.214      3.195
REMARK  7 active torsions:
REMARK  status: ('A' for Active; 'I' for Inactive)
REMARK    1  A    between atoms: C_1  and  C_2 
REMARK    2  A    between atoms: C_1  and  C_11 
REMARK    3  A    between atoms: C_1  and  N_6 
REMARK       I    between atoms: C_2  and  N_19 
REMARK    4  A    between atoms: C_4  and  C_17 
REMARK    5  A    between atoms: C_4  and  C_9 
REMARK    6  A    between atoms: C_7  and  C_9 
REMARK    7  A    between atoms: C_9  and  N_19 
ROOT
HETATM    1  C           1     -34.862  -2.388 -12.502  0.00  0.00     0.249 C 
HETATM    2  H           1     -33.830  -1.464 -14.039  0.00  0.00     0.163 HD
HETATM    3  N           1     -34.746  -1.689 -13.673  0.00  0.00    -0.344 N 
HETATM    4  O           1     -35.956  -2.656 -12.064  0.00  0.00    -0.271 OA
ENDROOT
BRANCH   1   5
HETATM    5  C           1     -33.624  -2.823 -11.756  0.00  0.00     0.278 C 
BRANCH   5   6
HETATM    6  C           1     -33.485  -4.337 -11.841  0.00  0.00     0.017 C 
HETATM    7  C           1     -33.919  -4.960 -10.521  0.00  0.00     0.012 C 
HETATM    8  C           1     -32.033  -4.699 -12.120  0.00  0.00     0.012 C 
ENDBRANCH   5   6
BRANCH   5   9
HETATM    9  N           1     -33.739  -2.413 -10.317  0.00  0.00    -0.066 N 
HETATM   10  H           1     -33.397  -1.432 -10.205  0.00  0.00     0.275 HD
HETATM   11  H           1     -34.740  -2.467 -10.020  0.00  0.00     0.275 HD
HETATM   12  H           1     -33.164  -3.053  -9.725  0.00  0.00     0.275 HD
ENDBRANCH   5   9
ENDBRANCH   1   5
BRANCH   3  13
HETATM   13  C           1     -35.936  -1.272 -14.389  0.00  0.00     0.189 C 
BRANCH  13  14
HETATM   14  C           1     -36.347   0.119 -13.925  0.00  0.00     0.014 C 
HETATM   15  C           1     -37.620   0.022 -13.096  0.00  0.00     0.012 C 
BRANCH  14  16
HETATM   16  C           1     -35.233   0.719 -13.076  0.00  0.00     0.002 C 
HETATM   17  C           1     -34.461   1.740 -13.901  0.00  0.00     0.005 C 
ENDBRANCH  14  16
ENDBRANCH  13  14
BRANCH  13  18
HETATM   18  C           1     -35.647  -1.244 -15.870  0.00  0.00     0.197 C 
HETATM   19  O           1     -34.943  -2.139 -16.386  0.00  0.00    -0.646 OA
HETATM   20  O           1     -36.112  -0.327 -16.581  0.00  0.00    -0.646 OA
ENDBRANCH  13  18
ENDBRANCH   3  13
TORSDOF 7
ENDMDL
MODEL 6
REMARK VINA RESULT:      -5.2      1.866      5.885
REMARK  7 active torsions:
REMARK  status: ('A' for Active; 'I' for Inactive)
REMARK    1  A    between atoms: C_1  and  C_2 
REMARK    2  A    between atoms: C_1  and  C_11 
REMARK    3  A    between atoms: C_1  and  N_6 
REMARK       I    between atoms: C_2  and  N_19 
REMARK    4  A    between atoms: C_4  and  C_17 
REMARK    5  A    between atoms: C_4  and  C_9 
REMARK    6  A    between atoms: C_7  and  C_9 
REMARK    7  A    between atoms: C_9  and  N_19 
ROOT
HETATM    1  C           1     -35.525  -1.717 -11.097  0.00  0.00     0.249 C 
HETATM    2  H           1     -35.613  -2.880 -12.806  0.00  0.00     0.163 HD
HETATM    3  N           1     -35.208  -2.791 -11.883  0.00  0.00    -0.344 N 
HETATM    4  O           1     -35.041  -1.611  -9.995  0.00  0.00    -0.271 OA
ENDROOT
BRANCH   1   5
HETATM    5  C           1     -36.478  -0.664 -11.606  0.00  0.00     0.278 C 
BRANCH   5   6
HETATM    6  C           1     -36.324  -0.525 -13.115  0.00  0.00     0.017 C 
HETATM    7  C           1     -35.262   0.523 -13.421  0.00  0.00     0.012 C 
HETATM    8  C           1     -37.651  -0.095 -13.725  0.00  0.00     0.012 C 
ENDBRANCH   5   6
BRANCH   5   9
HETATM    9  N           1     -36.167   0.650 -10.951  0.00  0.00    -0.066 N 
HETATM   10  H           1     -35.893   1.347 -11.679  0.00  0.00     0.275 HD
HETATM   11  H           1     -37.014   0.994 -10.443  0.00  0.00     0.275 HD
HETATM   12  H           1     -35.381   0.524 -10.275  0.00  0.00     0.275 HD
ENDBRANCH   5   9
ENDBRANCH   1   5
BRANCH   3  13
HETATM   13  C           1     -34.291  -3.802 -11.394  0.00  0.00     0.189 C 
BRANCH  13  14
HETATM   14  C           1     -35.057  -5.087 -11.109  0.00  0.00     0.014 C 
HETATM   15  C           1     -35.095  -5.946 -12.366  0.00  0.00     0.012 C 
BRANCH  14  16
HETATM   16  C           1     -34.362  -5.854  -9.991  0.00  0.00     0.002 C 
HETATM   17  C           1     -34.675  -7.339 -10.123  0.00  0.00     0.005 C 
ENDBRANCH  14  16
ENDBRANCH  13  14
BRANCH  13  18
HETATM   18  C           1     -33.232  -4.068 -12.436  0.00  0.00     0.197 C 
HETATM   19  O           1     -32.132  -4.557 -12.097  0.00  0.00    -0.646 OA
HETATM   20  O           1     -33.454  -3.800 -13.636  0.00  0.00    -0.646 OA
ENDBRANCH  13  18
ENDBRANCH   3  13
TORSDOF 7
ENDMDL
MODEL 7
REMARK VINA RESULT:      -5.2     14.483     17.381
REMARK  7 active torsions:
REMARK  status: ('A' for Active; 'I' for Inactive)
REMARK    1  A    between atoms: C_1  and  C_2 
REMARK    2  A    between atoms: C_1  and  C_11 
REMARK    3  A    between atoms: C_1  and  N_6 
REMARK       I    between atoms: C_2  and  N_19 
REMARK    4  A    between atoms: C_4  and  C_17 
REMARK    5  A    between atoms: C_4  and  C_9 
REMARK    6  A    between atoms: C_7  and  C_9 
REMARK    7  A    between atoms: C_9  and  N_19 
ROOT
HETATM    1  C           1     -21.661  -5.656  -5.636  0.00  0.00     0.249 C 
HETATM    2  H           1     -19.876  -6.308  -4.817  0.00  0.00     0.163 HD
HETATM    3  N           1     -20.880  -6.429  -4.820  0.00  0.00    -0.344 N 
HETATM    4  O           1     -22.861  -5.801  -5.639  0.00  0.00    -0.271 OA
ENDROOT
BRANCH   1   5
HETATM    5  C           1     -21.024  -4.623  -6.533  0.00  0.00     0.278 C 
BRANCH   5   6
HETATM    6  C           1     -21.386  -4.916  -7.983  0.00  0.00     0.017 C 
HETATM    7  C           1     -20.130  -4.847  -8.842  0.00  0.00     0.012 C 
HETATM    8  C           1     -22.393  -3.887  -8.474  0.00  0.00     0.012 C 
ENDBRANCH   5   6
BRANCH   5   9
HETATM    9  N           1     -19.533  -4.674  -6.372  0.00  0.00    -0.066 N 
HETATM   10  H           1     -19.255  -4.132  -5.523  0.00  0.00     0.275 HD
HETATM   11  H           1     -19.229  -5.669  -6.262  0.00  0.00     0.275 HD
HETATM   12  H           1     -19.076  -4.261  -7.215  0.00  0.00     0.275 HD
ENDBRANCH   5   9
ENDBRANCH   1   5
BRANCH   3  13
HETATM   13  C           1     -21.493  -7.420  -3.957  0.00  0.00     0.189 C 
BRANCH  13  14
HETATM   14  C           1     -20.641  -8.683  -3.950  0.00  0.00     0.014 C 
HETATM   15  C           1     -21.505  -9.881  -4.317  0.00  0.00     0.012 C 
BRANCH  14  16
HETATM   16  C           1     -19.514  -8.539  -4.965  0.00  0.00     0.002 C 
HETATM   17  C           1     -18.599  -9.754  -4.882  0.00  0.00     0.005 C 
ENDBRANCH  14  16
ENDBRANCH  13  14
BRANCH  13  18
HETATM   18  C           1     -21.594  -6.874  -2.555  0.00  0.00     0.197 C 
HETATM   19  O           1     -20.890  -7.360  -1.642  0.00  0.00    -0.646 OA
HETATM   20  O           1     -22.381  -5.936  -2.303  0.00  0.00    -0.646 OA
ENDBRANCH  13  18
ENDBRANCH   3  13
TORSDOF 7
ENDMDL
MODEL 8
REMARK VINA RESULT:      -5.1     16.631     18.500
REMARK  7 active torsions:
REMARK  status: ('A' for Active; 'I' for Inactive)
REMARK    1  A    between atoms: C_1  and  C_2 
REMARK    2  A    between atoms: C_1  and  C_11 
REMARK    3  A    between atoms: C_1  and  N_6 
REMARK       I    between atoms: C_2  and  N_19 
REMARK    4  A    between atoms: C_4  and  C_17 
REMARK    5  A    between atoms: C_4  and  C_9 
REMARK    6  A    between atoms: C_7  and  C_9 
REMARK    7  A    between atoms: C_9  and  N_19 
ROOT
HETATM    1  C           1     -21.433  -8.428  -2.237  0.00  0.00     0.249 C 
HETATM    2  H           1     -20.423  -6.910  -3.218  0.00  0.00     0.163 HD
HETATM    3  N           1     -20.866  -7.814  -3.322  0.00  0.00    -0.344 N 
HETATM    4  O           1     -21.962  -9.507  -2.362  0.00  0.00    -0.271 OA
ENDROOT
BRANCH   1   5
HETATM    5  C           1     -21.398  -7.756  -0.886  0.00  0.00     0.278 C 
BRANCH   5   6
HETATM    6  C           1     -21.996  -8.687   0.160  0.00  0.00     0.017 C 
HETATM    7  C           1     -23.343  -8.140   0.614  0.00  0.00     0.012 C 
HETATM    8  C           1     -21.058  -8.780   1.355  0.00  0.00     0.012 C 
ENDBRANCH   5   6
BRANCH   5   9
HETATM    9  N           1     -22.197  -6.487  -0.939  0.00  0.00    -0.066 N 
HETATM   10  H           1     -22.704  -6.432  -1.852  0.00  0.00     0.275 HD
HETATM   11  H           1     -22.890  -6.480  -0.156  0.00  0.00     0.275 HD
HETATM   12  H           1     -21.556  -5.668  -0.847  0.00  0.00     0.275 HD
ENDBRANCH   5   9
ENDBRANCH   1   5
BRANCH   3  13
HETATM   13  C           1     -20.899  -8.460  -4.619  0.00  0.00     0.189 C 
BRANCH  13  14
HETATM   14  C           1     -21.246  -7.433  -5.689  0.00  0.00     0.014 C 
HETATM   15  C           1     -22.431  -6.597  -5.226  0.00  0.00     0.012 C 
BRANCH  14  16
HETATM   16  C           1     -20.046  -6.525  -5.927  0.00  0.00     0.002 C 
HETATM   17  C           1     -20.526  -5.095  -6.141  0.00  0.00     0.005 C 
ENDBRANCH  14  16
ENDBRANCH  13  14
BRANCH  13  18
HETATM   18  C           1     -19.547  -9.060  -4.918  0.00  0.00     0.197 C 
HETATM   19  O           1     -18.623  -8.964  -4.081  0.00  0.00    -0.646 OA
HETATM   20  O           1     -19.351  -9.654  -5.999  0.00  0.00    -0.646 OA
ENDBRANCH  13  18
ENDBRANCH   3  13
TORSDOF 7
ENDMDL
MODEL 9
REMARK VINA RESULT:      -5.1     16.423     18.093
REMARK  7 active torsions:
REMARK  status: ('A' for Active; 'I' for Inactive)
REMARK    1  A    between atoms: C_1  and  C_2 
REMARK    2  A    between atoms: C_1  and  C_11 
REMARK    3  A    between atoms: C_1  and  N_6 
REMARK       I    between atoms: C_2  and  N_19 
REMARK    4  A    between atoms: C_4  and  C_17 
REMARK    5  A    between atoms: C_4  and  C_9 
REMARK    6  A    between atoms: C_7  and  C_9 
REMARK    7  A    between atoms: C_9  and  N_19 
ROOT
HETATM    1  C           1     -20.860  -7.802  -5.376  0.00  0.00     0.249 C 
HETATM    2  H           1     -22.546  -7.749  -4.177  0.00  0.00     0.163 HD
HETATM    3  N           1     -21.663  -8.212  -4.346  0.00  0.00    -0.344 N 
HETATM    4  O           1     -19.805  -8.356  -5.577  0.00  0.00    -0.271 OA
ENDROOT
BRANCH   1   5
HETATM    5  C           1     -21.292  -6.657  -6.259  0.00  0.00     0.278 C 
BRANCH   5   6
HETATM    6  C           1     -20.084  -5.796  -6.603  0.00  0.00     0.017 C 
HETATM    7  C           1     -20.004  -4.625  -5.633  0.00  0.00     0.012 C 
HETATM    8  C           1     -20.222  -5.268  -8.024  0.00  0.00     0.012 C 
ENDBRANCH   5   6
BRANCH   5   9
HETATM    9  N           1     -22.308  -5.824  -5.535  0.00  0.00    -0.066 N 
HETATM   10  H           1     -21.843  -4.978  -5.134  0.00  0.00     0.275 HD
HETATM   11  H           1     -23.054  -5.526  -6.204  0.00  0.00     0.275 HD
HETATM   12  H           1     -22.734  -6.385  -4.764  0.00  0.00     0.275 HD
ENDBRANCH   5   9
ENDBRANCH   1   5
BRANCH   3  13
HETATM   13  C           1     -21.248  -9.313  -3.498  0.00  0.00     0.189 C 
BRANCH  13  14
HETATM   14  C           1     -21.567  -8.983  -2.046  0.00  0.00     0.014 C 
HETATM   15  C           1     -20.549  -9.656  -1.136  0.00  0.00     0.012 C 
BRANCH  14  16
HETATM   16  C           1     -21.510  -7.474  -1.844  0.00  0.00     0.002 C 
HETATM   17  C           1     -22.410  -7.082  -0.680  0.00  0.00     0.005 C 
ENDBRANCH  14  16
ENDBRANCH  13  14
BRANCH  13  18
HETATM   18  C           1     -21.984 -10.566  -3.903  0.00  0.00     0.197 C 
HETATM   19  O           1     -23.002 -10.925  -3.271  0.00  0.00    -0.646 OA
HETATM   20  O           1     -21.577 -11.246  -4.870  0.00  0.00    -0.646 OA
ENDBRANCH  13  18
ENDBRANCH   3  13
TORSDOF 7
ENDMDL
