MODEL 1
REMARK VINA RESULT:      -6.8      0.000      0.000
REMARK  9 active torsions:
REMARK  status: ('A' for Active; 'I' for Inactive)
REMARK    1  A    between atoms: C_1  and  C_25 
REMARK    2  A    between atoms: C_1  and  C_2 
REMARK    3  A    between atoms: C_1  and  N_6 
REMARK    4  A    between atoms: C_2  and  C_3 
REMARK    5  A    between atoms: C_3  and  Se_4 
REMARK    6  A    between atoms: C_11  and  C_13 
REMARK    7  A    between atoms: C_13  and  C_14 
REMARK    8  A    between atoms: C_13  and  N_24 
REMARK    9  A    between atoms: C_14  and  C_15 
REMARK       I    between atoms: N_24  and  C_25 
ROOT
HETATM    1  C           1     -19.993  -7.360  -5.374  0.00  0.00     0.190 C 
ENDROOT
BRANCH   1   2
HETATM    2  C           1     -19.013  -8.504  -5.285  0.00  0.00     0.197 C 
HETATM    3  O           1     -18.478  -8.951  -6.323  0.00  0.00    -0.646 OA
HETATM    4  O           1     -18.735  -9.005  -4.174  0.00  0.00    -0.646 OA
ENDBRANCH   1   2
BRANCH   1   5
HETATM    5  C           1     -21.373  -7.839  -4.943  0.00  0.00     0.077 C 
BRANCH   5   6
HETATM    6  C           1     -21.694  -7.285  -3.591  0.00  0.00    -0.028 A 
HETATM    7  C           1     -21.922  -5.961  -3.289  0.00  0.00     0.096 A 
HETATM    8  N           1     -22.181  -5.876  -1.947  0.00  0.00    -0.365 N 
HETATM    9  H           1     -22.391  -4.986  -1.432  0.00  0.00     0.165 HD
HETATM   10  C           1     -22.124  -7.125  -1.371  0.00  0.00     0.042 A 
HETATM   11  C           1     -22.318  -7.518  -0.042  0.00  0.00     0.030 A 
HETATM   12  C           1     -21.819  -8.031  -2.387  0.00  0.00    -0.002 A 
HETATM   13  C           1     -22.195  -8.879   0.255  0.00  0.00     0.002 A 
HETATM   14  C           1     -21.892  -9.807  -0.739  0.00  0.00     0.001 A 
HETATM   15  C           1     -21.701  -9.397  -2.064  0.00  0.00     0.014 A 
ENDBRANCH   5   6
ENDBRANCH   1   5
BRANCH   1  16
HETATM   16  N           1     -20.053  -6.881  -6.741  0.00  0.00    -0.344 N 
HETATM   17  H           1     -20.028  -7.539  -7.510  0.00  0.00     0.163 HD
HETATM   18  C           1     -20.144  -5.539  -6.993  0.00  0.00     0.249 C 
HETATM   19  O           1     -19.140  -4.879  -7.126  0.00  0.00    -0.271 OA
BRANCH  18  20
HETATM   20  C           1     -21.498  -4.882  -7.104  0.00  0.00     0.274 C 
BRANCH  20  21
HETATM   21  C           1     -22.054  -5.096  -8.505  0.00  0.00     0.042 C 
BRANCH  21  22
HETATM   22  C           1     -22.680  -3.801  -9.007  0.00  0.00     0.003 C 
BRANCH  22  23
HETATM   23 Se           1     -22.157  -3.502 -10.860  0.00  0.00     0.000 Se
HETATM   24  C           1     -20.424  -4.377 -10.685  0.00  0.00     0.000 C 
ENDBRANCH  22  23
ENDBRANCH  21  22
ENDBRANCH  20  21
BRANCH  20  25
HETATM   25  N           1     -21.362  -3.412  -6.839  0.00  0.00    -0.067 N 
HETATM   26  H           1     -21.627  -3.210  -5.847  0.00  0.00     0.275 HD
HETATM   27  H           1     -20.372  -3.119  -7.000  0.00  0.00     0.275 HD
HETATM   28  H           1     -21.992  -2.882  -7.482  0.00  0.00     0.275 HD
ENDBRANCH  20  25
ENDBRANCH  18  20
ENDBRANCH   1  16
TORSDOF 9
ENDMDL
MODEL 2
REMARK VINA RESULT:      -6.7      3.267      7.626
REMARK  9 active torsions:
REMARK  status: ('A' for Active; 'I' for Inactive)
REMARK    1  A    between atoms: C_1  and  C_25 
REMARK    2  A    between atoms: C_1  and  C_2 
REMARK    3  A    between atoms: C_1  and  N_6 
REMARK    4  A    between atoms: C_2  and  C_3 
REMARK    5  A    between atoms: C_3  and  Se_4 
REMARK    6  A    between atoms: C_11  and  C_13 
REMARK    7  A    between atoms: C_13  and  C_14 
REMARK    8  A    between atoms: C_13  and  N_24 
REMARK    9  A    between atoms: C_14  and  C_15 
REMARK       I    between atoms: N_24  and  C_25 
ROOT
HETATM    1  C           1     -21.898  -6.654  -5.581  0.00  0.00     0.190 C 
ENDROOT
BRANCH   1   2
HETATM    2  C           1     -20.885  -7.771  -5.542  0.00  0.00     0.197 C 
HETATM    3  O           1     -19.673  -7.511  -5.380  0.00  0.00    -0.646 OA
HETATM    4  O           1     -21.257  -8.958  -5.670  0.00  0.00    -0.646 OA
ENDBRANCH   1   2
BRANCH   1   5
HETATM    5  C           1     -21.226  -5.375  -6.067  0.00  0.00     0.077 C 
BRANCH   5   6
HETATM    6  C           1     -22.010  -4.801  -7.205  0.00  0.00    -0.028 A 
HETATM    7  C           1     -23.329  -4.410  -7.166  0.00  0.00     0.096 A 
HETATM    8  N           1     -23.664  -3.941  -8.409  0.00  0.00    -0.365 N 
HETATM    9  H           1     -24.610  -3.574  -8.678  0.00  0.00     0.165 HD
HETATM   10  C           1     -22.581  -4.022  -9.255  0.00  0.00     0.042 A 
HETATM   11  C           1     -22.457  -3.662 -10.602  0.00  0.00     0.030 A 
HETATM   12  C           1     -21.525  -4.561  -8.520  0.00  0.00    -0.002 A 
HETATM   13  C           1     -21.215  -3.860 -11.213  0.00  0.00     0.002 A 
HETATM   14  C           1     -20.142  -4.395 -10.503  0.00  0.00     0.001 A 
HETATM   15  C           1     -20.283  -4.751  -9.156  0.00  0.00     0.014 A 
ENDBRANCH   5   6
ENDBRANCH   1   5
BRANCH   1  16
HETATM   16  N           1     -22.435  -6.442  -4.251  0.00  0.00    -0.344 N 
HETATM   17  H           1     -23.414  -6.215  -4.130  0.00  0.00     0.163 HD
HETATM   18  C           1     -21.618  -6.550  -3.158  0.00  0.00     0.249 C 
HETATM   19  O           1     -21.029  -5.578  -2.746  0.00  0.00    -0.271 OA
BRANCH  18  20
HETATM   20  C           1     -21.451  -7.882  -2.468  0.00  0.00     0.274 C 
BRANCH  20  21
HETATM   21  C           1     -22.128  -7.835  -1.104  0.00  0.00     0.042 C 
BRANCH  21  22
HETATM   22  C           1     -21.173  -8.369  -0.044  0.00  0.00     0.003 C 
BRANCH  22  23
HETATM   23 Se           1     -21.530 -10.260   0.259  0.00  0.00     0.000 Se
HETATM   24  C           1     -23.404 -10.159  -0.269  0.00  0.00     0.000 C 
ENDBRANCH  22  23
ENDBRANCH  21  22
ENDBRANCH  20  21
BRANCH  20  25
HETATM   25  N           1     -19.991  -8.173  -2.292  0.00  0.00    -0.067 N 
HETATM   26  H           1     -19.551  -8.329  -3.228  0.00  0.00     0.275 HD
HETATM   27  H           1     -19.528  -7.363  -1.821  0.00  0.00     0.275 HD
HETATM   28  H           1     -19.875  -9.030  -1.706  0.00  0.00     0.275 HD
ENDBRANCH  20  25
ENDBRANCH  18  20
ENDBRANCH   1  16
TORSDOF 9
ENDMDL
MODEL 3
REMARK VINA RESULT:      -6.6      2.008      2.708
REMARK  9 active torsions:
REMARK  status: ('A' for Active; 'I' for Inactive)
REMARK    1  A    between atoms: C_1  and  C_25 
REMARK    2  A    between atoms: C_1  and  C_2 
REMARK    3  A    between atoms: C_1  and  N_6 
REMARK    4  A    between atoms: C_2  and  C_3 
REMARK    5  A    between atoms: C_3  and  Se_4 
REMARK    6  A    between atoms: C_11  and  C_13 
REMARK    7  A    between atoms: C_13  and  C_14 
REMARK    8  A    between atoms: C_13  and  N_24 
REMARK    9  A    between atoms: C_14  and  C_15 
REMARK       I    between atoms: N_24  and  C_25 
ROOT
HETATM    1  C           1     -21.278  -7.416  -5.626  0.00  0.00     0.190 C 
ENDROOT
BRANCH   1   2
HETATM    2  C           1     -21.975  -6.274  -4.930  0.00  0.00     0.197 C 
HETATM    3  O           1     -23.154  -5.983  -5.232  0.00  0.00    -0.646 OA
HETATM    4  O           1     -21.375  -5.616  -4.052  0.00  0.00    -0.646 OA
ENDBRANCH   1   2
BRANCH   1   5
HETATM    5  C           1     -20.344  -8.114  -4.645  0.00  0.00     0.077 C 
BRANCH   5   6
HETATM    6  C           1     -21.132  -9.054  -3.787  0.00  0.00    -0.028 A 
HETATM    7  C           1     -21.670 -10.257  -4.183  0.00  0.00     0.096 A 
HETATM    8  N           1     -22.312 -10.804  -3.104  0.00  0.00    -0.365 N 
HETATM    9  H           1     -22.817 -11.724  -3.109  0.00  0.00     0.165 HD
HETATM   10  C           1     -22.199  -9.974  -2.012  0.00  0.00     0.042 A 
HETATM   11  C           1     -22.691 -10.120  -0.710  0.00  0.00     0.030 A 
HETATM   12  C           1     -21.459  -8.862  -2.416  0.00  0.00    -0.002 A 
HETATM   13  C           1     -22.416  -9.098   0.204  0.00  0.00     0.002 A 
HETATM   14  C           1     -21.679  -7.976  -0.171  0.00  0.00     0.001 A 
HETATM   15  C           1     -21.195  -7.845  -1.479  0.00  0.00     0.014 A 
ENDBRANCH   5   6
ENDBRANCH   1   5
BRANCH   1  16
HETATM   16  N           1     -20.510  -6.904  -6.744  0.00  0.00    -0.344 N 
HETATM   17  H           1     -19.999  -7.542  -7.341  0.00  0.00     0.163 HD
HETATM   18  C           1     -20.476  -5.559  -6.992  0.00  0.00     0.249 C 
HETATM   19  O           1     -19.623  -4.871  -6.483  0.00  0.00    -0.271 OA
BRANCH  18  20
HETATM   20  C           1     -21.506  -4.933  -7.902  0.00  0.00     0.274 C 
BRANCH  20  21
HETATM   21  C           1     -20.862  -4.594  -9.240  0.00  0.00     0.042 C 
BRANCH  21  22
HETATM   22  C           1     -21.828  -3.762 -10.073  0.00  0.00     0.003 C 
BRANCH  22  23
HETATM   23 Se           1     -23.424  -4.810 -10.459  0.00  0.00     0.000 Se
HETATM   24  C           1     -24.669  -3.455  -9.817  0.00  0.00     0.000 C 
ENDBRANCH  22  23
ENDBRANCH  21  22
ENDBRANCH  20  21
BRANCH  20  25
HETATM   25  N           1     -22.034  -3.680  -7.270  0.00  0.00    -0.067 N 
HETATM   26  H           1     -21.760  -2.854  -7.849  0.00  0.00     0.275 HD
HETATM   27  H           1     -23.077  -3.732  -7.211  0.00  0.00     0.275 HD
HETATM   28  H           1     -21.635  -3.580  -6.309  0.00  0.00     0.275 HD
ENDBRANCH  20  25
ENDBRANCH  18  20
ENDBRANCH   1  16
TORSDOF 9
ENDMDL
MODEL 4
REMARK VINA RESULT:      -6.5      2.964      5.284
REMARK  9 active torsions:
REMARK  status: ('A' for Active; 'I' for Inactive)
REMARK    1  A    between atoms: C_1  and  C_25 
REMARK    2  A    between atoms: C_1  and  C_2 
REMARK    3  A    between atoms: C_1  and  N_6 
REMARK    4  A    between atoms: C_2  and  C_3 
REMARK    5  A    between atoms: C_3  and  Se_4 
REMARK    6  A    between atoms: C_11  and  C_13 
REMARK    7  A    between atoms: C_13  and  C_14 
REMARK    8  A    between atoms: C_13  and  N_24 
REMARK    9  A    between atoms: C_14  and  C_15 
REMARK       I    between atoms: N_24  and  C_25 
ROOT
HETATM    1  C           1     -21.248  -8.677  -1.859  0.00  0.00     0.190 C 
ENDROOT
BRANCH   1   2
HETATM    2  C           1     -21.779  -8.647  -0.447  0.00  0.00     0.197 C 
HETATM    3  O           1     -23.009  -8.736  -0.239  0.00  0.00    -0.646 OA
HETATM    4  O           1     -20.989  -8.536   0.517  0.00  0.00    -0.646 OA
ENDBRANCH   1   2
BRANCH   1   5
HETATM    5  C           1     -20.037  -9.599  -1.927  0.00  0.00     0.077 C 
BRANCH   5   6
HETATM    6  C           1     -19.590  -9.731  -3.349  0.00  0.00    -0.028 A 
HETATM    7  C           1     -20.407  -9.881  -4.447  0.00  0.00     0.096 A 
HETATM    8  N           1     -19.607  -9.965  -5.556  0.00  0.00    -0.365 N 
HETATM    9  H           1     -19.955 -10.083  -6.539  0.00  0.00     0.165 HD
HETATM   10  C           1     -18.282  -9.871  -5.195  0.00  0.00     0.042 A 
HETATM   11  C           1     -17.126  -9.906  -5.983  0.00  0.00     0.030 A 
HETATM   12  C           1     -18.244  -9.723  -3.809  0.00  0.00    -0.002 A 
HETATM   13  C           1     -15.895  -9.786  -5.331  0.00  0.00     0.002 A 
HETATM   14  C           1     -15.826  -9.636  -3.947  0.00  0.00     0.001 A 
HETATM   15  C           1     -16.992  -9.603  -3.174  0.00  0.00     0.014 A 
ENDBRANCH   5   6
ENDBRANCH   1   5
BRANCH   1  16
HETATM   16  N           1     -20.857  -7.338  -2.255  0.00  0.00    -0.344 N 
HETATM   17  H           1     -19.939  -6.986  -2.015  0.00  0.00     0.163 HD
HETATM   18  C           1     -21.731  -6.549  -2.954  0.00  0.00     0.249 C 
HETATM   19  O           1     -22.496  -5.824  -2.364  0.00  0.00    -0.271 OA
BRANCH  18  20
HETATM   20  C           1     -21.738  -6.585  -4.463  0.00  0.00     0.274 C 
BRANCH  20  21
HETATM   21  C           1     -20.669  -5.643  -5.000  0.00  0.00     0.042 C 
BRANCH  21  22
HETATM   22  C           1     -20.132  -6.180  -6.319  0.00  0.00     0.003 C 
BRANCH  22  23
HETATM   23 Se           1     -19.624  -4.692  -7.470  0.00  0.00     0.000 Se
HETATM   24  C           1     -21.305  -3.730  -7.243  0.00  0.00     0.000 C 
ENDBRANCH  22  23
ENDBRANCH  21  22
ENDBRANCH  20  21
BRANCH  20  25
HETATM   25  N           1     -23.084  -6.153  -4.966  0.00  0.00    -0.067 N 
HETATM   26  H           1     -23.686  -5.877  -4.156  0.00  0.00     0.275 HD
HETATM   27  H           1     -22.970  -5.337  -5.609  0.00  0.00     0.275 HD
HETATM   28  H           1     -23.534  -6.943  -5.480  0.00  0.00     0.275 HD
ENDBRANCH  20  25
ENDBRANCH  18  20
ENDBRANCH   1  16
TORSDOF 9
ENDMDL
MODEL 5
REMARK VINA RESULT:      -6.4      1.392      2.046
REMARK  9 active torsions:
REMARK  status: ('A' for Active; 'I' for Inactive)
REMARK    1  A    between atoms: C_1  and  C_25 
REMARK    2  A    between atoms: C_1  and  C_2 
REMARK    3  A    between atoms: C_1  and  N_6 
REMARK    4  A    between atoms: C_2  and  C_3 
REMARK    5  A    between atoms: C_3  and  Se_4 
REMARK    6  A    between atoms: C_11  and  C_13 
REMARK    7  A    between atoms: C_13  and  C_14 
REMARK    8  A    between atoms: C_13  and  N_24 
REMARK    9  A    between atoms: C_14  and  C_15 
REMARK       I    between atoms: N_24  and  C_25 
ROOT
HETATM    1  C           1     -19.852  -7.915  -5.225  0.00  0.00     0.190 C 
ENDROOT
BRANCH   1   2
HETATM    2  C           1     -18.739  -8.932  -5.223  0.00  0.00     0.197 C 
HETATM    3  O           1     -18.190  -9.258  -4.148  0.00  0.00    -0.646 OA
HETATM    4  O           1     -18.363  -9.450  -6.298  0.00  0.00    -0.646 OA
ENDBRANCH   1   2
BRANCH   1   5
HETATM    5  C           1     -21.196  -8.632  -5.256  0.00  0.00     0.077 C 
BRANCH   5   6
HETATM    6  C           1     -21.513  -9.157  -3.890  0.00  0.00    -0.028 A 
HETATM    7  C           1     -21.595 -10.482  -3.528  0.00  0.00     0.096 A 
HETATM    8  N           1     -21.906 -10.534  -2.195  0.00  0.00    -0.365 N 
HETATM    9  H           1     -22.033 -11.417  -1.643  0.00  0.00     0.165 HD
HETATM   10  C           1     -22.027  -9.261  -1.685  0.00  0.00     0.042 A 
HETATM   11  C           1     -22.330  -8.832  -0.388  0.00  0.00     0.030 A 
HETATM   12  C           1     -21.785  -8.374  -2.734  0.00  0.00    -0.002 A 
HETATM   13  C           1     -22.387  -7.454  -0.159  0.00  0.00     0.002 A 
HETATM   14  C           1     -22.148  -6.544  -1.188  0.00  0.00     0.001 A 
HETATM   15  C           1     -21.846  -6.990  -2.480  0.00  0.00     0.014 A 
ENDBRANCH   5   6
ENDBRANCH   1   5
BRANCH   1  16
HETATM   16  N           1     -19.730  -7.067  -6.395  0.00  0.00    -0.344 N 
HETATM   17  H           1     -19.271  -7.415  -7.226  0.00  0.00     0.163 HD
HETATM   18  C           1     -20.237  -5.796  -6.375  0.00  0.00     0.249 C 
HETATM   19  O           1     -19.545  -4.875  -6.010  0.00  0.00    -0.271 OA
BRANCH  18  20
HETATM   20  C           1     -21.661  -5.544  -6.809  0.00  0.00     0.274 C 
BRANCH  20  21
HETATM   21  C           1     -21.742  -4.208  -7.535  0.00  0.00     0.042 C 
BRANCH  21  22
HETATM   22  C           1     -22.925  -4.222  -8.494  0.00  0.00     0.003 C 
BRANCH  22  23
HETATM   23 Se           1     -22.323  -3.718 -10.278  0.00  0.00     0.000 Se
HETATM   24  C           1     -20.494  -4.339 -10.014  0.00  0.00     0.000 C 
ENDBRANCH  22  23
ENDBRANCH  21  22
ENDBRANCH  20  21
BRANCH  20  25
HETATM   25  N           1     -22.551  -5.511  -5.602  0.00  0.00    -0.067 N 
HETATM   26  H           1     -23.546  -5.404  -5.905  0.00  0.00     0.275 HD
HETATM   27  H           1     -22.446  -6.403  -5.067  0.00  0.00     0.275 HD
HETATM   28  H           1     -22.284  -4.705  -4.993  0.00  0.00     0.275 HD
ENDBRANCH  20  25
ENDBRANCH  18  20
ENDBRANCH   1  16
TORSDOF 9
ENDMDL
MODEL 6
REMARK VINA RESULT:      -6.1      4.156      5.990
REMARK  9 active torsions:
REMARK  status: ('A' for Active; 'I' for Inactive)
REMARK    1  A    between atoms: C_1  and  C_25 
REMARK    2  A    between atoms: C_1  and  C_2 
REMARK    3  A    between atoms: C_1  and  N_6 
REMARK    4  A    between atoms: C_2  and  C_3 
REMARK    5  A    between atoms: C_3  and  Se_4 
REMARK    6  A    between atoms: C_11  and  C_13 
REMARK    7  A    between atoms: C_13  and  C_14 
REMARK    8  A    between atoms: C_13  and  N_24 
REMARK    9  A    between atoms: C_14  and  C_15 
REMARK       I    between atoms: N_24  and  C_25 
ROOT
HETATM    1  C           1     -21.153  -7.633  -3.063  0.00  0.00     0.190 C 
ENDROOT
BRANCH   1   2
HETATM    2  C           1     -21.976  -6.374  -3.189  0.00  0.00     0.197 C 
HETATM    3  O           1     -21.994  -5.543  -2.255  0.00  0.00    -0.646 OA
HETATM    4  O           1     -22.639  -6.162  -4.228  0.00  0.00    -0.646 OA
ENDBRANCH   1   2
BRANCH   1   5
HETATM    5  C           1     -20.758  -7.837  -1.606  0.00  0.00     0.077 C 
BRANCH   5   6
HETATM    6  C           1     -21.903  -8.445  -0.858  0.00  0.00    -0.028 A 
HETATM    7  C           1     -22.641  -7.838   0.133  0.00  0.00     0.096 A 
HETATM    8  N           1     -23.590  -8.730   0.555  0.00  0.00    -0.365 N 
HETATM    9  H           1     -24.299  -8.542   1.306  0.00  0.00     0.165 HD
HETATM   10  C           1     -23.481  -9.909  -0.148  0.00  0.00     0.042 A 
HETATM   11  C           1     -24.230 -11.088  -0.058  0.00  0.00     0.030 A 
HETATM   12  C           1     -22.424  -9.756  -1.045  0.00  0.00    -0.002 A 
HETATM   13  C           1     -23.886 -12.140  -0.912  0.00  0.00     0.002 A 
HETATM   14  C           1     -22.835 -12.015  -1.819  0.00  0.00     0.001 A 
HETATM   15  C           1     -22.096 -10.829  -1.896  0.00  0.00     0.014 A 
ENDBRANCH   5   6
ENDBRANCH   1   5
BRANCH   1  16
HETATM   16  N           1     -19.959  -7.512  -3.875  0.00  0.00    -0.344 N 
HETATM   17  H           1     -19.264  -6.810  -3.653  0.00  0.00     0.163 HD
HETATM   18  C           1     -19.770  -8.347  -4.943  0.00  0.00     0.249 C 
HETATM   19  O           1     -20.178  -8.033  -6.036  0.00  0.00    -0.271 OA
BRANCH  18  20
HETATM   20  C           1     -19.051  -9.662  -4.755  0.00  0.00     0.274 C 
BRANCH  20  21
HETATM   21  C           1     -17.942  -9.492  -3.726  0.00  0.00     0.042 C 
BRANCH  21  22
HETATM   22  C           1     -17.761 -10.793  -2.954  0.00  0.00     0.003 C 
BRANCH  22  23
HETATM   23 Se           1     -15.896 -10.978  -2.420  0.00  0.00     0.000 Se
HETATM   24  C           1     -16.302 -11.740  -0.673  0.00  0.00     0.000 C 
ENDBRANCH  22  23
ENDBRANCH  21  22
ENDBRANCH  20  21
BRANCH  20  25
HETATM   25  N           1     -18.458 -10.096  -6.063  0.00  0.00    -0.067 N 
HETATM   26  H           1     -18.234 -11.117  -6.022  0.00  0.00     0.275 HD
HETATM   27  H           1     -19.145  -9.922  -6.832  0.00  0.00     0.275 HD
HETATM   28  H           1     -17.584  -9.555  -6.246  0.00  0.00     0.275 HD
ENDBRANCH  20  25
ENDBRANCH  18  20
ENDBRANCH   1  16
TORSDOF 9
ENDMDL
MODEL 7
REMARK VINA RESULT:      -6.1      4.048      5.618
REMARK  9 active torsions:
REMARK  status: ('A' for Active; 'I' for Inactive)
REMARK    1  A    between atoms: C_1  and  C_25 
REMARK    2  A    between atoms: C_1  and  C_2 
REMARK    3  A    between atoms: C_1  and  N_6 
REMARK    4  A    between atoms: C_2  and  C_3 
REMARK    5  A    between atoms: C_3  and  Se_4 
REMARK    6  A    between atoms: C_11  and  C_13 
REMARK    7  A    between atoms: C_13  and  C_14 
REMARK    8  A    between atoms: C_13  and  N_24 
REMARK    9  A    between atoms: C_14  and  C_15 
REMARK       I    between atoms: N_24  and  C_25 
ROOT
HETATM    1  C           1     -21.304  -7.889  -2.958  0.00  0.00     0.190 C 
ENDROOT
BRANCH   1   2
HETATM    2  C           1     -21.925  -6.515  -2.996  0.00  0.00     0.197 C 
HETATM    3  O           1     -22.121  -5.946  -4.092  0.00  0.00    -0.646 OA
HETATM    4  O           1     -22.245  -5.943  -1.930  0.00  0.00    -0.646 OA
ENDBRANCH   1   2
BRANCH   1   5
HETATM    5  C           1     -20.599  -8.092  -1.623  0.00  0.00     0.077 C 
BRANCH   5   6
HETATM    6  C           1     -20.670  -9.536  -1.235  0.00  0.00    -0.028 A 
HETATM    7  C           1     -19.638 -10.445  -1.298  0.00  0.00     0.096 A 
HETATM    8  N           1     -20.114 -11.650  -0.855  0.00  0.00    -0.365 N 
HETATM    9  H           1     -19.549 -12.532  -0.792  0.00  0.00     0.165 HD
HETATM   10  C           1     -21.441 -11.539  -0.506  0.00  0.00     0.042 A 
HETATM   11  C           1     -22.329 -12.499  -0.008  0.00  0.00     0.030 A 
HETATM   12  C           1     -21.816 -10.215  -0.736  0.00  0.00    -0.002 A 
HETATM   13  C           1     -23.639 -12.091   0.261  0.00  0.00     0.002 A 
HETATM   14  C           1     -24.042 -10.775   0.041  0.00  0.00     0.001 A 
HETATM   15  C           1     -23.141  -9.826  -0.457  0.00  0.00     0.014 A 
ENDBRANCH   5   6
ENDBRANCH   1   5
BRANCH   1  16
HETATM   16  N           1     -20.343  -8.014  -4.036  0.00  0.00    -0.344 N 
HETATM   17  H           1     -19.493  -7.465  -4.022  0.00  0.00     0.163 HD
HETATM   18  C           1     -20.584  -8.875  -5.072  0.00  0.00     0.249 C 
HETATM   19  O           1     -21.177  -8.491  -6.052  0.00  0.00    -0.271 OA
BRANCH  18  20
HETATM   20  C           1     -20.109 -10.306  -4.991  0.00  0.00     0.274 C 
BRANCH  20  21
HETATM   21  C           1     -18.612 -10.330  -4.714  0.00  0.00     0.042 C 
BRANCH  21  22
HETATM   22  C           1     -17.865 -10.698  -5.990  0.00  0.00     0.003 C 
BRANCH  22  23
HETATM   23 Se           1     -15.982 -10.239  -5.796  0.00  0.00     0.000 Se
HETATM   24  C           1     -15.327 -11.894  -6.591  0.00  0.00     0.000 C 
ENDBRANCH  22  23
ENDBRANCH  21  22
ENDBRANCH  20  21
BRANCH  20  25
HETATM   25  N           1     -20.389 -10.999  -6.291  0.00  0.00    -0.067 N 
HETATM   26  H           1     -20.665 -10.291  -7.011  0.00  0.00     0.275 HD
HETATM   27  H           1     -19.530 -11.502  -6.610  0.00  0.00     0.275 HD
HETATM   28  H           1     -21.167 -11.684  -6.161  0.00  0.00     0.275 HD
ENDBRANCH  20  25
ENDBRANCH  18  20
ENDBRANCH   1  16
TORSDOF 9
ENDMDL
MODEL 8
REMARK VINA RESULT:      -6.0      4.271      6.307
REMARK  9 active torsions:
REMARK  status: ('A' for Active; 'I' for Inactive)
REMARK    1  A    between atoms: C_1  and  C_25 
REMARK    2  A    between atoms: C_1  and  C_2 
REMARK    3  A    between atoms: C_1  and  N_6 
REMARK    4  A    between atoms: C_2  and  C_3 
REMARK    5  A    between atoms: C_3  and  Se_4 
REMARK    6  A    between atoms: C_11  and  C_13 
REMARK    7  A    between atoms: C_13  and  C_14 
REMARK    8  A    between atoms: C_13  and  N_24 
REMARK    9  A    between atoms: C_14  and  C_15 
REMARK       I    between atoms: N_24  and  C_25 
ROOT
HETATM    1  C           1     -19.601  -9.207  -4.876  0.00  0.00     0.190 C 
ENDROOT
BRANCH   1   2
HETATM    2  C           1     -20.432  -8.072  -5.420  0.00  0.00     0.197 C 
HETATM    3  O           1     -19.906  -7.209  -6.157  0.00  0.00    -0.646 OA
HETATM    4  O           1     -21.647  -7.993  -5.136  0.00  0.00    -0.646 OA
ENDBRANCH   1   2
BRANCH   1   5
HETATM    5  C           1     -18.985  -8.793  -3.545  0.00  0.00     0.077 C 
BRANCH   5   6
HETATM    6  C           1     -19.808  -9.341  -2.422  0.00  0.00    -0.028 A 
HETATM    7  C           1     -19.736 -10.616  -1.908  0.00  0.00     0.096 A 
HETATM    8  N           1     -20.653 -10.711  -0.895  0.00  0.00    -0.365 N 
HETATM    9  H           1     -20.822 -11.572  -0.318  0.00  0.00     0.165 HD
HETATM   10  C           1     -21.321  -9.517  -0.742  0.00  0.00     0.042 A 
HETATM   11  C           1     -22.330  -9.154   0.156  0.00  0.00     0.030 A 
HETATM   12  C           1     -20.807  -8.636  -1.694  0.00  0.00    -0.002 A 
HETATM   13  C           1     -22.828  -7.850   0.078  0.00  0.00     0.002 A 
HETATM   14  C           1     -22.333  -6.947  -0.862  0.00  0.00     0.001 A 
HETATM   15  C           1     -21.323  -7.327  -1.754  0.00  0.00     0.014 A 
ENDBRANCH   5   6
ENDBRANCH   1   5
BRANCH   1  16
HETATM   16  N           1     -18.547  -9.528  -5.817  0.00  0.00    -0.344 N 
HETATM   17  H           1     -17.983  -8.789  -6.218  0.00  0.00     0.163 HD
HETATM   18  C           1     -18.313 -10.831  -6.164  0.00  0.00     0.249 C 
HETATM   19  O           1     -18.889 -11.318  -7.109  0.00  0.00    -0.271 OA
BRANCH  18  20
HETATM   20  C           1     -17.335 -11.661  -5.368  0.00  0.00     0.274 C 
BRANCH  20  21
HETATM   21  C           1     -15.925 -11.125  -5.578  0.00  0.00     0.042 C 
BRANCH  21  22
HETATM   22  C           1     -15.274 -11.851  -6.748  0.00  0.00     0.003 C 
BRANCH  22  23
HETATM   23 Se           1     -13.599 -12.656  -6.163  0.00  0.00     0.000 Se
HETATM   24  C           1     -13.975 -12.453  -4.261  0.00  0.00     0.000 C 
ENDBRANCH  22  23
ENDBRANCH  21  22
ENDBRANCH  20  21
BRANCH  20  25
HETATM   25  N           1     -17.402 -13.087  -5.827  0.00  0.00    -0.067 N 
HETATM   26  H           1     -16.485 -13.556  -5.643  0.00  0.00     0.275 HD
HETATM   27  H           1     -18.158 -13.586  -5.305  0.00  0.00     0.275 HD
HETATM   28  H           1     -17.607 -13.114  -6.851  0.00  0.00     0.275 HD
ENDBRANCH  20  25
ENDBRANCH  18  20
ENDBRANCH   1  16
TORSDOF 9
ENDMDL
MODEL 9
REMARK VINA RESULT:      -6.0      3.534      5.342
REMARK  9 active torsions:
REMARK  status: ('A' for Active; 'I' for Inactive)
REMARK    1  A    between atoms: C_1  and  C_25 
REMARK    2  A    between atoms: C_1  and  C_2 
REMARK    3  A    between atoms: C_1  and  N_6 
REMARK    4  A    between atoms: C_2  and  C_3 
REMARK    5  A    between atoms: C_3  and  Se_4 
REMARK    6  A    between atoms: C_11  and  C_13 
REMARK    7  A    between atoms: C_13  and  C_14 
REMARK    8  A    between atoms: C_13  and  N_24 
REMARK    9  A    between atoms: C_14  and  C_15 
REMARK       I    between atoms: N_24  and  C_25 
ROOT
HETATM    1  C           1     -21.227  -7.811  -5.315  0.00  0.00     0.190 C 
ENDROOT
BRANCH   1   2
HETATM    2  C           1     -20.788  -6.745  -6.289  0.00  0.00     0.197 C 
HETATM    3  O           1     -19.682  -6.842  -6.865  0.00  0.00    -0.646 OA
HETATM    4  O           1     -21.529  -5.765  -6.521  0.00  0.00    -0.646 OA
ENDBRANCH   1   2
BRANCH   1   5
HETATM    5  C           1     -20.356  -7.749  -4.067  0.00  0.00     0.077 C 
BRANCH   5   6
HETATM    6  C           1     -21.163  -7.221  -2.922  0.00  0.00    -0.028 A 
HETATM    7  C           1     -21.595  -5.924  -2.762  0.00  0.00     0.096 A 
HETATM    8  N           1     -22.297  -5.858  -1.588  0.00  0.00    -0.365 N 
HETATM    9  H           1     -22.747  -4.990  -1.206  0.00  0.00     0.165 HD
HETATM   10  C           1     -22.329  -7.094  -0.982  0.00  0.00     0.042 A 
HETATM   11  C           1     -22.924  -7.498   0.218  0.00  0.00     0.030 A 
HETATM   12  C           1     -21.620  -7.971  -1.803  0.00  0.00    -0.002 A 
HETATM   13  C           1     -22.790  -8.839   0.588  0.00  0.00     0.002 A 
HETATM   14  C           1     -22.088  -9.739  -0.212  0.00  0.00     0.001 A 
HETATM   15  C           1     -21.498  -9.318  -1.410  0.00  0.00     0.014 A 
ENDBRANCH   5   6
ENDBRANCH   1   5
BRANCH   1  16
HETATM   16  N           1     -21.092  -9.115  -5.934  0.00  0.00    -0.344 N 
HETATM   17  H           1     -21.382  -9.253  -6.894  0.00  0.00     0.163 HD
HETATM   18  C           1     -20.571 -10.160  -5.221  0.00  0.00     0.249 C 
HETATM   19  O           1     -21.301 -10.877  -4.578  0.00  0.00    -0.271 OA
BRANCH  18  20
HETATM   20  C           1     -19.083 -10.418  -5.236  0.00  0.00     0.274 C 
BRANCH  20  21
HETATM   21  C           1     -18.514 -10.192  -3.843  0.00  0.00     0.042 C 
BRANCH  21  22
HETATM   22  C           1     -17.068  -9.725  -3.953  0.00  0.00     0.003 C 
BRANCH  22  23
HETATM   23 Se           1     -16.023 -10.494  -2.499  0.00  0.00     0.000 Se
HETATM   24  C           1     -17.540 -11.389  -1.663  0.00  0.00     0.000 C 
ENDBRANCH  22  23
ENDBRANCH  21  22
ENDBRANCH  20  21
BRANCH  20  25
HETATM   25  N           1     -18.425  -9.480  -6.204  0.00  0.00    -0.067 N 
HETATM   26  H           1     -17.600  -9.951  -6.640  0.00  0.00     0.275 HD
HETATM   27  H           1     -19.107  -9.213  -6.950  0.00  0.00     0.275 HD
HETATM   28  H           1     -18.109  -8.622  -5.697  0.00  0.00     0.275 HD
ENDBRANCH  20  25
ENDBRANCH  18  20
ENDBRANCH   1  16
TORSDOF 9
ENDMDL
