MODEL 1
REMARK VINA RESULT:      -5.0      0.000      0.000
REMARK  8 active torsions:
REMARK  status: ('A' for Active; 'I' for Inactive)
REMARK    1  A    between atoms: S_1  and  C_5 
REMARK    2  A    between atoms: N_2  and  C_6 
REMARK    3  A    between atoms: C_3  and  S_4 
REMARK    4  A    between atoms: C_3  and  C_12 
REMARK    5  A    between atoms: C_5  and  C_6 
REMARK    6  A    between atoms: C_6  and  C_7 
REMARK       I    between atoms: C_7  and  N_8 
REMARK    7  A    between atoms: N_8  and  C_12 
REMARK    8  A    between atoms: C_11  and  C_12 
ROOT
HETATM    1  C           1     -34.305  -2.546 -12.278  0.00  0.00     0.249 C 
HETATM    2  N           1     -34.962  -1.656 -13.083  0.00  0.00    -0.344 N 
HETATM    3  O           1     -33.815  -2.174 -11.238  0.00  0.00    -0.271 OA
HETATM    4  H           1     -35.372  -1.967 -13.954  0.00  0.00     0.163 HD
ENDROOT
BRANCH   1   5
HETATM    5  C           1     -34.193  -3.993 -12.689  0.00  0.00     0.283 C 
BRANCH   5   6
HETATM    6  N           1     -33.687  -4.075 -14.099  0.00  0.00    -0.066 N 
HETATM    7  H           1     -34.377  -4.591 -14.690  0.00  0.00     0.275 HD
HETATM    8  H           1     -33.558  -3.109 -14.478  0.00  0.00     0.275 HD
HETATM    9  H           1     -32.772  -4.579 -14.112  0.00  0.00     0.275 HD
ENDBRANCH   5   6
BRANCH   5  10
HETATM   10  C           1     -33.223  -4.712 -11.761  0.00  0.00     0.113 C 
BRANCH  10  11
HETATM   11  S           1     -34.128  -5.927 -10.761  0.00  0.00    -0.180 SA
HETATM   12  H           1     -33.264  -6.939 -10.954  0.00  0.00     0.101 HD
ENDBRANCH  10  11
ENDBRANCH   5  10
ENDBRANCH   1   5
BRANCH   2  13
HETATM   13  C           1     -35.071  -0.265 -12.688  0.00  0.00     0.194 C 
BRANCH  13  14
HETATM   14  C           1     -35.159   0.611 -13.931  0.00  0.00     0.106 C 
BRANCH  14  15
HETATM   15  S           1     -35.628  -0.407 -15.358  0.00  0.00    -0.180 SA
HETATM   16  H           1     -35.602  -1.583 -14.706  0.00  0.00     0.101 HD
ENDBRANCH  14  15
ENDBRANCH  13  14
BRANCH  13  17
HETATM   17  C           1     -36.312  -0.075 -11.850  0.00  0.00     0.197 C 
HETATM   18  O           1     -37.420  -0.466 -12.277  0.00  0.00    -0.646 OA
HETATM   19  O           1     -36.231   0.471 -10.729  0.00  0.00    -0.646 OA
ENDBRANCH  13  17
ENDBRANCH   2  13
TORSDOF 8
ENDMDL
MODEL 2
REMARK VINA RESULT:      -4.9      2.400      2.806
REMARK  8 active torsions:
REMARK  status: ('A' for Active; 'I' for Inactive)
REMARK    1  A    between atoms: S_1  and  C_5 
REMARK    2  A    between atoms: N_2  and  C_6 
REMARK    3  A    between atoms: C_3  and  S_4 
REMARK    4  A    between atoms: C_3  and  C_12 
REMARK    5  A    between atoms: C_5  and  C_6 
REMARK    6  A    between atoms: C_6  and  C_7 
REMARK       I    between atoms: C_7  and  N_8 
REMARK    7  A    between atoms: N_8  and  C_12 
REMARK    8  A    between atoms: C_11  and  C_12 
ROOT
HETATM    1  C           1     -34.535  -2.472 -12.594  0.00  0.00     0.249 C 
HETATM    2  N           1     -35.219  -1.294 -12.464  0.00  0.00    -0.344 N 
HETATM    3  O           1     -34.490  -3.030 -13.665  0.00  0.00    -0.271 OA
HETATM    4  H           1     -35.257  -0.827 -11.567  0.00  0.00     0.163 HD
ENDROOT
BRANCH   1   5
HETATM    5  C           1     -33.837  -3.074 -11.400  0.00  0.00     0.283 C 
BRANCH   5   6
HETATM    6  N           1     -33.594  -2.008 -10.372  0.00  0.00    -0.066 N 
HETATM    7  H           1     -32.753  -1.449 -10.640  0.00  0.00     0.275 HD
HETATM    8  H           1     -34.428  -1.379 -10.321  0.00  0.00     0.275 HD
HETATM    9  H           1     -33.435  -2.453  -9.440  0.00  0.00     0.275 HD
ENDBRANCH   5   6
BRANCH   5  10
HETATM   10  C           1     -34.710  -4.167 -10.798  0.00  0.00     0.113 C 
BRANCH  10  11
HETATM   11  S           1     -33.901  -5.778 -11.016  0.00  0.00    -0.180 SA
HETATM   12  H           1     -34.780  -6.256 -11.914  0.00  0.00     0.101 HD
ENDBRANCH  10  11
ENDBRANCH   5  10
ENDBRANCH   1   5
BRANCH   2  13
HETATM   13  C           1     -35.890  -0.714 -13.611  0.00  0.00     0.194 C 
BRANCH  13  14
HETATM   14  C           1     -37.208  -0.094 -13.169  0.00  0.00     0.106 C 
BRANCH  14  15
HETATM   15  S           1     -37.334  -0.161 -11.360  0.00  0.00    -0.180 SA
HETATM   16  H           1     -38.305   0.764 -11.252  0.00  0.00     0.101 HD
ENDBRANCH  14  15
ENDBRANCH  13  14
BRANCH  13  17
HETATM   17  C           1     -35.012   0.351 -14.223  0.00  0.00     0.197 C 
HETATM   18  O           1     -34.764   1.397 -13.585  0.00  0.00    -0.646 OA
HETATM   19  O           1     -34.533   0.186 -15.365  0.00  0.00    -0.646 OA
ENDBRANCH  13  17
ENDBRANCH   2  13
TORSDOF 8
ENDMDL
MODEL 3
REMARK VINA RESULT:      -4.8     12.299     13.857
REMARK  8 active torsions:
REMARK  status: ('A' for Active; 'I' for Inactive)
REMARK    1  A    between atoms: S_1  and  C_5 
REMARK    2  A    between atoms: N_2  and  C_6 
REMARK    3  A    between atoms: C_3  and  S_4 
REMARK    4  A    between atoms: C_3  and  C_12 
REMARK    5  A    between atoms: C_5  and  C_6 
REMARK    6  A    between atoms: C_6  and  C_7 
REMARK       I    between atoms: C_7  and  N_8 
REMARK    7  A    between atoms: N_8  and  C_12 
REMARK    8  A    between atoms: C_11  and  C_12 
ROOT
HETATM    1  C           1     -21.682  -4.524  -7.650  0.00  0.00     0.249 C 
HETATM    2  N           1     -22.268  -4.765  -8.863  0.00  0.00    -0.344 N 
HETATM    3  O           1     -21.617  -3.395  -7.223  0.00  0.00    -0.271 OA
HETATM    4  H           1     -22.321  -5.710  -9.221  0.00  0.00     0.163 HD
ENDROOT
BRANCH   1   5
HETATM    5  C           1     -21.117  -5.669  -6.845  0.00  0.00     0.283 C 
BRANCH   5   6
HETATM    6  N           1     -19.895  -6.206  -7.529  0.00  0.00    -0.066 N 
HETATM    7  H           1     -19.879  -7.248  -7.451  0.00  0.00     0.275 HD
HETATM    8  H           1     -19.914  -5.933  -8.538  0.00  0.00     0.275 HD
HETATM    9  H           1     -19.040  -5.810  -7.076  0.00  0.00     0.275 HD
ENDBRANCH   5   6
BRANCH   5  10
HETATM   10  C           1     -20.743  -5.176  -5.454  0.00  0.00     0.113 C 
BRANCH  10  11
HETATM   11  S           1     -21.402  -6.320  -4.208  0.00  0.00    -0.180 SA
HETATM   12  H           1     -21.392  -7.408  -4.998  0.00  0.00     0.101 HD
ENDBRANCH  10  11
ENDBRANCH   5  10
ENDBRANCH   1   5
BRANCH   2  13
HETATM   13  C           1     -22.811  -3.666  -9.637  0.00  0.00     0.194 C 
BRANCH  13  14
HETATM   14  C           1     -22.250  -3.715 -11.052  0.00  0.00     0.106 C 
BRANCH  14  15
HETATM   15  S           1     -20.456  -3.984 -10.985  0.00  0.00    -0.180 SA
HETATM   16  H           1     -20.147  -3.111 -11.960  0.00  0.00     0.101 HD
ENDBRANCH  14  15
ENDBRANCH  13  14
BRANCH  13  17
HETATM   17  C           1     -24.315  -3.781  -9.687  0.00  0.00     0.197 C 
HETATM   18  O           1     -24.850  -4.891  -9.901  0.00  0.00    -0.646 OA
HETATM   19  O           1     -25.025  -2.768  -9.514  0.00  0.00    -0.646 OA
ENDBRANCH  13  17
ENDBRANCH   2  13
TORSDOF 8
ENDMDL
MODEL 4
REMARK VINA RESULT:      -4.4      9.777     11.224
REMARK  8 active torsions:
REMARK  status: ('A' for Active; 'I' for Inactive)
REMARK    1  A    between atoms: S_1  and  C_5 
REMARK    2  A    between atoms: N_2  and  C_6 
REMARK    3  A    between atoms: C_3  and  S_4 
REMARK    4  A    between atoms: C_3  and  C_12 
REMARK    5  A    between atoms: C_5  and  C_6 
REMARK    6  A    between atoms: C_6  and  C_7 
REMARK       I    between atoms: C_7  and  N_8 
REMARK    7  A    between atoms: N_8  and  C_12 
REMARK    8  A    between atoms: C_11  and  C_12 
ROOT
HETATM    1  C           1     -26.699  -6.406 -18.981  0.00  0.00     0.249 C 
HETATM    2  N           1     -26.991  -6.701 -17.676  0.00  0.00    -0.344 N 
HETATM    3  O           1     -27.543  -5.918 -19.694  0.00  0.00    -0.271 OA
HETATM    4  H           1     -26.284  -7.110 -17.079  0.00  0.00     0.163 HD
ENDROOT
BRANCH   1   5
HETATM    5  C           1     -25.321  -6.691 -19.527  0.00  0.00     0.283 C 
BRANCH   5   6
HETATM    6  N           1     -24.502  -7.386 -18.480  0.00  0.00    -0.066 N 
HETATM    7  H           1     -24.967  -8.281 -18.209  0.00  0.00     0.275 HD
HETATM    8  H           1     -23.550  -7.590 -18.863  0.00  0.00     0.275 HD
HETATM    9  H           1     -24.415  -6.769 -17.641  0.00  0.00     0.275 HD
ENDBRANCH   5   6
BRANCH   5  10
HETATM   10  C           1     -25.437  -7.584 -20.755  0.00  0.00     0.113 C 
BRANCH  10  11
HETATM   11  S           1     -23.787  -8.168 -21.237  0.00  0.00    -0.180 SA
HETATM   12  H           1     -23.877  -7.794 -22.526  0.00  0.00     0.101 HD
ENDBRANCH  10  11
ENDBRANCH   5  10
ENDBRANCH   1   5
BRANCH   2  13
HETATM   13  C           1     -28.314  -6.427 -17.150  0.00  0.00     0.194 C 
BRANCH  13  14
HETATM   14  C           1     -29.292  -7.474 -17.666  0.00  0.00     0.106 C 
BRANCH  14  15
HETATM   15  S           1     -30.988  -6.843 -17.522  0.00  0.00    -0.180 SA
HETATM   16  H           1     -30.917  -6.010 -18.575  0.00  0.00     0.101 HD
ENDBRANCH  14  15
ENDBRANCH  13  14
BRANCH  13  17
HETATM   17  C           1     -28.275  -6.474 -15.642  0.00  0.00     0.197 C 
HETATM   18  O           1     -28.686  -5.499 -14.976  0.00  0.00    -0.646 OA
HETATM   19  O           1     -27.832  -7.487 -15.060  0.00  0.00    -0.646 OA
ENDBRANCH  13  17
ENDBRANCH   2  13
TORSDOF 8
ENDMDL
MODEL 5
REMARK VINA RESULT:      -4.4      9.814     11.099
REMARK  8 active torsions:
REMARK  status: ('A' for Active; 'I' for Inactive)
REMARK    1  A    between atoms: S_1  and  C_5 
REMARK    2  A    between atoms: N_2  and  C_6 
REMARK    3  A    between atoms: C_3  and  S_4 
REMARK    4  A    between atoms: C_3  and  C_12 
REMARK    5  A    between atoms: C_5  and  C_6 
REMARK    6  A    between atoms: C_6  and  C_7 
REMARK       I    between atoms: C_7  and  N_8 
REMARK    7  A    between atoms: N_8  and  C_12 
REMARK    8  A    between atoms: C_11  and  C_12 
ROOT
HETATM    1  C           1     -26.564  -6.336 -18.323  0.00  0.00     0.249 C 
HETATM    2  N           1     -27.819  -6.706 -18.727  0.00  0.00    -0.344 N 
HETATM    3  O           1     -26.393  -5.888 -17.214  0.00  0.00    -0.271 OA
HETATM    4  H           1     -27.962  -7.080 -19.656  0.00  0.00     0.163 HD
ENDROOT
BRANCH   1   5
HETATM    5  C           1     -25.394  -6.489 -19.264  0.00  0.00     0.283 C 
BRANCH   5   6
HETATM    6  N           1     -24.363  -7.383 -18.640  0.00  0.00    -0.066 N 
HETATM    7  H           1     -23.418  -6.947 -18.736  0.00  0.00     0.275 HD
HETATM    8  H           1     -24.585  -7.514 -17.627  0.00  0.00     0.275 HD
HETATM    9  H           1     -24.370  -8.310 -19.122  0.00  0.00     0.275 HD
ENDBRANCH   5   6
BRANCH   5  10
HETATM   10  C           1     -25.872  -7.105 -20.573  0.00  0.00     0.113 C 
BRANCH  10  11
HETATM   11  S           1     -24.475  -7.904 -21.412  0.00  0.00    -0.180 SA
HETATM   12  H           1     -24.783  -7.465 -22.646  0.00  0.00     0.101 HD
ENDBRANCH  10  11
ENDBRANCH   5  10
ENDBRANCH   1   5
BRANCH   2  13
HETATM   13  C           1     -28.943  -6.559 -17.823  0.00  0.00     0.194 C 
BRANCH  13  14
HETATM   14  C           1     -29.855  -5.447 -18.323  0.00  0.00     0.106 C 
BRANCH  14  15
HETATM   15  S           1     -31.140  -5.113 -17.085  0.00  0.00    -0.180 SA
HETATM   16  H           1     -31.975  -4.469 -17.920  0.00  0.00     0.101 HD
ENDBRANCH  14  15
ENDBRANCH  13  14
BRANCH  13  17
HETATM   17  C           1     -29.714  -7.856 -17.766  0.00  0.00     0.197 C 
HETATM   18  O           1     -30.452  -8.186 -18.720  0.00  0.00    -0.646 OA
HETATM   19  O           1     -29.615  -8.598 -16.766  0.00  0.00    -0.646 OA
ENDBRANCH  13  17
ENDBRANCH   2  13
TORSDOF 8
ENDMDL
MODEL 6
REMARK VINA RESULT:      -4.2     12.943     15.199
REMARK  8 active torsions:
REMARK  status: ('A' for Active; 'I' for Inactive)
REMARK    1  A    between atoms: S_1  and  C_5 
REMARK    2  A    between atoms: N_2  and  C_6 
REMARK    3  A    between atoms: C_3  and  S_4 
REMARK    4  A    between atoms: C_3  and  C_12 
REMARK    5  A    between atoms: C_5  and  C_6 
REMARK    6  A    between atoms: C_6  and  C_7 
REMARK       I    between atoms: C_7  and  N_8 
REMARK    7  A    between atoms: N_8  and  C_12 
REMARK    8  A    between atoms: C_11  and  C_12 
ROOT
HETATM    1  C           1     -22.411  -4.217  -7.957  0.00  0.00     0.249 C 
HETATM    2  N           1     -22.241  -5.411  -7.311  0.00  0.00    -0.344 N 
HETATM    3  O           1     -21.889  -3.216  -7.525  0.00  0.00    -0.271 OA
HETATM    4  H           1     -22.679  -6.249  -7.671  0.00  0.00     0.163 HD
ENDROOT
BRANCH   1   5
HETATM    5  C           1     -23.252  -4.150  -9.209  0.00  0.00     0.283 C 
BRANCH   5   6
HETATM    6  N           1     -24.458  -3.296  -8.956  0.00  0.00    -0.066 N 
HETATM    7  H           1     -24.285  -2.681  -8.129  0.00  0.00     0.275 HD
HETATM    8  H           1     -24.647  -2.704  -9.797  0.00  0.00     0.275 HD
HETATM    9  H           1     -25.285  -3.908  -8.768  0.00  0.00     0.275 HD
ENDBRANCH   5   6
BRANCH   5  10
HETATM   10  C           1     -22.431  -3.546 -10.340  0.00  0.00     0.113 C 
BRANCH  10  11
HETATM   11  S           1     -23.527  -3.116 -11.722  0.00  0.00    -0.180 SA
HETATM   12  H           1     -22.560  -2.637 -12.524  0.00  0.00     0.101 HD
ENDBRANCH  10  11
ENDBRANCH   5  10
ENDBRANCH   1   5
BRANCH   2  13
HETATM   13  C           1     -21.434  -5.476  -6.108  0.00  0.00     0.194 C 
BRANCH  13  14
HETATM   14  C           1     -21.979  -6.561  -5.188  0.00  0.00     0.106 C 
BRANCH  14  15
HETATM   15  S           1     -21.415  -6.257  -3.490  0.00  0.00    -0.180 SA
HETATM   16  H           1     -22.433  -6.899  -2.888  0.00  0.00     0.101 HD
ENDBRANCH  14  15
ENDBRANCH  13  14
BRANCH  13  17
HETATM   17  C           1     -20.007  -5.799  -6.477  0.00  0.00     0.197 C 
HETATM   18  O           1     -19.655  -6.988  -6.630  0.00  0.00    -0.646 OA
HETATM   19  O           1     -19.177  -4.877  -6.630  0.00  0.00    -0.646 OA
ENDBRANCH  13  17
ENDBRANCH   2  13
TORSDOF 8
ENDMDL
MODEL 7
REMARK VINA RESULT:      -4.2     12.436     14.478
REMARK  8 active torsions:
REMARK  status: ('A' for Active; 'I' for Inactive)
REMARK    1  A    between atoms: S_1  and  C_5 
REMARK    2  A    between atoms: N_2  and  C_6 
REMARK    3  A    between atoms: C_3  and  S_4 
REMARK    4  A    between atoms: C_3  and  C_12 
REMARK    5  A    between atoms: C_5  and  C_6 
REMARK    6  A    between atoms: C_6  and  C_7 
REMARK       I    between atoms: C_7  and  N_8 
REMARK    7  A    between atoms: N_8  and  C_12 
REMARK    8  A    between atoms: C_11  and  C_12 
ROOT
HETATM    1  C           1     -22.456  -4.505  -9.359  0.00  0.00     0.249 C 
HETATM    2  N           1     -22.487  -4.825  -8.029  0.00  0.00    -0.344 N 
HETATM    3  O           1     -21.439  -4.658  -9.994  0.00  0.00    -0.271 OA
HETATM    4  H           1     -23.338  -4.696  -7.497  0.00  0.00     0.163 HD
ENDROOT
BRANCH   1   5
HETATM    5  C           1     -23.691  -3.960 -10.032  0.00  0.00     0.283 C 
BRANCH   5   6
HETATM    6  N           1     -24.564  -3.292  -9.011  0.00  0.00    -0.066 N 
HETATM    7  H           1     -24.070  -3.267  -8.091  0.00  0.00     0.275 HD
HETATM    8  H           1     -24.775  -2.316  -9.320  0.00  0.00     0.275 HD
HETATM    9  H           1     -25.456  -3.828  -8.913  0.00  0.00     0.275 HD
ENDBRANCH   5   6
BRANCH   5  10
HETATM   10  C           1     -23.286  -2.945 -11.094  0.00  0.00     0.113 C 
BRANCH  10  11
HETATM   11  S           1     -24.255  -3.227 -12.603  0.00  0.00    -0.180 SA
HETATM   12  H           1     -23.204  -3.508 -13.394  0.00  0.00     0.101 HD
ENDBRANCH  10  11
ENDBRANCH   5  10
ENDBRANCH   1   5
BRANCH   2  13
HETATM   13  C           1     -21.300  -5.349  -7.381  0.00  0.00     0.194 C 
BRANCH  13  14
HETATM   14  C           1     -20.479  -4.197  -6.818  0.00  0.00     0.106 C 
BRANCH  14  15
HETATM   15  S           1     -18.774  -4.311  -7.430  0.00  0.00    -0.180 SA
HETATM   16  H           1     -18.343  -3.173  -6.858  0.00  0.00     0.101 HD
ENDBRANCH  14  15
ENDBRANCH  13  14
BRANCH  13  17
HETATM   17  C           1     -21.706  -6.273  -6.259  0.00  0.00     0.197 C 
HETATM   18  O           1     -21.229  -7.427  -6.197  0.00  0.00    -0.646 OA
HETATM   19  O           1     -22.519  -5.885  -5.393  0.00  0.00    -0.646 OA
ENDBRANCH  13  17
ENDBRANCH   2  13
TORSDOF 8
ENDMDL
MODEL 8
REMARK VINA RESULT:      -4.2     12.652     14.318
REMARK  8 active torsions:
REMARK  status: ('A' for Active; 'I' for Inactive)
REMARK    1  A    between atoms: S_1  and  C_5 
REMARK    2  A    between atoms: N_2  and  C_6 
REMARK    3  A    between atoms: C_3  and  S_4 
REMARK    4  A    between atoms: C_3  and  C_12 
REMARK    5  A    between atoms: C_5  and  C_6 
REMARK    6  A    between atoms: C_6  and  C_7 
REMARK       I    between atoms: C_7  and  N_8 
REMARK    7  A    between atoms: N_8  and  C_12 
REMARK    8  A    between atoms: C_11  and  C_12 
ROOT
HETATM    1  C           1     -21.028  -4.534  -8.404  0.00  0.00     0.249 C 
HETATM    2  N           1     -22.030  -4.069  -9.213  0.00  0.00    -0.344 N 
HETATM    3  O           1     -20.110  -5.160  -8.879  0.00  0.00    -0.271 OA
HETATM    4  H           1     -22.799  -3.545  -8.815  0.00  0.00     0.163 HD
ENDROOT
BRANCH   1   5
HETATM    5  C           1     -21.072  -4.266  -6.920  0.00  0.00     0.283 C 
BRANCH   5   6
HETATM    6  N           1     -22.366  -4.774  -6.358  0.00  0.00    -0.066 N 
HETATM    7  H           1     -23.098  -4.032  -6.437  0.00  0.00     0.275 HD
HETATM    8  H           1     -22.669  -5.620  -6.892  0.00  0.00     0.275 HD
HETATM    9  H           1     -22.233  -5.026  -5.352  0.00  0.00     0.275 HD
ENDBRANCH   5   6
BRANCH   5  10
HETATM   10  C           1     -19.910  -4.978  -6.241  0.00  0.00     0.113 C 
BRANCH  10  11
HETATM   11  S           1     -20.473  -6.581  -5.601  0.00  0.00    -0.180 SA
HETATM   12  H           1     -20.162  -6.336  -4.316  0.00  0.00     0.101 HD
ENDBRANCH  10  11
ENDBRANCH   5  10
ENDBRANCH   1   5
BRANCH   2  13
HETATM   13  C           1     -21.989  -4.326 -10.639  0.00  0.00     0.194 C 
BRANCH  13  14
HETATM   14  C           1     -23.388  -4.664 -11.135  0.00  0.00     0.106 C 
BRANCH  14  15
HETATM   15  S           1     -24.617  -4.048  -9.949  0.00  0.00    -0.180 SA
HETATM   16  H           1     -25.351  -3.369 -10.849  0.00  0.00     0.101 HD
ENDBRANCH  14  15
ENDBRANCH  13  14
BRANCH  13  17
HETATM   17  C           1     -21.483  -3.098 -11.357  0.00  0.00     0.197 C 
HETATM   18  O           1     -20.273  -2.789 -11.289  0.00  0.00    -0.646 OA
HETATM   19  O           1     -22.272  -2.392 -12.019  0.00  0.00    -0.646 OA
ENDBRANCH  13  17
ENDBRANCH   2  13
TORSDOF 8
ENDMDL
MODEL 9
REMARK VINA RESULT:      -4.1      2.609      4.826
REMARK  8 active torsions:
REMARK  status: ('A' for Active; 'I' for Inactive)
REMARK    1  A    between atoms: S_1  and  C_5 
REMARK    2  A    between atoms: N_2  and  C_6 
REMARK    3  A    between atoms: C_3  and  S_4 
REMARK    4  A    between atoms: C_3  and  C_12 
REMARK    5  A    between atoms: C_5  and  C_6 
REMARK    6  A    between atoms: C_6  and  C_7 
REMARK       I    between atoms: C_7  and  N_8 
REMARK    7  A    between atoms: N_8  and  C_12 
REMARK    8  A    between atoms: C_11  and  C_12 
ROOT
HETATM    1  C           1     -35.214  -1.239 -13.206  0.00  0.00     0.249 C 
HETATM    2  N           1     -34.744  -1.971 -12.150  0.00  0.00    -0.344 N 
HETATM    3  O           1     -35.118  -1.668 -14.331  0.00  0.00    -0.271 OA
HETATM    4  H           1     -34.824  -1.611 -11.208  0.00  0.00     0.163 HD
ENDROOT
BRANCH   1   5
HETATM    5  C           1     -35.854   0.107 -12.964  0.00  0.00     0.283 C 
BRANCH   5   6
HETATM    6  N           1     -35.844   0.901 -14.237  0.00  0.00    -0.066 N 
HETATM    7  H           1     -36.478   1.726 -14.139  0.00  0.00     0.275 HD
HETATM    8  H           1     -34.872   1.231 -14.433  0.00  0.00     0.275 HD
HETATM    9  H           1     -36.174   0.299 -15.025  0.00  0.00     0.275 HD
ENDBRANCH   5   6
BRANCH   5  10
HETATM   10  C           1     -37.292  -0.090 -12.501  0.00  0.00     0.113 C 
BRANCH  10  11
HETATM   11  S           1     -37.379   0.100 -10.698  0.00  0.00    -0.180 SA
HETATM   12  H           1     -36.051   0.053 -10.488  0.00  0.00     0.101 HD
ENDBRANCH  10  11
ENDBRANCH   5  10
ENDBRANCH   1   5
BRANCH   2  13
HETATM   13  C           1     -34.129  -3.264 -12.381  0.00  0.00     0.194 C 
BRANCH  13  14
HETATM   14  C           1     -32.879  -3.393 -11.521  0.00  0.00     0.106 C 
BRANCH  14  15
HETATM   15  S           1     -31.896  -4.810 -12.088  0.00  0.00    -0.180 SA
HETATM   16  H           1     -32.872  -5.372 -12.825  0.00  0.00     0.101 HD
ENDBRANCH  14  15
ENDBRANCH  13  14
BRANCH  13  17
HETATM   17  C           1     -35.105  -4.357 -12.020  0.00  0.00     0.197 C 
HETATM   18  O           1     -35.229  -5.355 -12.763  0.00  0.00    -0.646 OA
HETATM   19  O           1     -35.789  -4.264 -10.978  0.00  0.00    -0.646 OA
ENDBRANCH  13  17
ENDBRANCH   2  13
TORSDOF 8
ENDMDL
