MODEL 1
REMARK VINA RESULT:      -6.7      0.000      0.000
REMARK  16 active torsions:
REMARK  status: ('A' for Active; 'I' for Inactive)
REMARK    1  A    between atoms: C_1  and  C_29 
REMARK    2  A    between atoms: C_1  and  C_21 
REMARK    3  A    between atoms: C_2  and  C_33 
REMARK    4  A    between atoms: N_5  and  C_33 
REMARK    5  A    between atoms: N_5  and  C_6 
REMARK    6  A    between atoms: C_6  and  C_7 
REMARK    7  A    between atoms: C_7  and  C_8 
REMARK    8  A    between atoms: C_8  and  C_30 
REMARK    9  A    between atoms: C_8  and  N_27 
REMARK       I    between atoms: C_9  and  N_10 
REMARK       I    between atoms: C_9  and  N_11 
REMARK   10  A    between atoms: N_12  and  C_29 
REMARK   11  A    between atoms: C_21  and  C_22 
REMARK   12  A    between atoms: C_22  and  N_23 
REMARK   13  A    between atoms: Se_25  and  C_35 
REMARK       I    between atoms: N_27  and  C_28 
REMARK   14  A    between atoms: C_28  and  C_29 
REMARK   15  A    between atoms: C_33  and  C_34 
REMARK   16  A    between atoms: C_34  and  C_35 
ROOT
HETATM    1  O           1     -20.279  -4.371  -6.228  0.00  0.00    -0.271 OA
HETATM    2  H           1     -21.867  -6.988  -6.913  0.00  0.00     0.163 HD
HETATM    3  N           1     -21.283  -6.360  -6.376  0.00  0.00    -0.345 N 
HETATM    4  C           1     -20.976  -5.120  -6.870  0.00  0.00     0.249 C 
ENDROOT
BRANCH   4   5
HETATM    5  C           1     -21.507  -4.691  -8.215  0.00  0.00     0.274 C 
BRANCH   5   6
HETATM    6  C           1     -20.369  -4.127  -9.054  0.00  0.00     0.044 C 
BRANCH   6   7
HETATM    7  C           1     -20.578  -4.505 -10.514  0.00  0.00     0.023 C 
BRANCH   7   8
HETATM    8  C           1     -20.917  -3.258 -11.320  0.00  0.00     0.138 C 
BRANCH   8   9
HETATM    9  N           1     -21.655  -3.642 -12.532  0.00  0.00    -0.227 N 
HETATM   10  C           1     -22.890  -3.380 -12.630  0.00  0.00     0.665 C 
HETATM   11  N           1     -23.525  -3.711 -13.674  0.00  0.00    -0.235 N 
HETATM   12  N           1     -23.504  -2.771 -11.660  0.00  0.00    -0.235 N 
HETATM   13  H           1     -24.549  -3.493 -13.756  0.00  0.00     0.174 HD
HETATM   14  H           1     -23.029  -4.202 -14.458  0.00  0.00     0.174 HD
HETATM   15  H           1     -24.524  -2.556 -11.741  0.00  0.00     0.174 HD
HETATM   16  H           1     -22.980  -2.498 -10.799  0.00  0.00     0.174 HD
HETATM   17  H           1     -21.158  -4.133 -13.316  0.00  0.00     0.177 HD
ENDBRANCH   8   9
ENDBRANCH   7   8
ENDBRANCH   6   7
ENDBRANCH   5   6
BRANCH   5  18
HETATM   18  N           1     -22.558  -3.638  -8.024  0.00  0.00    -0.067 N 
HETATM   19  H           1     -22.524  -3.286  -7.041  0.00  0.00     0.275 HD
HETATM   20  H           1     -22.379  -2.847  -8.683  0.00  0.00     0.275 HD
HETATM   21  H           1     -23.500  -4.047  -8.215  0.00  0.00     0.275 HD
ENDBRANCH   5  18
ENDBRANCH   4   5
BRANCH   3  22
HETATM   22  C           1     -20.773  -6.773  -5.083  0.00  0.00     0.187 C 
BRANCH  22  23
HETATM   23  C           1     -21.866  -6.622  -4.034  0.00  0.00     0.066 C 
BRANCH  23  24
HETATM   24  C           1     -21.235  -6.549  -2.649  0.00  0.00     0.273 C 
BRANCH  24  25
HETATM   25  N           1     -22.249  -6.744  -1.649  0.00  0.00     0.098 N 
HETATM   26  H           1     -23.171  -6.670  -2.080  0.00  0.00     0.317 HD
BRANCH  25  27
HETATM   27  C           1     -22.080  -8.063  -1.105  0.00  0.00     0.320 C 
BRANCH  27  28
HETATM   28  C           1     -22.371  -8.038   0.376  0.00  0.00     0.207 C 
HETATM   29  O           1     -21.441  -8.181   1.199  0.00  0.00    -0.646 OA
HETATM   30  O           1     -23.543  -7.872   0.779  0.00  0.00    -0.646 OA
ENDBRANCH  27  28
BRANCH  27  31
HETATM   31  C           1     -20.647  -8.526  -1.333  0.00  0.00     0.047 C 
BRANCH  31  32
HETATM   32  C           1     -20.650  -9.970  -1.819  0.00  0.00     0.003 C 
BRANCH  32  33
HETATM   33 Se           1     -19.964 -11.132  -0.413  0.00  0.00     0.000 Se
HETATM   34  C           1     -21.725 -11.637   0.254  0.00  0.00     0.000 C 
ENDBRANCH  32  33
ENDBRANCH  31  32
ENDBRANCH  27  31
ENDBRANCH  25  27
ENDBRANCH  24  25
ENDBRANCH  23  24
ENDBRANCH  22  23
BRANCH  22  35
HETATM   35  C           1     -20.337  -8.216  -5.152  0.00  0.00     0.196 C 
HETATM   36  O           1     -21.109  -9.080  -5.623  0.00  0.00    -0.646 OA
HETATM   37  O           1     -19.206  -8.548  -4.738  0.00  0.00    -0.646 OA
ENDBRANCH  22  35
ENDBRANCH   3  22
TORSDOF 16
ENDMDL
MODEL 2
REMARK VINA RESULT:      -6.4      2.961      4.883
REMARK  16 active torsions:
REMARK  status: ('A' for Active; 'I' for Inactive)
REMARK    1  A    between atoms: C_1  and  C_29 
REMARK    2  A    between atoms: C_1  and  C_21 
REMARK    3  A    between atoms: C_2  and  C_33 
REMARK    4  A    between atoms: N_5  and  C_33 
REMARK    5  A    between atoms: N_5  and  C_6 
REMARK    6  A    between atoms: C_6  and  C_7 
REMARK    7  A    between atoms: C_7  and  C_8 
REMARK    8  A    between atoms: C_8  and  C_30 
REMARK    9  A    between atoms: C_8  and  N_27 
REMARK       I    between atoms: C_9  and  N_10 
REMARK       I    between atoms: C_9  and  N_11 
REMARK   10  A    between atoms: N_12  and  C_29 
REMARK   11  A    between atoms: C_21  and  C_22 
REMARK   12  A    between atoms: C_22  and  N_23 
REMARK   13  A    between atoms: Se_25  and  C_35 
REMARK       I    between atoms: N_27  and  C_28 
REMARK   14  A    between atoms: C_28  and  C_29 
REMARK   15  A    between atoms: C_33  and  C_34 
REMARK   16  A    between atoms: C_34  and  C_35 
ROOT
HETATM    1  O           1     -21.450  -7.955  -5.499  0.00  0.00    -0.271 OA
HETATM    2  H           1     -20.566  -5.730  -3.471  0.00  0.00     0.163 HD
HETATM    3  N           1     -20.910  -6.629  -3.785  0.00  0.00    -0.345 N 
HETATM    4  C           1     -21.040  -6.882  -5.125  0.00  0.00     0.249 C 
ENDROOT
BRANCH   4   5
HETATM    5  C           1     -20.671  -5.821  -6.132  0.00  0.00     0.274 C 
BRANCH   5   6
HETATM    6  C           1     -21.938  -5.179  -6.680  0.00  0.00     0.044 C 
BRANCH   6   7
HETATM    7  C           1     -21.587  -3.863  -7.361  0.00  0.00     0.023 C 
BRANCH   7   8
HETATM    8  C           1     -22.089  -3.884  -8.799  0.00  0.00     0.138 C 
BRANCH   8   9
HETATM    9  N           1     -23.484  -3.419  -8.838  0.00  0.00    -0.227 N 
HETATM   10  C           1     -24.309  -3.960  -9.631  0.00  0.00     0.665 C 
HETATM   11  N           1     -25.509  -3.560  -9.665  0.00  0.00    -0.235 N 
HETATM   12  N           1     -23.923  -4.927 -10.410  0.00  0.00    -0.235 N 
HETATM   13  H           1     -26.194  -4.009 -10.323  0.00  0.00     0.174 HD
HETATM   14  H           1     -25.820  -2.780  -9.036  0.00  0.00     0.174 HD
HETATM   15  H           1     -24.604  -5.374 -11.065  0.00  0.00     0.174 HD
HETATM   16  H           1     -22.932  -5.257 -10.382  0.00  0.00     0.174 HD
HETATM   17  H           1     -23.795  -2.639  -8.208  0.00  0.00     0.177 HD
ENDBRANCH   8   9
ENDBRANCH   7   8
ENDBRANCH   6   7
ENDBRANCH   5   6
BRANCH   5  18
HETATM   18  N           1     -19.900  -6.446  -7.256  0.00  0.00    -0.067 N 
HETATM   19  H           1     -19.151  -5.790  -7.573  0.00  0.00     0.275 HD
HETATM   20  H           1     -19.465  -7.337  -6.926  0.00  0.00     0.275 HD
HETATM   21  H           1     -20.547  -6.647  -8.052  0.00  0.00     0.275 HD
ENDBRANCH   5  18
ENDBRANCH   4   5
BRANCH   3  22
HETATM   22  C           1     -21.264  -7.648  -2.816  0.00  0.00     0.187 C 
BRANCH  22  23
HETATM   23  C           1     -19.997  -8.308  -2.288  0.00  0.00     0.066 C 
BRANCH  23  24
HETATM   24  C           1     -20.085  -9.814  -2.496  0.00  0.00     0.273 C 
BRANCH  24  25
HETATM   25  N           1     -19.979 -10.112  -3.898  0.00  0.00     0.098 N 
HETATM   26  H           1     -20.643  -9.537  -4.419  0.00  0.00     0.317 HD
BRANCH  25  27
HETATM   27  C           1     -18.641  -9.793  -4.314  0.00  0.00     0.320 C 
BRANCH  27  28
HETATM   28  C           1     -18.548  -9.880  -5.818  0.00  0.00     0.207 C 
HETATM   29  O           1     -18.160  -8.892  -6.478  0.00  0.00    -0.646 OA
HETATM   30  O           1     -18.859 -10.940  -6.403  0.00  0.00    -0.646 OA
ENDBRANCH  27  28
BRANCH  27  31
HETATM   31  C           1     -17.666 -10.780  -3.687  0.00  0.00     0.047 C 
BRANCH  31  32
HETATM   32  C           1     -16.250 -10.226  -3.782  0.00  0.00     0.003 C 
BRANCH  32  33
HETATM   33 Se           1     -15.185 -11.360  -4.956  0.00  0.00     0.000 Se
HETATM   34  C           1     -14.384 -12.388  -3.506  0.00  0.00     0.000 C 
ENDBRANCH  32  33
ENDBRANCH  31  32
ENDBRANCH  27  31
ENDBRANCH  25  27
ENDBRANCH  24  25
ENDBRANCH  23  24
ENDBRANCH  22  23
BRANCH  22  35
HETATM   35  C           1     -22.016  -7.014  -1.673  0.00  0.00     0.196 C 
HETATM   36  O           1     -22.066  -7.588  -0.562  0.00  0.00    -0.646 OA
HETATM   37  O           1     -22.590  -5.916  -1.834  0.00  0.00    -0.646 OA
ENDBRANCH  22  35
ENDBRANCH   3  22
TORSDOF 16
ENDMDL
MODEL 3
REMARK VINA RESULT:      -6.3      2.005      2.475
REMARK  16 active torsions:
REMARK  status: ('A' for Active; 'I' for Inactive)
REMARK    1  A    between atoms: C_1  and  C_29 
REMARK    2  A    between atoms: C_1  and  C_21 
REMARK    3  A    between atoms: C_2  and  C_33 
REMARK    4  A    between atoms: N_5  and  C_33 
REMARK    5  A    between atoms: N_5  and  C_6 
REMARK    6  A    between atoms: C_6  and  C_7 
REMARK    7  A    between atoms: C_7  and  C_8 
REMARK    8  A    between atoms: C_8  and  C_30 
REMARK    9  A    between atoms: C_8  and  N_27 
REMARK       I    between atoms: C_9  and  N_10 
REMARK       I    between atoms: C_9  and  N_11 
REMARK   10  A    between atoms: N_12  and  C_29 
REMARK   11  A    between atoms: C_21  and  C_22 
REMARK   12  A    between atoms: C_22  and  N_23 
REMARK   13  A    between atoms: Se_25  and  C_35 
REMARK       I    between atoms: N_27  and  C_28 
REMARK   14  A    between atoms: C_28  and  C_29 
REMARK   15  A    between atoms: C_33  and  C_34 
REMARK   16  A    between atoms: C_34  and  C_35 
ROOT
HETATM    1  O           1     -23.157  -4.101  -6.751  0.00  0.00    -0.271 OA
HETATM    2  H           1     -21.269  -6.025  -8.356  0.00  0.00     0.163 HD
HETATM    3  N           1     -21.658  -5.549  -7.552  0.00  0.00    -0.345 N 
HETATM    4  C           1     -22.694  -4.668  -7.712  0.00  0.00     0.249 C 
ENDROOT
BRANCH   4   5
HETATM    5  C           1     -23.256  -4.407  -9.088  0.00  0.00     0.274 C 
BRANCH   5   6
HETATM    6  C           1     -22.261  -3.582  -9.894  0.00  0.00     0.044 C 
BRANCH   6   7
HETATM    7  C           1     -21.572  -4.475 -10.917  0.00  0.00     0.023 C 
BRANCH   7   8
HETATM    8  C           1     -21.545  -3.773 -12.269  0.00  0.00     0.138 C 
BRANCH   8   9
HETATM    9  N           1     -22.702  -2.872 -12.377  0.00  0.00    -0.227 N 
HETATM   10  C           1     -23.150  -2.551 -13.517  0.00  0.00     0.665 C 
HETATM   11  N           1     -24.146  -1.777 -13.610  0.00  0.00    -0.235 N 
HETATM   12  N           1     -22.587  -3.019 -14.591  0.00  0.00    -0.235 N 
HETATM   13  H           1     -24.517  -1.510 -14.556  0.00  0.00     0.174 HD
HETATM   14  H           1     -24.601  -1.399 -12.743  0.00  0.00     0.174 HD
HETATM   15  H           1     -22.955  -2.754 -15.533  0.00  0.00     0.174 HD
HETATM   16  H           1     -21.764  -3.659 -14.514  0.00  0.00     0.174 HD
HETATM   17  H           1     -23.158  -2.496 -11.509  0.00  0.00     0.177 HD
ENDBRANCH   8   9
ENDBRANCH   7   8
ENDBRANCH   6   7
ENDBRANCH   5   6
BRANCH   5  18
HETATM   18  N           1     -24.546  -3.653  -8.965  0.00  0.00    -0.067 N 
HETATM   19  H           1     -24.643  -3.282  -7.993  0.00  0.00     0.275 HD
HETATM   20  H           1     -24.549  -2.858  -9.643  0.00  0.00     0.275 HD
HETATM   21  H           1     -25.345  -4.294  -9.175  0.00  0.00     0.275 HD
ENDBRANCH   5  18
ENDBRANCH   4   5
BRANCH   3  22
HETATM   22  C           1     -21.118  -5.802  -6.230  0.00  0.00     0.187 C 
BRANCH  22  23
HETATM   23  C           1     -20.639  -7.245  -6.144  0.00  0.00     0.066 C 
BRANCH  23  24
HETATM   24  C           1     -21.250  -7.910  -4.918  0.00  0.00     0.273 C 
BRANCH  24  25
HETATM   25  N           1     -21.092  -7.050  -3.777  0.00  0.00     0.098 N 
HETATM   26  H           1     -21.722  -6.251  -3.863  0.00  0.00     0.317 HD
BRANCH  25  27
HETATM   27  C           1     -21.440  -7.807  -2.605  0.00  0.00     0.320 C 
BRANCH  27  28
HETATM   28  C           1     -22.073  -6.893  -1.585  0.00  0.00     0.207 C 
HETATM   29  O           1     -22.186  -7.265  -0.397  0.00  0.00    -0.646 OA
HETATM   30  O           1     -22.484  -5.763  -1.929  0.00  0.00    -0.646 OA
ENDBRANCH  27  28
BRANCH  27  31
HETATM   31  C           1     -20.184  -8.434  -2.016  0.00  0.00     0.047 C 
BRANCH  31  32
HETATM   32  C           1     -20.490  -9.856  -1.561  0.00  0.00     0.003 C 
BRANCH  32  33
HETATM   33 Se           1     -22.041 -10.529  -2.531  0.00  0.00     0.000 Se
HETATM   34  C           1     -23.174 -10.667  -0.951  0.00  0.00     0.000 C 
ENDBRANCH  32  33
ENDBRANCH  31  32
ENDBRANCH  27  31
ENDBRANCH  25  27
ENDBRANCH  24  25
ENDBRANCH  23  24
ENDBRANCH  22  23
BRANCH  22  35
HETATM   35  C           1     -19.958  -4.871  -5.975  0.00  0.00     0.196 C 
HETATM   36  O           1     -19.777  -4.395  -4.833  0.00  0.00    -0.646 OA
HETATM   37  O           1     -19.178  -4.575  -6.906  0.00  0.00    -0.646 OA
ENDBRANCH  22  35
ENDBRANCH   3  22
TORSDOF 16
ENDMDL
MODEL 4
REMARK VINA RESULT:      -6.2      3.007      4.453
REMARK  16 active torsions:
REMARK  status: ('A' for Active; 'I' for Inactive)
REMARK    1  A    between atoms: C_1  and  C_29 
REMARK    2  A    between atoms: C_1  and  C_21 
REMARK    3  A    between atoms: C_2  and  C_33 
REMARK    4  A    between atoms: N_5  and  C_33 
REMARK    5  A    between atoms: N_5  and  C_6 
REMARK    6  A    between atoms: C_6  and  C_7 
REMARK    7  A    between atoms: C_7  and  C_8 
REMARK    8  A    between atoms: C_8  and  C_30 
REMARK    9  A    between atoms: C_8  and  N_27 
REMARK       I    between atoms: C_9  and  N_10 
REMARK       I    between atoms: C_9  and  N_11 
REMARK   10  A    between atoms: N_12  and  C_29 
REMARK   11  A    between atoms: C_21  and  C_22 
REMARK   12  A    between atoms: C_22  and  N_23 
REMARK   13  A    between atoms: Se_25  and  C_35 
REMARK       I    between atoms: N_27  and  C_28 
REMARK   14  A    between atoms: C_28  and  C_29 
REMARK   15  A    between atoms: C_33  and  C_34 
REMARK   16  A    between atoms: C_34  and  C_35 
ROOT
HETATM    1  O           1     -22.737  -5.531  -5.761  0.00  0.00    -0.271 OA
HETATM    2  H           1     -19.880  -6.551  -4.964  0.00  0.00     0.163 HD
HETATM    3  N           1     -20.891  -6.504  -4.967  0.00  0.00    -0.345 N 
HETATM    4  C           1     -21.531  -5.587  -5.758  0.00  0.00     0.249 C 
ENDROOT
BRANCH   4   5
HETATM    5  C           1     -20.729  -4.647  -6.624  0.00  0.00     0.274 C 
BRANCH   5   6
HETATM    6  C           1     -21.660  -3.927  -7.589  0.00  0.00     0.044 C 
BRANCH   6   7
HETATM    7  C           1     -21.282  -4.282  -9.021  0.00  0.00     0.023 C 
BRANCH   7   8
HETATM    8  C           1     -22.282  -3.653  -9.983  0.00  0.00     0.138 C 
BRANCH   8   9
HETATM    9  N           1     -23.622  -3.669  -9.378  0.00  0.00    -0.227 N 
HETATM   10  C           1     -24.647  -3.529 -10.107  0.00  0.00     0.665 C 
HETATM   11  N           1     -25.800  -3.543  -9.586  0.00  0.00    -0.235 N 
HETATM   12  N           1     -24.515  -3.372 -11.390  0.00  0.00    -0.235 N 
HETATM   13  H           1     -26.651  -3.427 -10.191  0.00  0.00     0.174 HD
HETATM   14  H           1     -25.907  -3.670  -8.549  0.00  0.00     0.174 HD
HETATM   15  H           1     -25.361  -3.256 -11.993  0.00  0.00     0.174 HD
HETATM   16  H           1     -23.563  -3.361 -11.821  0.00  0.00     0.174 HD
HETATM   17  H           1     -23.728  -3.797  -8.341  0.00  0.00     0.177 HD
ENDBRANCH   8   9
ENDBRANCH   7   8
ENDBRANCH   6   7
ENDBRANCH   5   6
BRANCH   5  18
HETATM   18  N           1     -19.712  -5.429  -7.401  0.00  0.00    -0.067 N 
HETATM   19  H           1     -19.631  -5.035  -8.366  0.00  0.00     0.275 HD
HETATM   20  H           1     -18.786  -5.367  -6.921  0.00  0.00     0.275 HD
HETATM   21  H           1     -20.010  -6.429  -7.457  0.00  0.00     0.275 HD
ENDBRANCH   5  18
ENDBRANCH   4   5
BRANCH   3  22
HETATM   22  C           1     -21.661  -7.407  -4.135  0.00  0.00     0.187 C 
BRANCH  22  23
HETATM   23  C           1     -21.077  -8.810  -4.233  0.00  0.00     0.066 C 
BRANCH  23  24
HETATM   24  C           1     -19.688  -8.739  -4.854  0.00  0.00     0.273 C 
BRANCH  24  25
HETATM   25  N           1     -18.696  -8.956  -3.837  0.00  0.00     0.098 N 
HETATM   26  H           1     -19.155  -9.214  -2.963  0.00  0.00     0.317 HD
BRANCH  25  27
HETATM   27  C           1     -17.852 -10.036  -4.271  0.00  0.00     0.320 C 
BRANCH  27  28
HETATM   28  C           1     -16.422  -9.743  -3.885  0.00  0.00     0.207 C 
HETATM   29  O           1     -16.098  -9.698  -2.679  0.00  0.00    -0.646 OA
HETATM   30  O           1     -15.564  -9.546  -4.773  0.00  0.00    -0.646 OA
ENDBRANCH  27  28
BRANCH  27  31
HETATM   31  C           1     -17.951 -10.180  -5.784  0.00  0.00     0.047 C 
BRANCH  31  32
HETATM   32  C           1     -17.884 -11.655  -6.160  0.00  0.00     0.003 C 
BRANCH  32  33
HETATM   33 Se           1     -19.579 -12.203  -6.950  0.00  0.00     0.000 Se
HETATM   34  C           1     -20.472 -12.482  -5.240  0.00  0.00     0.000 C 
ENDBRANCH  32  33
ENDBRANCH  31  32
ENDBRANCH  27  31
ENDBRANCH  25  27
ENDBRANCH  24  25
ENDBRANCH  23  24
ENDBRANCH  22  23
BRANCH  22  35
HETATM   35  C           1     -21.608  -6.939  -2.702  0.00  0.00     0.196 C 
HETATM   36  O           1     -22.354  -6.011  -2.319  0.00  0.00    -0.646 OA
HETATM   37  O           1     -20.818  -7.477  -1.897  0.00  0.00    -0.646 OA
ENDBRANCH  22  35
ENDBRANCH   3  22
TORSDOF 16
ENDMDL
MODEL 5
REMARK VINA RESULT:      -6.2      2.633      4.535
REMARK  16 active torsions:
REMARK  status: ('A' for Active; 'I' for Inactive)
REMARK    1  A    between atoms: C_1  and  C_29 
REMARK    2  A    between atoms: C_1  and  C_21 
REMARK    3  A    between atoms: C_2  and  C_33 
REMARK    4  A    between atoms: N_5  and  C_33 
REMARK    5  A    between atoms: N_5  and  C_6 
REMARK    6  A    between atoms: C_6  and  C_7 
REMARK    7  A    between atoms: C_7  and  C_8 
REMARK    8  A    between atoms: C_8  and  C_30 
REMARK    9  A    between atoms: C_8  and  N_27 
REMARK       I    between atoms: C_9  and  N_10 
REMARK       I    between atoms: C_9  and  N_11 
REMARK   10  A    between atoms: N_12  and  C_29 
REMARK   11  A    between atoms: C_21  and  C_22 
REMARK   12  A    between atoms: C_22  and  N_23 
REMARK   13  A    between atoms: Se_25  and  C_35 
REMARK       I    between atoms: N_27  and  C_28 
REMARK   14  A    between atoms: C_28  and  C_29 
REMARK   15  A    between atoms: C_33  and  C_34 
REMARK   16  A    between atoms: C_34  and  C_35 
ROOT
HETATM    1  O           1     -21.792  -7.702  -5.571  0.00  0.00    -0.271 OA
HETATM    2  H           1     -20.362  -5.762  -3.563  0.00  0.00     0.163 HD
HETATM    3  N           1     -20.868  -6.580  -3.875  0.00  0.00    -0.345 N 
HETATM    4  C           1     -21.188  -6.724  -5.199  0.00  0.00     0.249 C 
ENDROOT
BRANCH   4   5
HETATM    5  C           1     -20.785  -5.662  -6.192  0.00  0.00     0.274 C 
BRANCH   5   6
HETATM    6  C           1     -22.033  -5.025  -6.789  0.00  0.00     0.044 C 
BRANCH   6   7
HETATM    7  C           1     -21.878  -4.923  -8.300  0.00  0.00     0.023 C 
BRANCH   7   8
HETATM    8  C           1     -22.462  -3.602  -8.784  0.00  0.00     0.138 C 
BRANCH   8   9
HETATM    9  N           1     -23.929  -3.653  -8.694  0.00  0.00    -0.227 N 
HETATM   10  C           1     -24.633  -3.463  -9.729  0.00  0.00     0.665 C 
HETATM   11  N           1     -25.896  -3.507  -9.651  0.00  0.00    -0.235 N 
HETATM   12  N           1     -24.059  -3.225 -10.870  0.00  0.00    -0.235 N 
HETATM   13  H           1     -26.480  -3.350 -10.509  0.00  0.00     0.174 HD
HETATM   14  H           1     -26.359  -3.699  -8.729  0.00  0.00     0.174 HD
HETATM   15  H           1     -24.641  -3.068 -11.725  0.00  0.00     0.174 HD
HETATM   16  H           1     -23.017  -3.190 -10.934  0.00  0.00     0.174 HD
HETATM   17  H           1     -24.392  -3.846  -7.771  0.00  0.00     0.177 HD
ENDBRANCH   8   9
ENDBRANCH   7   8
ENDBRANCH   6   7
ENDBRANCH   5   6
BRANCH   5  18
HETATM   18  N           1     -19.969  -6.284  -7.286  0.00  0.00    -0.067 N 
HETATM   19  H           1     -19.972  -7.323  -7.176  0.00  0.00     0.275 HD
HETATM   20  H           1     -20.379  -6.030  -8.212  0.00  0.00     0.275 HD
HETATM   21  H           1     -18.986  -5.931  -7.230  0.00  0.00     0.275 HD
ENDBRANCH   5  18
ENDBRANCH   4   5
BRANCH   3  22
HETATM   22  C           1     -21.255  -7.601  -2.921  0.00  0.00     0.187 C 
BRANCH  22  23
HETATM   23  C           1     -20.008  -8.273  -2.363  0.00  0.00     0.066 C 
BRANCH  23  24
HETATM   24  C           1     -20.027  -9.754  -2.720  0.00  0.00     0.273 C 
BRANCH  24  25
HETATM   25  N           1     -20.547  -9.921  -4.050  0.00  0.00     0.098 N 
HETATM   26  H           1     -20.629  -9.009  -4.500  0.00  0.00     0.317 HD
BRANCH  25  27
HETATM   27  C           1     -19.618 -10.736  -4.784  0.00  0.00     0.320 C 
BRANCH  27  28
HETATM   28  C           1     -18.496  -9.873  -5.306  0.00  0.00     0.207 C 
HETATM   29  O           1     -18.748  -8.910  -6.062  0.00  0.00    -0.646 OA
HETATM   30  O           1     -17.314 -10.121  -4.982  0.00  0.00    -0.646 OA
ENDBRANCH  27  28
BRANCH  27  31
HETATM   31  C           1     -20.337 -11.397  -5.953  0.00  0.00     0.047 C 
BRANCH  31  32
HETATM   32  C           1     -20.644 -12.848  -5.606  0.00  0.00     0.003 C 
BRANCH  32  33
HETATM   33 Se           1     -22.565 -13.066  -5.360  0.00  0.00     0.000 Se
HETATM   34  C           1     -22.470 -13.171  -3.416  0.00  0.00     0.000 C 
ENDBRANCH  32  33
ENDBRANCH  31  32
ENDBRANCH  27  31
ENDBRANCH  25  27
ENDBRANCH  24  25
ENDBRANCH  23  24
ENDBRANCH  22  23
BRANCH  22  35
HETATM   35  C           1     -22.031  -6.966  -1.793  0.00  0.00     0.196 C 
HETATM   36  O           1     -22.614  -5.875  -1.972  0.00  0.00    -0.646 OA
HETATM   37  O           1     -22.091  -7.531  -0.680  0.00  0.00    -0.646 OA
ENDBRANCH  22  35
ENDBRANCH   3  22
TORSDOF 16
ENDMDL
MODEL 6
REMARK VINA RESULT:      -5.9      2.408      3.372
REMARK  16 active torsions:
REMARK  status: ('A' for Active; 'I' for Inactive)
REMARK    1  A    between atoms: C_1  and  C_29 
REMARK    2  A    between atoms: C_1  and  C_21 
REMARK    3  A    between atoms: C_2  and  C_33 
REMARK    4  A    between atoms: N_5  and  C_33 
REMARK    5  A    between atoms: N_5  and  C_6 
REMARK    6  A    between atoms: C_6  and  C_7 
REMARK    7  A    between atoms: C_7  and  C_8 
REMARK    8  A    between atoms: C_8  and  C_30 
REMARK    9  A    between atoms: C_8  and  N_27 
REMARK       I    between atoms: C_9  and  N_10 
REMARK       I    between atoms: C_9  and  N_11 
REMARK   10  A    between atoms: N_12  and  C_29 
REMARK   11  A    between atoms: C_21  and  C_22 
REMARK   12  A    between atoms: C_22  and  N_23 
REMARK   13  A    between atoms: Se_25  and  C_35 
REMARK       I    between atoms: N_27  and  C_28 
REMARK   14  A    between atoms: C_28  and  C_29 
REMARK   15  A    between atoms: C_33  and  C_34 
REMARK   16  A    between atoms: C_34  and  C_35 
ROOT
HETATM    1  O           1     -21.854  -3.154  -8.458  0.00  0.00    -0.271 OA
HETATM    2  H           1     -22.756  -5.774  -6.986  0.00  0.00     0.163 HD
HETATM    3  N           1     -22.180  -4.970  -7.199  0.00  0.00    -0.345 N 
HETATM    4  C           1     -22.543  -4.114  -8.205  0.00  0.00     0.249 C 
ENDROOT
BRANCH   4   5
HETATM    5  C           1     -23.802  -4.370  -8.995  0.00  0.00     0.274 C 
BRANCH   5   6
HETATM    6  C           1     -23.437  -4.719 -10.432  0.00  0.00     0.044 C 
BRANCH   6   7
HETATM    7  C           1     -24.061  -3.700 -11.376  0.00  0.00     0.023 C 
BRANCH   7   8
HETATM    8  C           1     -22.962  -2.974 -12.141  0.00  0.00     0.138 C 
BRANCH   8   9
HETATM    9  N           1     -23.567  -2.027 -13.089  0.00  0.00    -0.227 N 
HETATM   10  C           1     -23.296  -2.107 -14.323  0.00  0.00     0.665 C 
HETATM   11  N           1     -23.818  -1.291 -15.138  0.00  0.00    -0.235 N 
HETATM   12  N           1     -22.485  -3.027 -14.752  0.00  0.00    -0.235 N 
HETATM   13  H           1     -23.593  -1.358 -16.162  0.00  0.00     0.174 HD
HETATM   14  H           1     -24.473  -0.549 -14.792  0.00  0.00     0.174 HD
HETATM   15  H           1     -22.260  -3.093 -15.770  0.00  0.00     0.174 HD
HETATM   16  H           1     -22.054  -3.700 -14.078  0.00  0.00     0.174 HD
HETATM   17  H           1     -24.224  -1.285 -12.742  0.00  0.00     0.177 HD
ENDBRANCH   8   9
ENDBRANCH   7   8
ENDBRANCH   6   7
ENDBRANCH   5   6
BRANCH   5  18
HETATM   18  N           1     -24.660  -3.140  -8.982  0.00  0.00    -0.067 N 
HETATM   19  H           1     -25.650  -3.403  -9.191  0.00  0.00     0.275 HD
HETATM   20  H           1     -24.610  -2.693  -8.039  0.00  0.00     0.275 HD
HETATM   21  H           1     -24.318  -2.469  -9.706  0.00  0.00     0.275 HD
ENDBRANCH   5  18
ENDBRANCH   4   5
BRANCH   3  22
HETATM   22  C           1     -20.970  -4.723  -6.439  0.00  0.00     0.187 C 
BRANCH  22  23
HETATM   23  C           1     -21.009  -5.530  -5.148  0.00  0.00     0.066 C 
BRANCH  23  24
HETATM   24  C           1     -20.457  -6.927  -5.406  0.00  0.00     0.273 C 
BRANCH  24  25
HETATM   25  N           1     -21.390  -7.908  -4.922  0.00  0.00     0.098 N 
HETATM   26  H           1     -21.992  -8.213  -5.688  0.00  0.00     0.317 HD
BRANCH  25  27
HETATM   27  C           1     -20.633  -9.028  -4.433  0.00  0.00     0.320 C 
BRANCH  27  28
HETATM   28  C           1     -21.484 -10.274  -4.492  0.00  0.00     0.207 C 
HETATM   29  O           1     -21.216 -11.174  -5.316  0.00  0.00    -0.646 OA
HETATM   30  O           1     -22.456 -10.403  -3.717  0.00  0.00    -0.646 OA
ENDBRANCH  27  28
BRANCH  27  31
HETATM   31  C           1     -20.213  -8.767  -2.993  0.00  0.00     0.047 C 
BRANCH  31  32
HETATM   32  C           1     -19.118  -9.750  -2.597  0.00  0.00     0.003 C 
BRANCH  32  33
HETATM   33 Se           1     -19.772 -10.917  -1.180  0.00  0.00     0.000 Se
HETATM   34  C           1     -21.076  -9.637  -0.503  0.00  0.00     0.000 C 
ENDBRANCH  32  33
ENDBRANCH  31  32
ENDBRANCH  27  31
ENDBRANCH  25  27
ENDBRANCH  24  25
ENDBRANCH  23  24
ENDBRANCH  22  23
BRANCH  22  35
HETATM   35  C           1     -19.770  -5.137  -7.255  0.00  0.00     0.196 C 
HETATM   36  O           1     -19.842  -6.129  -8.014  0.00  0.00    -0.646 OA
HETATM   37  O           1     -18.705  -4.490  -7.174  0.00  0.00    -0.646 OA
ENDBRANCH  22  35
ENDBRANCH   3  22
TORSDOF 16
ENDMDL
MODEL 7
REMARK VINA RESULT:      -5.9      2.126      2.975
REMARK  16 active torsions:
REMARK  status: ('A' for Active; 'I' for Inactive)
REMARK    1  A    between atoms: C_1  and  C_29 
REMARK    2  A    between atoms: C_1  and  C_21 
REMARK    3  A    between atoms: C_2  and  C_33 
REMARK    4  A    between atoms: N_5  and  C_33 
REMARK    5  A    between atoms: N_5  and  C_6 
REMARK    6  A    between atoms: C_6  and  C_7 
REMARK    7  A    between atoms: C_7  and  C_8 
REMARK    8  A    between atoms: C_8  and  C_30 
REMARK    9  A    between atoms: C_8  and  N_27 
REMARK       I    between atoms: C_9  and  N_10 
REMARK       I    between atoms: C_9  and  N_11 
REMARK   10  A    between atoms: N_12  and  C_29 
REMARK   11  A    between atoms: C_21  and  C_22 
REMARK   12  A    between atoms: C_22  and  N_23 
REMARK   13  A    between atoms: Se_25  and  C_35 
REMARK       I    between atoms: N_27  and  C_28 
REMARK   14  A    between atoms: C_28  and  C_29 
REMARK   15  A    between atoms: C_33  and  C_34 
REMARK   16  A    between atoms: C_34  and  C_35 
ROOT
HETATM    1  O           1     -19.444  -7.329  -6.403  0.00  0.00    -0.271 OA
HETATM    2  H           1     -21.166  -7.983  -3.863  0.00  0.00     0.163 HD
HETATM    3  N           1     -20.441  -8.099  -4.559  0.00  0.00    -0.345 N 
HETATM    4  C           1     -20.311  -7.189  -5.573  0.00  0.00     0.249 C 
ENDROOT
BRANCH   4   5
HETATM    5  C           1     -21.250  -6.011  -5.654  0.00  0.00     0.274 C 
BRANCH   5   6
HETATM    6  C           1     -20.443  -4.722  -5.742  0.00  0.00     0.044 C 
BRANCH   6   7
HETATM    7  C           1     -20.611  -4.111  -7.126  0.00  0.00     0.023 C 
BRANCH   7   8
HETATM    8  C           1     -22.094  -4.002  -7.457  0.00  0.00     0.138 C 
BRANCH   8   9
HETATM    9  N           1     -22.345  -4.586  -8.782  0.00  0.00    -0.227 N 
HETATM   10  C           1     -23.434  -4.349  -9.382  0.00  0.00     0.665 C 
HETATM   11  N           1     -23.649  -4.853 -10.524  0.00  0.00    -0.235 N 
HETATM   12  N           1     -24.330  -3.589  -8.827  0.00  0.00    -0.235 N 
HETATM   13  H           1     -24.553  -4.656 -11.022  0.00  0.00     0.174 HD
HETATM   14  H           1     -22.926  -5.467 -10.972  0.00  0.00     0.174 HD
HETATM   15  H           1     -25.229  -3.393  -9.322  0.00  0.00     0.174 HD
HETATM   16  H           1     -24.151  -3.173  -7.885  0.00  0.00     0.174 HD
HETATM   17  H           1     -21.620  -5.200  -9.231  0.00  0.00     0.177 HD
ENDBRANCH   8   9
ENDBRANCH   7   8
ENDBRANCH   6   7
ENDBRANCH   5   6
BRANCH   5  18
HETATM   18  N           1     -22.114  -5.976  -4.428  0.00  0.00    -0.067 N 
HETATM   19  H           1     -21.566  -6.314  -3.605  0.00  0.00     0.275 HD
HETATM   20  H           1     -22.432  -4.996  -4.256  0.00  0.00     0.275 HD
HETATM   21  H           1     -22.945  -6.594  -4.571  0.00  0.00     0.275 HD
ENDBRANCH   5  18
ENDBRANCH   4   5
BRANCH   3  22
HETATM   22  C           1     -19.538  -9.232  -4.481  0.00  0.00     0.187 C 
BRANCH  22  23
HETATM   23  C           1     -19.077  -9.415  -3.041  0.00  0.00     0.066 C 
BRANCH  23  24
HETATM   24  C           1     -20.005  -8.646  -2.109  0.00  0.00     0.273 C 
BRANCH  24  25
HETATM   25  N           1     -20.599  -9.555  -1.167  0.00  0.00     0.098 N 
HETATM   26  H           1     -20.136  -9.459  -0.263  0.00  0.00     0.317 HD
BRANCH  25  27
HETATM   27  C           1     -21.986  -9.203  -1.034  0.00  0.00     0.320 C 
BRANCH  27  28
HETATM   28  C           1     -22.222  -8.595   0.327  0.00  0.00     0.207 C 
HETATM   29  O           1     -23.322  -8.065   0.593  0.00  0.00    -0.646 OA
HETATM   30  O           1     -21.316  -8.623   1.189  0.00  0.00    -0.646 OA
ENDBRANCH  27  28
BRANCH  27  31
HETATM   31  C           1     -22.844 -10.451  -1.189  0.00  0.00     0.047 C 
BRANCH  31  32
HETATM   32  C           1     -21.959 -11.689  -1.111  0.00  0.00     0.003 C 
BRANCH  32  33
HETATM   33 Se           1     -22.105 -12.484   0.662  0.00  0.00     0.000 Se
HETATM   34  C           1     -20.629 -13.730   0.405  0.00  0.00     0.000 C 
ENDBRANCH  32  33
ENDBRANCH  31  32
ENDBRANCH  27  31
ENDBRANCH  25  27
ENDBRANCH  24  25
ENDBRANCH  23  24
ENDBRANCH  22  23
BRANCH  22  35
HETATM   35  C           1     -20.254 -10.477  -4.942  0.00  0.00     0.196 C 
HETATM   36  O           1     -20.280 -11.491  -4.210  0.00  0.00    -0.646 OA
HETATM   37  O           1     -20.820 -10.497  -6.056  0.00  0.00    -0.646 OA
ENDBRANCH  22  35
ENDBRANCH   3  22
TORSDOF 16
ENDMDL
MODEL 8
REMARK VINA RESULT:      -5.9      2.437      3.822
REMARK  16 active torsions:
REMARK  status: ('A' for Active; 'I' for Inactive)
REMARK    1  A    between atoms: C_1  and  C_29 
REMARK    2  A    between atoms: C_1  and  C_21 
REMARK    3  A    between atoms: C_2  and  C_33 
REMARK    4  A    between atoms: N_5  and  C_33 
REMARK    5  A    between atoms: N_5  and  C_6 
REMARK    6  A    between atoms: C_6  and  C_7 
REMARK    7  A    between atoms: C_7  and  C_8 
REMARK    8  A    between atoms: C_8  and  C_30 
REMARK    9  A    between atoms: C_8  and  N_27 
REMARK       I    between atoms: C_9  and  N_10 
REMARK       I    between atoms: C_9  and  N_11 
REMARK   10  A    between atoms: N_12  and  C_29 
REMARK   11  A    between atoms: C_21  and  C_22 
REMARK   12  A    between atoms: C_22  and  N_23 
REMARK   13  A    between atoms: Se_25  and  C_35 
REMARK       I    between atoms: N_27  and  C_28 
REMARK   14  A    between atoms: C_28  and  C_29 
REMARK   15  A    between atoms: C_33  and  C_34 
REMARK   16  A    between atoms: C_34  and  C_35 
ROOT
HETATM    1  O           1     -21.772  -7.869  -5.344  0.00  0.00    -0.271 OA
HETATM    2  H           1     -20.404  -5.873  -3.347  0.00  0.00     0.163 HD
HETATM    3  N           1     -20.912  -6.694  -3.651  0.00  0.00    -0.345 N 
HETATM    4  C           1     -21.166  -6.888  -4.982  0.00  0.00     0.249 C 
ENDROOT
BRANCH   4   5
HETATM    5  C           1     -20.691  -5.878  -5.996  0.00  0.00     0.274 C 
BRANCH   5   6
HETATM    6  C           1     -21.893  -5.234  -6.674  0.00  0.00     0.044 C 
BRANCH   6   7
HETATM    7  C           1     -21.592  -5.023  -8.151  0.00  0.00     0.023 C 
BRANCH   7   8
HETATM    8  C           1     -22.127  -3.668  -8.592  0.00  0.00     0.138 C 
BRANCH   8   9
HETATM    9  N           1     -23.597  -3.688  -8.566  0.00  0.00    -0.227 N 
HETATM   10  C           1     -24.252  -3.556  -9.641  0.00  0.00     0.665 C 
HETATM   11  N           1     -25.517  -3.574  -9.617  0.00  0.00    -0.235 N 
HETATM   12  N           1     -23.624  -3.404 -10.769  0.00  0.00    -0.235 N 
HETATM   13  H           1     -26.060  -3.465 -10.509  0.00  0.00     0.174 HD
HETATM   14  H           1     -26.024  -3.698  -8.706  0.00  0.00     0.174 HD
HETATM   15  H           1     -24.164  -3.294 -11.657  0.00  0.00     0.174 HD
HETATM   16  H           1     -22.579  -3.389 -10.788  0.00  0.00     0.174 HD
HETATM   17  H           1     -24.104  -3.813  -7.654  0.00  0.00     0.177 HD
ENDBRANCH   8   9
ENDBRANCH   7   8
ENDBRANCH   6   7
ENDBRANCH   5   6
BRANCH   5  18
HETATM   18  N           1     -19.845  -6.564  -7.027  0.00  0.00    -0.067 N 
HETATM   19  H           1     -19.547  -7.499  -6.668  0.00  0.00     0.275 HD
HETATM   20  H           1     -20.398  -6.688  -7.904  0.00  0.00     0.275 HD
HETATM   21  H           1     -18.999  -5.983  -7.226  0.00  0.00     0.275 HD
ENDBRANCH   5  18
ENDBRANCH   4   5
BRANCH   3  22
HETATM   22  C           1     -21.368  -7.665  -2.676  0.00  0.00     0.187 C 
BRANCH  22  23
HETATM   23  C           1     -20.176  -8.447  -2.142  0.00  0.00     0.066 C 
BRANCH  23  24
HETATM   24  C           1     -20.127  -9.816  -2.809  0.00  0.00     0.273 C 
BRANCH  24  25
HETATM   25  N           1     -20.452 -10.831  -1.844  0.00  0.00     0.098 N 
HETATM   26  H           1     -20.282 -10.474  -0.903  0.00  0.00     0.317 HD
BRANCH  25  27
HETATM   27  C           1     -21.847 -11.147  -1.992  0.00  0.00     0.320 C 
BRANCH  27  28
HETATM   28  C           1     -22.553 -10.933  -0.676  0.00  0.00     0.207 C 
HETATM   29  O           1     -21.891 -10.844   0.381  0.00  0.00    -0.646 OA
HETATM   30  O           1     -23.799 -10.844  -0.643  0.00  0.00    -0.646 OA
ENDBRANCH  27  28
BRANCH  27  31
HETATM   31  C           1     -21.996 -12.600  -2.419  0.00  0.00     0.047 C 
BRANCH  31  32
HETATM   32  C           1     -22.434 -12.661  -3.877  0.00  0.00     0.003 C 
BRANCH  32  33
HETATM   33 Se           1     -20.881 -12.977  -5.011  0.00  0.00     0.000 Se
HETATM   34  C           1     -21.160 -11.395  -6.115  0.00  0.00     0.000 C 
ENDBRANCH  32  33
ENDBRANCH  31  32
ENDBRANCH  27  31
ENDBRANCH  25  27
ENDBRANCH  24  25
ENDBRANCH  23  24
ENDBRANCH  22  23
BRANCH  22  35
HETATM   35  C           1     -22.052  -6.950  -1.536  0.00  0.00     0.196 C 
HETATM   36  O           1     -22.203  -7.526  -0.437  0.00  0.00    -0.646 OA
HETATM   37  O           1     -22.467  -5.781  -1.691  0.00  0.00    -0.646 OA
ENDBRANCH  22  35
ENDBRANCH   3  22
TORSDOF 16
ENDMDL
MODEL 9
REMARK VINA RESULT:      -5.8      2.490      3.376
REMARK  16 active torsions:
REMARK  status: ('A' for Active; 'I' for Inactive)
REMARK    1  A    between atoms: C_1  and  C_29 
REMARK    2  A    between atoms: C_1  and  C_21 
REMARK    3  A    between atoms: C_2  and  C_33 
REMARK    4  A    between atoms: N_5  and  C_33 
REMARK    5  A    between atoms: N_5  and  C_6 
REMARK    6  A    between atoms: C_6  and  C_7 
REMARK    7  A    between atoms: C_7  and  C_8 
REMARK    8  A    between atoms: C_8  and  C_30 
REMARK    9  A    between atoms: C_8  and  N_27 
REMARK       I    between atoms: C_9  and  N_10 
REMARK       I    between atoms: C_9  and  N_11 
REMARK   10  A    between atoms: N_12  and  C_29 
REMARK   11  A    between atoms: C_21  and  C_22 
REMARK   12  A    between atoms: C_22  and  N_23 
REMARK   13  A    between atoms: Se_25  and  C_35 
REMARK       I    between atoms: N_27  and  C_28 
REMARK   14  A    between atoms: C_28  and  C_29 
REMARK   15  A    between atoms: C_33  and  C_34 
REMARK   16  A    between atoms: C_34  and  C_35 
ROOT
HETATM    1  O           1     -19.482  -7.077  -6.549  0.00  0.00    -0.271 OA
HETATM    2  H           1     -21.058  -8.423  -4.194  0.00  0.00     0.163 HD
HETATM    3  N           1     -20.305  -8.274  -4.853  0.00  0.00    -0.345 N 
HETATM    4  C           1     -20.382  -7.254  -5.763  0.00  0.00     0.249 C 
ENDROOT
BRANCH   4   5
HETATM    5  C           1     -21.591  -6.352  -5.783  0.00  0.00     0.274 C 
BRANCH   5   6
HETATM    6  C           1     -21.251  -5.065  -6.524  0.00  0.00     0.044 C 
BRANCH   6   7
HETATM    7  C           1     -21.854  -5.109  -7.921  0.00  0.00     0.023 C 
BRANCH   7   8
HETATM    8  C           1     -22.378  -3.728  -8.293  0.00  0.00     0.138 C 
BRANCH   8   9
HETATM    9  N           1     -23.840  -3.781  -8.439  0.00  0.00    -0.227 N 
HETATM   10  C           1     -24.373  -3.563  -9.566  0.00  0.00     0.665 C 
HETATM   11  N           1     -25.631  -3.609  -9.691  0.00  0.00    -0.235 N 
HETATM   12  N           1     -23.626  -3.294 -10.596  0.00  0.00    -0.235 N 
HETATM   13  H           1     -26.073  -3.429 -10.627  0.00  0.00     0.174 HD
HETATM   14  H           1     -26.234  -3.827  -8.860  0.00  0.00     0.174 HD
HETATM   15  H           1     -24.065  -3.113 -11.527  0.00  0.00     0.174 HD
HETATM   16  H           1     -22.587  -3.256 -10.493  0.00  0.00     0.174 HD
HETATM   17  H           1     -24.443  -4.000  -7.607  0.00  0.00     0.177 HD
ENDBRANCH   8   9
ENDBRANCH   7   8
ENDBRANCH   6   7
ENDBRANCH   5   6
BRANCH   5  18
HETATM   18  N           1     -21.996  -6.027  -4.376  0.00  0.00    -0.067 N 
HETATM   19  H           1     -22.432  -5.077  -4.349  0.00  0.00     0.275 HD
HETATM   20  H           1     -22.686  -6.736  -4.041  0.00  0.00     0.275 HD
HETATM   21  H           1     -21.152  -6.040  -3.759  0.00  0.00     0.275 HD
ENDBRANCH   5  18
ENDBRANCH   4   5
BRANCH   3  22
HETATM   22  C           1     -19.143  -9.142  -4.832  0.00  0.00     0.187 C 
BRANCH  22  23
HETATM   23  C           1     -18.615  -9.248  -3.408  0.00  0.00     0.066 C 
BRANCH  23  24
HETATM   24  C           1     -19.709  -8.844  -2.429  0.00  0.00     0.273 C 
BRANCH  24  25
HETATM   25  N           1     -20.024  -9.957  -1.575  0.00  0.00     0.098 N 
HETATM   26  H           1     -19.732  -9.746  -0.620  0.00  0.00     0.317 HD
BRANCH  25  27
HETATM   27  C           1     -21.448 -10.146  -1.609  0.00  0.00     0.320 C 
BRANCH  27  28
HETATM   28  C           1     -22.030  -9.835  -0.251  0.00  0.00     0.207 C 
HETATM   29  O           1     -23.212  -9.443  -0.153  0.00  0.00    -0.646 OA
HETATM   30  O           1     -21.327  -9.969   0.774  0.00  0.00    -0.646 OA
ENDBRANCH  27  28
BRANCH  27  31
HETATM   31  C           1     -21.759 -11.591  -1.976  0.00  0.00     0.047 C 
BRANCH  31  32
HETATM   32  C           1     -22.409 -11.638  -3.353  0.00  0.00     0.003 C 
BRANCH  32  33
HETATM   33 Se           1     -22.172 -13.412  -4.124  0.00  0.00     0.000 Se
HETATM   34  C           1     -22.989 -12.957  -5.834  0.00  0.00     0.000 C 
ENDBRANCH  32  33
ENDBRANCH  31  32
ENDBRANCH  27  31
ENDBRANCH  25  27
ENDBRANCH  24  25
ENDBRANCH  23  24
ENDBRANCH  22  23
BRANCH  22  35
HETATM   35  C           1     -19.531 -10.512  -5.329  0.00  0.00     0.196 C 
HETATM   36  O           1     -20.406 -10.632  -6.214  0.00  0.00    -0.646 OA
HETATM   37  O           1     -18.978 -11.529  -4.857  0.00  0.00    -0.646 OA
ENDBRANCH  22  35
ENDBRANCH   3  22
TORSDOF 16
ENDMDL
