MODEL 1
REMARK VINA RESULT:      -7.0      0.000      0.000
REMARK  9 active torsions:
REMARK  status: ('A' for Active; 'I' for Inactive)
REMARK    1  A    between atoms: O_1  and  C_25 
REMARK    2  A    between atoms: C_4  and  C_9 
REMARK    3  A    between atoms: C_4  and  C_5 
REMARK    4  A    between atoms: C_9  and  C_18 
REMARK    5  A    between atoms: C_9  and  N_22 
REMARK    6  A    between atoms: O_10  and  C_11 
REMARK    7  A    between atoms: C_11  and  C_12 
REMARK    8  A    between atoms: C_12  and  C_17 
REMARK    9  A    between atoms: C_12  and  N_24 
REMARK       I    between atoms: C_18  and  N_24 
ROOT
HETATM    1  C           1     -22.109  -5.105  -6.751  0.00  0.00     0.278 C 
ENDROOT
BRANCH   1   2
HETATM    2  C           1     -21.529  -3.805  -7.296  0.00  0.00     0.081 C 
BRANCH   2   3
HETATM    3  C           1     -21.589  -3.821  -8.791  0.00  0.00    -0.056 A 
HETATM    4  C           1     -20.451  -4.139  -9.531  0.00  0.00     0.010 A 
HETATM    5  C           1     -20.508  -4.154 -10.926  0.00  0.00     0.037 A 
HETATM    6  C           1     -21.703  -3.852 -11.578  0.00  0.00     0.065 A 
HETATM    7  C           1     -22.841  -3.535 -10.838  0.00  0.00     0.037 A 
HETATM    8  C           1     -22.785  -3.520  -9.444  0.00  0.00     0.010 A 
BRANCH   6   9
HETATM    9  O           1     -21.758  -3.867 -12.932  0.00  0.00    -0.361 OA
HETATM   10  H           1     -22.120  -4.726 -13.208  0.00  0.00     0.217 HD
ENDBRANCH   6   9
ENDBRANCH   2   3
ENDBRANCH   1   2
BRANCH   1  11
HETATM   11  C           1     -21.375  -5.493  -5.490  0.00  0.00     0.249 C 
HETATM   12  O           1     -20.200  -5.241  -5.372  0.00  0.00    -0.271 OA
HETATM   13  N           1     -22.043  -6.132  -4.479  0.00  0.00    -0.343 N 
HETATM   14  H           1     -23.027  -6.344  -4.578  0.00  0.00     0.163 HD
BRANCH  13  15
HETATM   15  C           1     -21.338  -6.506  -3.268  0.00  0.00     0.209 C 
BRANCH  15  16
HETATM   16  C           1     -22.213  -6.205  -2.058  0.00  0.00     0.200 C 
BRANCH  16  17
HETATM   17  O           1     -22.215  -7.310  -1.196  0.00  0.00    -0.398 OA
HETATM   18  H           1     -22.225  -8.081  -1.738  0.00  0.00     0.209 HD
ENDBRANCH  16  17
ENDBRANCH  15  16
BRANCH  15  19
HETATM   19  C           1     -21.023  -7.981  -3.306  0.00  0.00     0.198 C 
HETATM   20  O           1     -21.794  -8.770  -3.893  0.00  0.00    -0.646 OA
HETATM   21  O           1     -19.989  -8.414  -2.751  0.00  0.00    -0.646 OA
ENDBRANCH  15  19
ENDBRANCH  13  15
ENDBRANCH   1  11
BRANCH   1  22
HETATM   22  N           1     -23.564  -4.911  -6.442  0.00  0.00    -0.066 N 
HETATM   23  H           1     -23.851  -3.943  -6.709  0.00  0.00     0.275 HD
HETATM   24  H           1     -24.129  -5.604  -6.984  0.00  0.00     0.275 HD
HETATM   25  H           1     -23.725  -5.053  -5.420  0.00  0.00     0.275 HD
ENDBRANCH   1  22
TORSDOF 9
ENDMDL
MODEL 2
REMARK VINA RESULT:      -6.8      1.654      2.043
REMARK  9 active torsions:
REMARK  status: ('A' for Active; 'I' for Inactive)
REMARK    1  A    between atoms: O_1  and  C_25 
REMARK    2  A    between atoms: C_4  and  C_9 
REMARK    3  A    between atoms: C_4  and  C_5 
REMARK    4  A    between atoms: C_9  and  C_18 
REMARK    5  A    between atoms: C_9  and  N_22 
REMARK    6  A    between atoms: O_10  and  C_11 
REMARK    7  A    between atoms: C_11  and  C_12 
REMARK    8  A    between atoms: C_12  and  C_17 
REMARK    9  A    between atoms: C_12  and  N_24 
REMARK       I    between atoms: C_18  and  N_24 
ROOT
HETATM    1  C           1     -21.749  -4.673  -7.739  0.00  0.00     0.278 C 
ENDROOT
BRANCH   1   2
HETATM    2  C           1     -21.106  -4.691  -9.120  0.00  0.00     0.081 C 
BRANCH   2   3
HETATM    3  C           1     -22.046  -4.088 -10.116  0.00  0.00    -0.056 A 
HETATM    4  C           1     -21.546  -3.364 -11.198  0.00  0.00     0.010 A 
HETATM    5  C           1     -22.424  -2.803 -12.127  0.00  0.00     0.037 A 
HETATM    6  C           1     -23.800  -2.966 -11.973  0.00  0.00     0.065 A 
HETATM    7  C           1     -24.299  -3.690 -10.891  0.00  0.00     0.037 A 
HETATM    8  C           1     -23.423  -4.251  -9.962  0.00  0.00     0.010 A 
BRANCH   6   9
HETATM    9  O           1     -24.652  -2.421 -12.875  0.00  0.00    -0.361 OA
HETATM   10  H           1     -25.219  -3.131 -13.219  0.00  0.00     0.217 HD
ENDBRANCH   6   9
ENDBRANCH   2   3
ENDBRANCH   1   2
BRANCH   1  11
HETATM   11  C           1     -21.010  -5.622  -6.828  0.00  0.00     0.249 C 
HETATM   12  O           1     -19.924  -6.045  -7.147  0.00  0.00    -0.271 OA
HETATM   13  N           1     -21.570  -6.005  -5.638  0.00  0.00    -0.343 N 
HETATM   14  H           1     -22.479  -5.651  -5.370  0.00  0.00     0.163 HD
BRANCH  13  15
HETATM   15  C           1     -20.860  -6.917  -4.762  0.00  0.00     0.209 C 
BRANCH  15  16
HETATM   16  C           1     -21.087  -6.510  -3.313  0.00  0.00     0.200 C 
BRANCH  16  17
HETATM   17  O           1     -22.402  -6.049  -3.157  0.00  0.00    -0.398 OA
HETATM   18  H           1     -22.972  -6.769  -3.371  0.00  0.00     0.209 HD
ENDBRANCH  16  17
ENDBRANCH  15  16
BRANCH  15  19
HETATM   19  C           1     -21.372  -8.320  -4.978  0.00  0.00     0.198 C 
HETATM   20  O           1     -21.986  -8.908  -4.062  0.00  0.00    -0.646 OA
HETATM   21  O           1     -21.183  -8.893  -6.073  0.00  0.00    -0.646 OA
ENDBRANCH  15  19
ENDBRANCH  13  15
ENDBRANCH   1  11
BRANCH   1  22
HETATM   22  N           1     -21.682  -3.285  -7.175  0.00  0.00    -0.066 N 
HETATM   23  H           1     -22.413  -3.173  -6.437  0.00  0.00     0.275 HD
HETATM   24  H           1     -20.738  -3.125  -6.757  0.00  0.00     0.275 HD
HETATM   25  H           1     -21.849  -2.591  -7.938  0.00  0.00     0.275 HD
ENDBRANCH   1  22
TORSDOF 9
ENDMDL
MODEL 3
REMARK VINA RESULT:      -6.6      2.163      7.563
REMARK  9 active torsions:
REMARK  status: ('A' for Active; 'I' for Inactive)
REMARK    1  A    between atoms: O_1  and  C_25 
REMARK    2  A    between atoms: C_4  and  C_9 
REMARK    3  A    between atoms: C_4  and  C_5 
REMARK    4  A    between atoms: C_9  and  C_18 
REMARK    5  A    between atoms: C_9  and  N_22 
REMARK    6  A    between atoms: O_10  and  C_11 
REMARK    7  A    between atoms: C_11  and  C_12 
REMARK    8  A    between atoms: C_12  and  C_17 
REMARK    9  A    between atoms: C_12  and  N_24 
REMARK       I    between atoms: C_18  and  N_24 
ROOT
HETATM    1  C           1     -21.142  -5.706  -6.943  0.00  0.00     0.278 C 
ENDROOT
BRANCH   1   2
HETATM    2  C           1     -20.886  -5.209  -5.526  0.00  0.00     0.081 C 
BRANCH   2   3
HETATM    3  C           1     -21.152  -6.316  -4.554  0.00  0.00    -0.056 A 
HETATM    4  C           1     -21.290  -7.627  -5.010  0.00  0.00     0.010 A 
HETATM    5  C           1     -21.538  -8.658  -4.103  0.00  0.00     0.037 A 
HETATM    6  C           1     -21.646  -8.378  -2.741  0.00  0.00     0.065 A 
HETATM    7  C           1     -21.507  -7.068  -2.286  0.00  0.00     0.037 A 
HETATM    8  C           1     -21.260  -6.036  -3.192  0.00  0.00     0.010 A 
BRANCH   6   9
HETATM    9  O           1     -21.886  -9.380  -1.861  0.00  0.00    -0.361 OA
HETATM   10  H           1     -22.348  -9.001  -1.094  0.00  0.00     0.217 HD
ENDBRANCH   6   9
ENDBRANCH   2   3
ENDBRANCH   1   2
BRANCH   1  11
HETATM   11  C           1     -21.680  -4.574  -7.784  0.00  0.00     0.249 C 
HETATM   12  O           1     -21.711  -3.452  -7.338  0.00  0.00    -0.271 OA
HETATM   13  N           1     -22.134  -4.819  -9.052  0.00  0.00    -0.343 N 
HETATM   14  H           1     -22.109  -5.759  -9.426  0.00  0.00     0.163 HD
BRANCH  13  15
HETATM   15  C           1     -22.652  -3.731  -9.860  0.00  0.00     0.209 C 
BRANCH  15  16
HETATM   16  C           1     -21.973  -3.743 -11.223  0.00  0.00     0.200 C 
BRANCH  16  17
HETATM   17  O           1     -22.788  -4.414 -12.146  0.00  0.00    -0.398 OA
HETATM   18  H           1     -23.663  -4.403 -11.797  0.00  0.00     0.209 HD
ENDBRANCH  16  17
ENDBRANCH  15  16
BRANCH  15  19
HETATM   19  C           1     -24.140  -3.903 -10.038  0.00  0.00     0.198 C 
HETATM   20  O           1     -24.664  -5.026  -9.874  0.00  0.00    -0.646 OA
HETATM   21  O           1     -24.850  -2.921 -10.348  0.00  0.00    -0.646 OA
ENDBRANCH  15  19
ENDBRANCH  13  15
ENDBRANCH   1  11
BRANCH   1  22
HETATM   22  N           1     -19.857  -6.202  -7.537  0.00  0.00    -0.066 N 
HETATM   23  H           1     -19.786  -7.235  -7.401  0.00  0.00     0.275 HD
HETATM   24  H           1     -19.840  -5.983  -8.559  0.00  0.00     0.275 HD
HETATM   25  H           1     -19.051  -5.732  -7.066  0.00  0.00     0.275 HD
ENDBRANCH   1  22
TORSDOF 9
ENDMDL
MODEL 4
REMARK VINA RESULT:      -6.4      1.519      2.120
REMARK  9 active torsions:
REMARK  status: ('A' for Active; 'I' for Inactive)
REMARK    1  A    between atoms: O_1  and  C_25 
REMARK    2  A    between atoms: C_4  and  C_9 
REMARK    3  A    between atoms: C_4  and  C_5 
REMARK    4  A    between atoms: C_9  and  C_18 
REMARK    5  A    between atoms: C_9  and  N_22 
REMARK    6  A    between atoms: O_10  and  C_11 
REMARK    7  A    between atoms: C_11  and  C_12 
REMARK    8  A    between atoms: C_12  and  C_17 
REMARK    9  A    between atoms: C_12  and  N_24 
REMARK       I    between atoms: C_18  and  N_24 
ROOT
HETATM    1  C           1     -20.807  -4.814  -6.654  0.00  0.00     0.278 C 
ENDROOT
BRANCH   1   2
HETATM    2  C           1     -20.589  -5.523  -7.985  0.00  0.00     0.081 C 
BRANCH   2   3
HETATM    3  C           1     -21.185  -4.705  -9.089  0.00  0.00    -0.056 A 
HETATM    4  C           1     -20.407  -4.347 -10.189  0.00  0.00     0.010 A 
HETATM    5  C           1     -20.963  -3.585 -11.218  0.00  0.00     0.037 A 
HETATM    6  C           1     -22.297  -3.184 -11.145  0.00  0.00     0.065 A 
HETATM    7  C           1     -23.074  -3.543 -10.045  0.00  0.00     0.037 A 
HETATM    8  C           1     -22.519  -4.305  -9.016  0.00  0.00     0.010 A 
BRANCH   6   9
HETATM    9  O           1     -22.837  -2.444 -12.144  0.00  0.00    -0.361 OA
HETATM   10  H           1     -23.268  -3.053 -12.768  0.00  0.00     0.217 HD
ENDBRANCH   6   9
ENDBRANCH   2   3
ENDBRANCH   1   2
BRANCH   1  11
HETATM   11  C           1     -21.598  -5.708  -5.732  0.00  0.00     0.249 C 
HETATM   12  O           1     -22.804  -5.646  -5.717  0.00  0.00    -0.271 OA
HETATM   13  N           1     -20.949  -6.591  -4.909  0.00  0.00    -0.343 N 
HETATM   14  H           1     -19.938  -6.643  -4.921  0.00  0.00     0.163 HD
BRANCH  13  15
HETATM   15  C           1     -21.709  -7.450  -4.023  0.00  0.00     0.209 C 
BRANCH  15  16
HETATM   16  C           1     -21.124  -8.855  -4.051  0.00  0.00     0.200 C 
BRANCH  16  17
HETATM   17  O           1     -21.897  -9.700  -3.243  0.00  0.00    -0.398 OA
HETATM   18  H           1     -21.511 -10.558  -3.297  0.00  0.00     0.209 HD
ENDBRANCH  16  17
ENDBRANCH  15  16
BRANCH  15  19
HETATM   19  C           1     -21.641  -6.905  -2.617  0.00  0.00     0.198 C 
HETATM   20  O           1     -20.838  -7.395  -1.795  0.00  0.00    -0.646 OA
HETATM   21  O           1     -22.390  -5.963  -2.275  0.00  0.00    -0.646 OA
ENDBRANCH  15  19
ENDBRANCH  13  15
ENDBRANCH   1  11
BRANCH   1  22
HETATM   22  N           1     -19.478  -4.505  -6.031  0.00  0.00    -0.066 N 
HETATM   23  H           1     -18.731  -5.058  -6.508  0.00  0.00     0.275 HD
HETATM   24  H           1     -19.275  -3.485  -6.134  0.00  0.00     0.275 HD
HETATM   25  H           1     -19.502  -4.755  -5.016  0.00  0.00     0.275 HD
ENDBRANCH   1  22
TORSDOF 9
ENDMDL
MODEL 5
REMARK VINA RESULT:      -6.2      1.463      2.150
REMARK  9 active torsions:
REMARK  status: ('A' for Active; 'I' for Inactive)
REMARK    1  A    between atoms: O_1  and  C_25 
REMARK    2  A    between atoms: C_4  and  C_9 
REMARK    3  A    between atoms: C_4  and  C_5 
REMARK    4  A    between atoms: C_9  and  C_18 
REMARK    5  A    between atoms: C_9  and  N_22 
REMARK    6  A    between atoms: O_10  and  C_11 
REMARK    7  A    between atoms: C_11  and  C_12 
REMARK    8  A    between atoms: C_12  and  C_17 
REMARK    9  A    between atoms: C_12  and  N_24 
REMARK       I    between atoms: C_18  and  N_24 
ROOT
HETATM    1  C           1     -22.027  -5.377  -6.806  0.00  0.00     0.278 C 
ENDROOT
BRANCH   1   2
HETATM    2  C           1     -21.367  -4.089  -7.282  0.00  0.00     0.081 C 
BRANCH   2   3
HETATM    3  C           1     -21.459  -4.004  -8.774  0.00  0.00    -0.056 A 
HETATM    4  C           1     -22.656  -3.624  -9.379  0.00  0.00     0.010 A 
HETATM    5  C           1     -22.741  -3.545 -10.770  0.00  0.00     0.037 A 
HETATM    6  C           1     -21.627  -3.844 -11.554  0.00  0.00     0.065 A 
HETATM    7  C           1     -20.430  -4.223 -10.949  0.00  0.00     0.037 A 
HETATM    8  C           1     -20.344  -4.303  -9.558  0.00  0.00     0.010 A 
BRANCH   6   9
HETATM    9  O           1     -21.709  -3.767 -12.904  0.00  0.00    -0.361 OA
HETATM   10  H           1     -22.302  -4.474 -13.209  0.00  0.00     0.217 HD
ENDBRANCH   6   9
ENDBRANCH   2   3
ENDBRANCH   1   2
BRANCH   1  11
HETATM   11  C           1     -21.207  -5.981  -5.692  0.00  0.00     0.249 C 
HETATM   12  O           1     -20.750  -5.273  -4.826  0.00  0.00    -0.271 OA
HETATM   13  N           1     -20.980  -7.331  -5.663  0.00  0.00    -0.343 N 
HETATM   14  H           1     -21.362  -7.924  -6.389  0.00  0.00     0.163 HD
BRANCH  13  15
HETATM   15  C           1     -20.192  -7.911  -4.594  0.00  0.00     0.209 C 
BRANCH  15  16
HETATM   16  C           1     -21.118  -8.558  -3.573  0.00  0.00     0.200 C 
BRANCH  16  17
HETATM   17  O           1     -21.869  -9.565  -4.194  0.00  0.00    -0.398 OA
HETATM   18  H           1     -22.626  -9.149  -4.572  0.00  0.00     0.209 HD
ENDBRANCH  16  17
ENDBRANCH  15  16
BRANCH  15  19
HETATM   19  C           1     -19.264  -8.956  -5.164  0.00  0.00     0.198 C 
HETATM   20  O           1     -19.079 -10.029  -4.551  0.00  0.00    -0.646 OA
HETATM   21  O           1     -18.681  -8.747  -6.251  0.00  0.00    -0.646 OA
ENDBRANCH  15  19
ENDBRANCH  13  15
ENDBRANCH   1  11
BRANCH   1  22
HETATM   22  N           1     -23.407  -5.073  -6.302  0.00  0.00    -0.066 N 
HETATM   23  H           1     -23.950  -5.962  -6.215  0.00  0.00     0.275 HD
HETATM   24  H           1     -23.341  -4.613  -5.366  0.00  0.00     0.275 HD
HETATM   25  H           1     -23.890  -4.434  -6.972  0.00  0.00     0.275 HD
ENDBRANCH   1  22
TORSDOF 9
ENDMDL
MODEL 6
REMARK VINA RESULT:      -6.0     14.662     18.531
REMARK  9 active torsions:
REMARK  status: ('A' for Active; 'I' for Inactive)
REMARK    1  A    between atoms: O_1  and  C_25 
REMARK    2  A    between atoms: C_4  and  C_9 
REMARK    3  A    between atoms: C_4  and  C_5 
REMARK    4  A    between atoms: C_9  and  C_18 
REMARK    5  A    between atoms: C_9  and  N_22 
REMARK    6  A    between atoms: O_10  and  C_11 
REMARK    7  A    between atoms: C_11  and  C_12 
REMARK    8  A    between atoms: C_12  and  C_17 
REMARK    9  A    between atoms: C_12  and  N_24 
REMARK       I    between atoms: C_18  and  N_24 
ROOT
HETATM    1  C           1     -22.906  11.058 -12.922  0.00  0.00     0.278 C 
ENDROOT
BRANCH   1   2
HETATM    2  C           1     -24.342  11.065 -12.414  0.00  0.00     0.081 C 
BRANCH   2   3
HETATM    3  C           1     -24.707   9.696 -11.931  0.00  0.00    -0.056 A 
HETATM    4  C           1     -25.838   9.516 -11.135  0.00  0.00     0.010 A 
HETATM    5  C           1     -26.178   8.239 -10.685  0.00  0.00     0.037 A 
HETATM    6  C           1     -25.387   7.144 -11.033  0.00  0.00     0.065 A 
HETATM    7  C           1     -24.258   7.324 -11.830  0.00  0.00     0.037 A 
HETATM    8  C           1     -23.917   8.601 -12.280  0.00  0.00     0.010 A 
BRANCH   6   9
HETATM    9  O           1     -25.718   5.904 -10.597  0.00  0.00    -0.361 OA
HETATM   10  H           1     -25.446   5.265 -11.276  0.00  0.00     0.217 HD
ENDBRANCH   6   9
ENDBRANCH   2   3
ENDBRANCH   1   2
BRANCH   1  11
HETATM   11  C           1     -22.878  11.519 -14.359  0.00  0.00     0.249 C 
HETATM   12  O           1     -23.639  12.379 -14.732  0.00  0.00    -0.271 OA
HETATM   13  N           1     -21.989  10.962 -15.240  0.00  0.00    -0.343 N 
HETATM   14  H           1     -21.351  10.241 -14.927  0.00  0.00     0.163 HD
BRANCH  13  15
HETATM   15  C           1     -21.963  11.405 -16.620  0.00  0.00     0.209 C 
BRANCH  15  16
HETATM   16  C           1     -20.824  12.397 -16.813  0.00  0.00     0.200 C 
BRANCH  16  17
HETATM   17  O           1     -19.708  11.732 -17.340  0.00  0.00    -0.398 OA
HETATM   18  H           1     -18.988  11.900 -16.755  0.00  0.00     0.209 HD
ENDBRANCH  16  17
ENDBRANCH  15  16
BRANCH  15  19
HETATM   19  C           1     -21.752  10.215 -17.524  0.00  0.00     0.198 C 
HETATM   20  O           1     -22.017  10.301 -18.742  0.00  0.00    -0.646 OA
HETATM   21  O           1     -21.312   9.143 -17.053  0.00  0.00    -0.646 OA
ENDBRANCH  15  19
ENDBRANCH  13  15
ENDBRANCH   1  11
BRANCH   1  22
HETATM   22  N           1     -22.076  11.984 -12.084  0.00  0.00    -0.066 N 
HETATM   23  H           1     -21.155  12.146 -12.551  0.00  0.00     0.275 HD
HETATM   24  H           1     -22.576  12.896 -11.975  0.00  0.00     0.275 HD
HETATM   25  H           1     -21.919  11.557 -11.143  0.00  0.00     0.275 HD
ENDBRANCH   1  22
TORSDOF 9
ENDMDL
MODEL 7
REMARK VINA RESULT:      -5.9      2.274      2.808
REMARK  9 active torsions:
REMARK  status: ('A' for Active; 'I' for Inactive)
REMARK    1  A    between atoms: O_1  and  C_25 
REMARK    2  A    between atoms: C_4  and  C_9 
REMARK    3  A    between atoms: C_4  and  C_5 
REMARK    4  A    between atoms: C_9  and  C_18 
REMARK    5  A    between atoms: C_9  and  N_22 
REMARK    6  A    between atoms: O_10  and  C_11 
REMARK    7  A    between atoms: C_11  and  C_12 
REMARK    8  A    between atoms: C_12  and  C_17 
REMARK    9  A    between atoms: C_12  and  N_24 
REMARK       I    between atoms: C_18  and  N_24 
ROOT
HETATM    1  C           1     -20.444  -4.214  -9.121  0.00  0.00     0.278 C 
ENDROOT
BRANCH   1   2
HETATM    2  C           1     -21.966  -4.270  -9.123  0.00  0.00     0.081 C 
BRANCH   2   3
HETATM    3  C           1     -22.471  -4.054 -10.516  0.00  0.00    -0.056 A 
HETATM    4  C           1     -21.969  -3.004 -11.284  0.00  0.00     0.010 A 
HETATM    5  C           1     -22.440  -2.804 -12.583  0.00  0.00     0.037 A 
HETATM    6  C           1     -23.412  -3.653 -13.111  0.00  0.00     0.065 A 
HETATM    7  C           1     -23.912  -4.703 -12.343  0.00  0.00     0.037 A 
HETATM    8  C           1     -23.442  -4.905 -11.045  0.00  0.00     0.010 A 
BRANCH   6   9
HETATM    9  O           1     -23.868  -3.458 -14.372  0.00  0.00    -0.361 OA
HETATM   10  H           1     -24.352  -4.257 -14.642  0.00  0.00     0.217 HD
ENDBRANCH   6   9
ENDBRANCH   2   3
ENDBRANCH   1   2
BRANCH   1  11
HETATM   11  C           1     -19.922  -4.768  -7.818  0.00  0.00     0.249 C 
HETATM   12  O           1     -18.810  -4.483  -7.442  0.00  0.00    -0.271 OA
HETATM   13  N           1     -20.709  -5.595  -7.061  0.00  0.00    -0.343 N 
HETATM   14  H           1     -21.640  -5.834  -7.376  0.00  0.00     0.163 HD
BRANCH  13  15
HETATM   15  C           1     -20.207  -6.127  -5.809  0.00  0.00     0.209 C 
BRANCH  15  16
HETATM   16  C           1     -21.032  -5.574  -4.655  0.00  0.00     0.200 C 
BRANCH  16  17
HETATM   17  O           1     -21.224  -6.577  -3.695  0.00  0.00    -0.398 OA
HETATM   18  H           1     -22.078  -6.439  -3.321  0.00  0.00     0.209 HD
ENDBRANCH  16  17
ENDBRANCH  15  16
BRANCH  15  19
HETATM   19  C           1     -20.312  -7.632  -5.827  0.00  0.00     0.198 C 
HETATM   20  O           1     -21.392  -8.180  -6.133  0.00  0.00    -0.646 OA
HETATM   21  O           1     -19.316  -8.331  -5.535  0.00  0.00    -0.646 OA
ENDBRANCH  15  19
ENDBRANCH  13  15
ENDBRANCH   1  11
BRANCH   1  22
HETATM   22  N           1     -19.912  -5.033 -10.260  0.00  0.00    -0.066 N 
HETATM   23  H           1     -20.580  -4.988 -11.063  0.00  0.00     0.275 HD
HETATM   24  H           1     -18.985  -4.654 -10.557  0.00  0.00     0.275 HD
HETATM   25  H           1     -19.803  -6.026  -9.954  0.00  0.00     0.275 HD
ENDBRANCH   1  22
TORSDOF 9
ENDMDL
MODEL 8
REMARK VINA RESULT:      -5.8      1.845      2.754
REMARK  9 active torsions:
REMARK  status: ('A' for Active; 'I' for Inactive)
REMARK    1  A    between atoms: O_1  and  C_25 
REMARK    2  A    between atoms: C_4  and  C_9 
REMARK    3  A    between atoms: C_4  and  C_5 
REMARK    4  A    between atoms: C_9  and  C_18 
REMARK    5  A    between atoms: C_9  and  N_22 
REMARK    6  A    between atoms: O_10  and  C_11 
REMARK    7  A    between atoms: C_11  and  C_12 
REMARK    8  A    between atoms: C_12  and  C_17 
REMARK    9  A    between atoms: C_12  and  N_24 
REMARK       I    between atoms: C_18  and  N_24 
ROOT
HETATM    1  C           1     -20.788  -5.323  -6.499  0.00  0.00     0.278 C 
ENDROOT
BRANCH   1   2
HETATM    2  C           1     -20.011  -5.235  -7.806  0.00  0.00     0.081 C 
BRANCH   2   3
HETATM    3  C           1     -20.874  -4.612  -8.858  0.00  0.00    -0.056 A 
HETATM    4  C           1     -22.197  -4.281  -8.568  0.00  0.00     0.010 A 
HETATM    5  C           1     -23.002  -3.700  -9.550  0.00  0.00     0.037 A 
HETATM    6  C           1     -22.482  -3.449 -10.819  0.00  0.00     0.065 A 
HETATM    7  C           1     -21.159  -3.779 -11.108  0.00  0.00     0.037 A 
HETATM    8  C           1     -20.354  -4.361 -10.128  0.00  0.00     0.010 A 
BRANCH   6   9
HETATM    9  O           1     -23.263  -2.885 -11.772  0.00  0.00    -0.361 OA
HETATM   10  H           1     -22.787  -2.119 -12.134  0.00  0.00     0.217 HD
ENDBRANCH   6   9
ENDBRANCH   2   3
ENDBRANCH   1   2
BRANCH   1  11
HETATM   11  C           1     -20.835  -6.760  -6.038  0.00  0.00     0.249 C 
HETATM   12  O           1     -21.512  -7.564  -6.633  0.00  0.00    -0.271 OA
HETATM   13  N           1     -20.109  -7.152  -4.944  0.00  0.00    -0.343 N 
HETATM   14  H           1     -19.542  -6.479  -4.446  0.00  0.00     0.163 HD
BRANCH  13  15
HETATM   15  C           1     -20.155  -8.532  -4.501  0.00  0.00     0.209 C 
BRANCH  15  16
HETATM   16  C           1     -18.803  -9.189  -4.746  0.00  0.00     0.200 C 
BRANCH  16  17
HETATM   17  O           1     -18.803  -9.801  -6.008  0.00  0.00    -0.398 OA
HETATM   18  H           1     -19.116  -9.160  -6.623  0.00  0.00     0.209 HD
ENDBRANCH  16  17
ENDBRANCH  15  16
BRANCH  15  19
HETATM   19  C           1     -20.474  -8.574  -3.027  0.00  0.00     0.198 C 
HETATM   20  O           1     -21.595  -8.203  -2.619  0.00  0.00    -0.646 OA
HETATM   21  O           1     -19.616  -8.982  -2.213  0.00  0.00    -0.646 OA
ENDBRANCH  15  19
ENDBRANCH  13  15
ENDBRANCH   1  11
BRANCH   1  22
HETATM   22  N           1     -20.107  -4.487  -5.456  0.00  0.00    -0.066 N 
HETATM   23  H           1     -20.551  -4.659  -4.526  0.00  0.00     0.275 HD
HETATM   24  H           1     -19.095  -4.743  -5.412  0.00  0.00     0.275 HD
HETATM   25  H           1     -20.201  -3.476  -5.705  0.00  0.00     0.275 HD
ENDBRANCH   1  22
TORSDOF 9
ENDMDL
MODEL 9
REMARK VINA RESULT:      -5.8      2.386      7.891
REMARK  9 active torsions:
REMARK  status: ('A' for Active; 'I' for Inactive)
REMARK    1  A    between atoms: O_1  and  C_25 
REMARK    2  A    between atoms: C_4  and  C_9 
REMARK    3  A    between atoms: C_4  and  C_5 
REMARK    4  A    between atoms: C_9  and  C_18 
REMARK    5  A    between atoms: C_9  and  N_22 
REMARK    6  A    between atoms: O_10  and  C_11 
REMARK    7  A    between atoms: C_11  and  C_12 
REMARK    8  A    between atoms: C_12  and  C_17 
REMARK    9  A    between atoms: C_12  and  N_24 
REMARK       I    between atoms: C_18  and  N_24 
ROOT
HETATM    1  C           1     -21.427  -7.813  -4.959  0.00  0.00     0.278 C 
ENDROOT
BRANCH   1   2
HETATM    2  C           1     -20.358  -7.889  -3.877  0.00  0.00     0.081 C 
BRANCH   2   3
HETATM    3  C           1     -21.012  -7.924  -2.531  0.00  0.00    -0.056 A 
HETATM    4  C           1     -20.844  -9.032  -1.702  0.00  0.00     0.010 A 
HETATM    5  C           1     -21.454  -9.063  -0.447  0.00  0.00     0.037 A 
HETATM    6  C           1     -22.231  -7.985  -0.023  0.00  0.00     0.065 A 
HETATM    7  C           1     -22.398  -6.877  -0.852  0.00  0.00     0.037 A 
HETATM    8  C           1     -21.789  -6.846  -2.107  0.00  0.00     0.010 A 
BRANCH   6   9
HETATM    9  O           1     -22.823  -8.016   1.196  0.00  0.00    -0.361 OA
HETATM   10  H           1     -23.317  -8.850   1.268  0.00  0.00     0.217 HD
ENDBRANCH   6   9
ENDBRANCH   2   3
ENDBRANCH   1   2
BRANCH   1  11
HETATM   11  C           1     -21.383  -6.454  -5.614  0.00  0.00     0.249 C 
HETATM   12  O           1     -21.607  -5.461  -4.963  0.00  0.00    -0.271 OA
HETATM   13  N           1     -21.091  -6.345  -6.948  0.00  0.00    -0.343 N 
HETATM   14  H           1     -20.904  -7.176  -7.494  0.00  0.00     0.163 HD
BRANCH  13  15
HETATM   15  C           1     -21.050  -5.039  -7.577  0.00  0.00     0.209 C 
BRANCH  15  16
HETATM   16  C           1     -19.949  -5.017  -8.629  0.00  0.00     0.200 C 
BRANCH  16  17
HETATM   17  O           1     -20.082  -3.869  -9.421  0.00  0.00    -0.398 OA
HETATM   18  H           1     -20.432  -3.192  -8.867  0.00  0.00     0.209 HD
ENDBRANCH  16  17
ENDBRANCH  15  16
BRANCH  15  19
HETATM   19  C           1     -22.379  -4.757  -8.234  0.00  0.00     0.198 C 
HETATM   20  O           1     -22.541  -5.001  -9.448  0.00  0.00    -0.646 OA
HETATM   21  O           1     -23.319  -4.279  -7.561  0.00  0.00    -0.646 OA
ENDBRANCH  15  19
ENDBRANCH  13  15
ENDBRANCH   1  11
BRANCH   1  22
HETATM   22  N           1     -21.170  -8.872  -5.990  0.00  0.00    -0.066 N 
HETATM   23  H           1     -21.317  -8.473  -6.945  0.00  0.00     0.275 HD
HETATM   24  H           1     -20.185  -9.210  -5.902  0.00  0.00     0.275 HD
HETATM   25  H           1     -21.828  -9.670  -5.841  0.00  0.00     0.275 HD
ENDBRANCH   1  22
TORSDOF 9
ENDMDL
