MODEL 1
REMARK VINA RESULT:      -8.0      0.000      0.000
REMARK  9 active torsions:
REMARK  status: ('A' for Active; 'I' for Inactive)
REMARK       I    between atoms: C_1  and  N_10 
REMARK    1  A    between atoms: C_1  and  C_22 
REMARK    2  A    between atoms: C_2  and  C_19 
REMARK    3  A    between atoms: C_2  and  C_17 
REMARK    4  A    between atoms: C_3  and  C_17 
REMARK    5  A    between atoms: C_9  and  C_23 
REMARK    6  A    between atoms: N_10  and  C_17 
REMARK    7  A    between atoms: N_11  and  C_22 
REMARK    8  A    between atoms: S_18  and  C_19 
REMARK    9  A    between atoms: C_22  and  C_23 
ROOT
HETATM    1  C           1     -20.944  -5.290  -6.583  0.00  0.00     0.278 C 
ENDROOT
BRANCH   1   2
HETATM    2  C           1     -21.523  -4.289  -7.552  0.00  0.00     0.249 C 
HETATM    3  N           1     -22.080  -4.717  -8.727  0.00  0.00    -0.345 N 
HETATM    4  H           1     -22.103  -5.705  -8.945  0.00  0.00     0.163 HD
HETATM    5  O           1     -21.495  -3.110  -7.291  0.00  0.00    -0.271 OA
BRANCH   3   6
HETATM    6  C           1     -22.637  -3.755  -9.659  0.00  0.00     0.186 C 
BRANCH   6   7
HETATM    7  C           1     -22.132  -4.056 -11.064  0.00  0.00     0.046 C 
BRANCH   7   8
HETATM    8  C           1     -22.398  -2.860 -11.967  0.00  0.00     0.076 C 
BRANCH   8   9
HETATM    9  S           1     -23.738  -3.260 -13.124  0.00  0.00    -0.173 SA
HETATM   10  C           1     -22.940  -2.569 -14.601  0.00  0.00     0.089 C 
ENDBRANCH   8   9
ENDBRANCH   7   8
ENDBRANCH   6   7
BRANCH   6  11
HETATM   11  C           1     -24.143  -3.849  -9.636  0.00  0.00     0.196 C 
HETATM   12  O           1     -24.704  -4.946  -9.845  0.00  0.00    -0.646 OA
HETATM   13  O           1     -24.829  -2.829  -9.405  0.00  0.00    -0.646 OA
ENDBRANCH   6  11
ENDBRANCH   3   6
ENDBRANCH   1   2
BRANCH   1  14
HETATM   14  N           1     -19.959  -4.602  -5.684  0.00  0.00    -0.066 N 
HETATM   15  H           1     -19.351  -3.969  -6.251  0.00  0.00     0.275 HD
HETATM   16  H           1     -20.473  -4.041  -4.969  0.00  0.00     0.275 HD
HETATM   17  H           1     -19.366  -5.318  -5.206  0.00  0.00     0.275 HD
ENDBRANCH   1  14
BRANCH   1  18
HETATM   18  C           1     -22.063  -5.890  -5.743  0.00  0.00     0.083 C 
BRANCH  18  19
HETATM   19  C           1     -21.506  -6.964  -4.863  0.00  0.00    -0.028 A 
HETATM   20  C           1     -21.633  -7.038  -3.447  0.00  0.00    -0.002 A 
HETATM   21  C           1     -20.968  -8.193  -3.035  0.00  0.00     0.042 A 
HETATM   22  C           1     -22.252  -6.230  -2.476  0.00  0.00     0.014 A 
HETATM   23  C           1     -20.892  -8.583  -1.692  0.00  0.00     0.030 A 
HETATM   24  N           1     -20.460  -8.793  -4.166  0.00  0.00    -0.365 N 
HETATM   25  C           1     -21.514  -7.764  -0.746  0.00  0.00     0.002 A 
HETATM   26  C           1     -22.185  -6.604  -1.129  0.00  0.00     0.001 A 
HETATM   27  C           1     -20.779  -8.057  -5.277  0.00  0.00     0.096 A 
HETATM   28  H           1     -19.905  -9.685  -4.176  0.00  0.00     0.165 HD
ENDBRANCH  18  19
ENDBRANCH   1  18
TORSDOF 9
ENDMDL
MODEL 2
REMARK VINA RESULT:      -7.4      3.622      8.491
REMARK  9 active torsions:
REMARK  status: ('A' for Active; 'I' for Inactive)
REMARK       I    between atoms: C_1  and  N_10 
REMARK    1  A    between atoms: C_1  and  C_22 
REMARK    2  A    between atoms: C_2  and  C_19 
REMARK    3  A    between atoms: C_2  and  C_17 
REMARK    4  A    between atoms: C_3  and  C_17 
REMARK    5  A    between atoms: C_9  and  C_23 
REMARK    6  A    between atoms: N_10  and  C_17 
REMARK    7  A    between atoms: N_11  and  C_22 
REMARK    8  A    between atoms: S_18  and  C_19 
REMARK    9  A    between atoms: C_22  and  C_23 
ROOT
HETATM    1  C           1     -20.905  -4.155  -7.489  0.00  0.00     0.278 C 
ENDROOT
BRANCH   1   2
HETATM    2  C           1     -20.547  -4.882  -6.217  0.00  0.00     0.249 C 
HETATM    3  N           1     -21.258  -5.990  -5.838  0.00  0.00    -0.345 N 
HETATM    4  H           1     -22.024  -6.320  -6.412  0.00  0.00     0.163 HD
HETATM    5  O           1     -19.633  -4.488  -5.532  0.00  0.00    -0.271 OA
BRANCH   3   6
HETATM    6  C           1     -20.914  -6.689  -4.615  0.00  0.00     0.186 C 
BRANCH   6   7
HETATM    7  C           1     -22.104  -6.667  -3.664  0.00  0.00     0.046 C 
BRANCH   7   8
HETATM    8  C           1     -21.686  -6.042  -2.341  0.00  0.00     0.076 C 
BRANCH   8   9
HETATM    9  S           1     -22.297  -7.061  -0.969  0.00  0.00    -0.173 SA
HETATM   10  C           1     -20.893  -8.211  -0.933  0.00  0.00     0.089 C 
ENDBRANCH   8   9
ENDBRANCH   7   8
ENDBRANCH   6   7
BRANCH   6  11
HETATM   11  C           1     -20.556  -8.119  -4.939  0.00  0.00     0.196 C 
HETATM   12  O           1     -21.134  -8.711  -5.876  0.00  0.00    -0.646 OA
HETATM   13  O           1     -19.680  -8.710  -4.271  0.00  0.00    -0.646 OA
ENDBRANCH   6  11
ENDBRANCH   3   6
ENDBRANCH   1   2
BRANCH   1  14
HETATM   14  N           1     -19.665  -3.566  -8.094  0.00  0.00    -0.066 N 
HETATM   15  H           1     -18.883  -3.613  -7.402  0.00  0.00     0.275 HD
HETATM   16  H           1     -19.406  -4.106  -8.949  0.00  0.00     0.275 HD
HETATM   17  H           1     -19.843  -2.569  -8.350  0.00  0.00     0.275 HD
ENDBRANCH   1  14
BRANCH   1  18
HETATM   18  C           1     -21.534  -5.133  -8.474  0.00  0.00     0.083 C 
BRANCH  18  19
HETATM   19  C           1     -22.690  -4.477  -9.160  0.00  0.00    -0.028 A 
HETATM   20  C           1     -22.715  -4.015 -10.506  0.00  0.00    -0.002 A 
HETATM   21  C           1     -23.981  -3.474 -10.731  0.00  0.00     0.042 A 
HETATM   22  C           1     -21.779  -4.009 -11.556  0.00  0.00     0.014 A 
HETATM   23  C           1     -24.359  -2.922 -11.962  0.00  0.00     0.030 A 
HETATM   24  N           1     -24.692  -3.606  -9.559  0.00  0.00    -0.365 N 
HETATM   25  C           1     -23.412  -2.926 -12.989  0.00  0.00     0.002 A 
HETATM   26  C           1     -22.140  -3.460 -12.793  0.00  0.00     0.001 A 
HETATM   27  C           1     -23.921  -4.210  -8.603  0.00  0.00     0.096 A 
HETATM   28  H           1     -25.683  -3.287  -9.418  0.00  0.00     0.165 HD
ENDBRANCH  18  19
ENDBRANCH   1  18
TORSDOF 9
ENDMDL
MODEL 3
REMARK VINA RESULT:      -7.4      3.961      8.558
REMARK  9 active torsions:
REMARK  status: ('A' for Active; 'I' for Inactive)
REMARK       I    between atoms: C_1  and  N_10 
REMARK    1  A    between atoms: C_1  and  C_22 
REMARK    2  A    between atoms: C_2  and  C_19 
REMARK    3  A    between atoms: C_2  and  C_17 
REMARK    4  A    between atoms: C_3  and  C_17 
REMARK    5  A    between atoms: C_9  and  C_23 
REMARK    6  A    between atoms: N_10  and  C_17 
REMARK    7  A    between atoms: N_11  and  C_22 
REMARK    8  A    between atoms: S_18  and  C_19 
REMARK    9  A    between atoms: C_22  and  C_23 
ROOT
HETATM    1  C           1     -20.822  -5.496  -6.082  0.00  0.00     0.278 C 
ENDROOT
BRANCH   1   2
HETATM    2  C           1     -20.280  -6.863  -5.745  0.00  0.00     0.249 C 
HETATM    3  N           1     -20.697  -7.503  -4.608  0.00  0.00    -0.345 N 
HETATM    4  H           1     -21.367  -7.059  -3.995  0.00  0.00     0.163 HD
HETATM    5  O           1     -19.480  -7.393  -6.478  0.00  0.00    -0.271 OA
BRANCH   3   6
HETATM    6  C           1     -20.177  -8.818  -4.285  0.00  0.00     0.186 C 
BRANCH   6   7
HETATM    7  C           1     -20.038  -8.952  -2.773  0.00  0.00     0.046 C 
BRANCH   7   8
HETATM    8  C           1     -20.723  -7.774  -2.094  0.00  0.00     0.076 C 
BRANCH   8   9
HETATM    9  S           1     -21.265  -8.264  -0.433  0.00  0.00    -0.173 SA
HETATM   10  C           1     -21.007 -10.047  -0.656  0.00  0.00     0.089 C 
ENDBRANCH   8   9
ENDBRANCH   7   8
ENDBRANCH   6   7
BRANCH   6  11
HETATM   11  C           1     -21.126  -9.873  -4.797  0.00  0.00     0.196 C 
HETATM   12  O           1     -20.992 -10.324  -5.955  0.00  0.00    -0.646 OA
HETATM   13  O           1     -22.045 -10.296  -4.063  0.00  0.00    -0.646 OA
ENDBRANCH   6  11
ENDBRANCH   3   6
ENDBRANCH   1   2
BRANCH   1  14
HETATM   14  N           1     -20.096  -4.459  -5.276  0.00  0.00    -0.066 N 
HETATM   15  H           1     -19.822  -3.664  -5.897  0.00  0.00     0.275 HD
HETATM   16  H           1     -20.722  -4.108  -4.517  0.00  0.00     0.275 HD
HETATM   17  H           1     -19.239  -4.883  -4.855  0.00  0.00     0.275 HD
ENDBRANCH   1  14
BRANCH   1  18
HETATM   18  C           1     -20.617  -5.220  -7.566  0.00  0.00     0.083 C 
BRANCH  18  19
HETATM   19  C           1     -21.868  -4.636  -8.143  0.00  0.00    -0.028 A 
HETATM   20  C           1     -22.046  -4.191  -9.483  0.00  0.00    -0.002 A 
HETATM   21  C           1     -23.356  -3.722  -9.590  0.00  0.00     0.042 A 
HETATM   22  C           1     -21.215  -4.144 -10.617  0.00  0.00     0.014 A 
HETATM   23  C           1     -23.878  -3.205 -10.782  0.00  0.00     0.030 A 
HETATM   24  N           1     -23.944  -3.880  -8.355  0.00  0.00    -0.365 N 
HETATM   25  C           1     -23.034  -3.169 -11.895  0.00  0.00     0.002 A 
HETATM   26  C           1     -21.722  -3.630 -11.817  0.00  0.00     0.001 A 
HETATM   27  C           1     -23.053  -4.431  -7.472  0.00  0.00     0.096 A 
HETATM   28  H           1     -24.933  -3.615  -8.122  0.00  0.00     0.165 HD
ENDBRANCH  18  19
ENDBRANCH   1  18
TORSDOF 9
ENDMDL
MODEL 4
REMARK VINA RESULT:      -7.3      3.794      8.362
REMARK  9 active torsions:
REMARK  status: ('A' for Active; 'I' for Inactive)
REMARK       I    between atoms: C_1  and  N_10 
REMARK    1  A    between atoms: C_1  and  C_22 
REMARK    2  A    between atoms: C_2  and  C_19 
REMARK    3  A    between atoms: C_2  and  C_17 
REMARK    4  A    between atoms: C_3  and  C_17 
REMARK    5  A    between atoms: C_9  and  C_23 
REMARK    6  A    between atoms: N_10  and  C_17 
REMARK    7  A    between atoms: N_11  and  C_22 
REMARK    8  A    between atoms: S_18  and  C_19 
REMARK    9  A    between atoms: C_22  and  C_23 
ROOT
HETATM    1  C           1     -21.156  -5.246  -5.683  0.00  0.00     0.278 C 
ENDROOT
BRANCH   1   2
HETATM    2  C           1     -21.421  -6.494  -4.878  0.00  0.00     0.249 C 
HETATM    3  N           1     -21.158  -6.511  -3.534  0.00  0.00    -0.345 N 
HETATM    4  H           1     -20.785  -5.687  -3.082  0.00  0.00     0.163 HD
HETATM    5  O           1     -21.867  -7.478  -5.419  0.00  0.00    -0.271 OA
BRANCH   3   6
HETATM    6  C           1     -21.413  -7.711  -2.761  0.00  0.00     0.186 C 
BRANCH   6   7
HETATM    7  C           1     -20.096  -8.424  -2.479  0.00  0.00     0.046 C 
BRANCH   7   8
HETATM    8  C           1     -19.992  -9.662  -3.358  0.00  0.00     0.076 C 
BRANCH   8   9
HETATM    9  S           1     -21.613 -10.470  -3.464  0.00  0.00    -0.173 SA
HETATM   10  C           1     -21.280 -11.390  -4.993  0.00  0.00     0.089 C 
ENDBRANCH   8   9
ENDBRANCH   7   8
ENDBRANCH   6   7
BRANCH   6  11
HETATM   11  C           1     -22.070  -7.335  -1.455  0.00  0.00     0.196 C 
HETATM   12  O           1     -22.468  -6.165  -1.270  0.00  0.00    -0.646 OA
HETATM   13  O           1     -22.217  -8.195  -0.560  0.00  0.00    -0.646 OA
ENDBRANCH   6  11
ENDBRANCH   3   6
ENDBRANCH   1   2
BRANCH   1  14
HETATM   14  N           1     -19.891  -4.600  -5.201  0.00  0.00    -0.066 N 
HETATM   15  H           1     -19.500  -3.992  -5.955  0.00  0.00     0.275 HD
HETATM   16  H           1     -20.097  -4.019  -4.357  0.00  0.00     0.275 HD
HETATM   17  H           1     -19.195  -5.340  -4.954  0.00  0.00     0.275 HD
ENDBRANCH   1  14
BRANCH   1  18
HETATM   18  C           1     -21.010  -5.611  -7.154  0.00  0.00     0.083 C 
BRANCH  18  19
HETATM   19  C           1     -22.003  -4.837  -7.963  0.00  0.00    -0.028 A 
HETATM   20  C           1     -21.820  -4.371  -9.295  0.00  0.00    -0.002 A 
HETATM   21  C           1     -22.987  -3.701  -9.660  0.00  0.00     0.042 A 
HETATM   22  C           1     -20.768  -4.457 -10.226  0.00  0.00     0.014 A 
HETATM   23  C           1     -23.157  -3.109 -10.918  0.00  0.00     0.030 A 
HETATM   24  N           1     -23.843  -3.763  -8.583  0.00  0.00    -0.365 N 
HETATM   25  C           1     -22.099  -3.207 -11.826  0.00  0.00     0.002 A 
HETATM   26  C           1     -20.922  -3.871 -11.488  0.00  0.00     0.001 A 
HETATM   27  C           1     -23.257  -4.448  -7.551  0.00  0.00     0.096 A 
HETATM   28  H           1     -24.806  -3.345  -8.555  0.00  0.00     0.165 HD
ENDBRANCH  18  19
ENDBRANCH   1  18
TORSDOF 9
ENDMDL
MODEL 5
REMARK VINA RESULT:      -7.2      3.985      8.380
REMARK  9 active torsions:
REMARK  status: ('A' for Active; 'I' for Inactive)
REMARK       I    between atoms: C_1  and  N_10 
REMARK    1  A    between atoms: C_1  and  C_22 
REMARK    2  A    between atoms: C_2  and  C_19 
REMARK    3  A    between atoms: C_2  and  C_17 
REMARK    4  A    between atoms: C_3  and  C_17 
REMARK    5  A    between atoms: C_9  and  C_23 
REMARK    6  A    between atoms: N_10  and  C_17 
REMARK    7  A    between atoms: N_11  and  C_22 
REMARK    8  A    between atoms: S_18  and  C_19 
REMARK    9  A    between atoms: C_22  and  C_23 
ROOT
HETATM    1  C           1     -20.755  -5.373  -6.111  0.00  0.00     0.278 C 
ENDROOT
BRANCH   1   2
HETATM    2  C           1     -20.175  -6.751  -5.904  0.00  0.00     0.249 C 
HETATM    3  N           1     -20.559  -7.500  -4.823  0.00  0.00    -0.345 N 
HETATM    4  H           1     -21.230  -7.128  -4.164  0.00  0.00     0.163 HD
HETATM    5  O           1     -19.374  -7.193  -6.692  0.00  0.00    -0.271 OA
BRANCH   3   6
HETATM    6  C           1     -20.002  -8.824  -4.625  0.00  0.00     0.186 C 
BRANCH   6   7
HETATM    7  C           1     -19.583  -8.986  -3.169  0.00  0.00     0.046 C 
BRANCH   7   8
HETATM    8  C           1     -18.568 -10.115  -3.056  0.00  0.00     0.076 C 
BRANCH   8   9
HETATM    9  S           1     -17.298  -9.919  -4.338  0.00  0.00    -0.173 SA
HETATM   10  C           1     -17.533 -11.548  -5.103  0.00  0.00     0.089 C 
ENDBRANCH   8   9
ENDBRANCH   7   8
ENDBRANCH   6   7
BRANCH   6  11
HETATM   11  C           1     -21.042  -9.862  -4.967  0.00  0.00     0.196 C 
HETATM   12  O           1     -21.010 -10.437  -6.076  0.00  0.00    -0.646 OA
HETATM   13  O           1     -21.936 -10.147  -4.140  0.00  0.00    -0.646 OA
ENDBRANCH   6  11
ENDBRANCH   3   6
ENDBRANCH   1   2
BRANCH   1  14
HETATM   14  N           1     -20.075  -4.402  -5.191  0.00  0.00    -0.066 N 
HETATM   15  H           1     -20.795  -3.853  -4.669  0.00  0.00     0.275 HD
HETATM   16  H           1     -19.477  -4.925  -4.514  0.00  0.00     0.275 HD
HETATM   17  H           1     -19.480  -3.751  -5.752  0.00  0.00     0.275 HD
ENDBRANCH   1  14
BRANCH   1  18
HETATM   18  C           1     -20.538  -4.942  -7.555  0.00  0.00     0.083 C 
BRANCH  18  19
HETATM   19  C           1     -21.835  -4.479  -8.139  0.00  0.00    -0.028 A 
HETATM   20  C           1     -22.046  -4.051  -9.480  0.00  0.00    -0.002 A 
HETATM   21  C           1     -23.394  -3.709  -9.595  0.00  0.00     0.042 A 
HETATM   22  C           1     -21.216  -3.923 -10.609  0.00  0.00     0.014 A 
HETATM   23  C           1     -23.956  -3.242 -10.789  0.00  0.00     0.030 A 
HETATM   24  N           1     -23.972  -3.925  -8.364  0.00  0.00    -0.365 N 
HETATM   25  C           1     -23.112  -3.123 -11.897  0.00  0.00     0.002 A 
HETATM   26  C           1     -21.762  -3.458 -11.811  0.00  0.00     0.001 A 
HETATM   27  C           1     -23.038  -4.390  -7.476  0.00  0.00     0.096 A 
HETATM   28  H           1     -24.983  -3.755  -8.137  0.00  0.00     0.165 HD
ENDBRANCH  18  19
ENDBRANCH   1  18
TORSDOF 9
ENDMDL
MODEL 6
REMARK VINA RESULT:      -7.2      3.905      8.240
REMARK  9 active torsions:
REMARK  status: ('A' for Active; 'I' for Inactive)
REMARK       I    between atoms: C_1  and  N_10 
REMARK    1  A    between atoms: C_1  and  C_22 
REMARK    2  A    between atoms: C_2  and  C_19 
REMARK    3  A    between atoms: C_2  and  C_17 
REMARK    4  A    between atoms: C_3  and  C_17 
REMARK    5  A    between atoms: C_9  and  C_23 
REMARK    6  A    between atoms: N_10  and  C_17 
REMARK    7  A    between atoms: N_11  and  C_22 
REMARK    8  A    between atoms: S_18  and  C_19 
REMARK    9  A    between atoms: C_22  and  C_23 
ROOT
HETATM    1  C           1     -21.644  -5.882  -6.678  0.00  0.00     0.278 C 
ENDROOT
BRANCH   1   2
HETATM    2  C           1     -20.591  -6.812  -6.128  0.00  0.00     0.249 C 
HETATM    3  N           1     -20.893  -7.647  -5.086  0.00  0.00    -0.345 N 
HETATM    4  H           1     -21.821  -7.640  -4.684  0.00  0.00     0.163 HD
HETATM    5  O           1     -19.482  -6.820  -6.608  0.00  0.00    -0.271 OA
BRANCH   3   6
HETATM    6  C           1     -19.881  -8.542  -4.557  0.00  0.00     0.186 C 
BRANCH   6   7
HETATM    7  C           1     -19.980  -8.581  -3.037  0.00  0.00     0.046 C 
BRANCH   7   8
HETATM    8  C           1     -21.434  -8.767  -2.628  0.00  0.00     0.076 C 
BRANCH   8   9
HETATM    9  S           1     -21.766  -7.816  -1.119  0.00  0.00    -0.173 SA
HETATM   10  C           1     -22.151  -6.249  -1.950  0.00  0.00     0.089 C 
ENDBRANCH   8   9
ENDBRANCH   7   8
ENDBRANCH   6   7
BRANCH   6  11
HETATM   11  C           1     -20.099  -9.928  -5.110  0.00  0.00     0.196 C 
HETATM   12  O           1     -21.014 -10.135  -5.936  0.00  0.00    -0.646 OA
HETATM   13  O           1     -19.363 -10.870  -4.745  0.00  0.00    -0.646 OA
ENDBRANCH   6  11
ENDBRANCH   3   6
ENDBRANCH   1   2
BRANCH   1  14
HETATM   14  N           1     -22.682  -5.625  -5.626  0.00  0.00    -0.066 N 
HETATM   15  H           1     -23.178  -4.730  -5.836  0.00  0.00     0.275 HD
HETATM   16  H           1     -23.370  -6.410  -5.617  0.00  0.00     0.275 HD
HETATM   17  H           1     -22.220  -5.555  -4.691  0.00  0.00     0.275 HD
ENDBRANCH   1  14
BRANCH   1  18
HETATM   18  C           1     -20.997  -4.565  -7.084  0.00  0.00     0.083 C 
BRANCH  18  19
HETATM   19  C           1     -21.115  -4.384  -8.565  0.00  0.00    -0.028 A 
HETATM   20  C           1     -22.296  -4.032  -9.275  0.00  0.00    -0.002 A 
HETATM   21  C           1     -21.960  -3.973 -10.628  0.00  0.00     0.042 A 
HETATM   22  C           1     -23.623  -3.756  -8.894  0.00  0.00     0.014 A 
HETATM   23  C           1     -22.890  -3.650 -11.624  0.00  0.00     0.030 A 
HETATM   24  N           1     -20.622  -4.280 -10.726  0.00  0.00    -0.365 N 
HETATM   25  C           1     -24.201  -3.380 -11.221  0.00  0.00     0.002 A 
HETATM   26  C           1     -24.565  -3.432  -9.877  0.00  0.00     0.001 A 
HETATM   27  C           1     -20.101  -4.531  -9.484  0.00  0.00     0.096 A 
HETATM   28  H           1     -20.078  -4.318 -11.623  0.00  0.00     0.165 HD
ENDBRANCH  18  19
ENDBRANCH   1  18
TORSDOF 9
ENDMDL
MODEL 7
REMARK VINA RESULT:      -7.2      4.202      8.569
REMARK  9 active torsions:
REMARK  status: ('A' for Active; 'I' for Inactive)
REMARK       I    between atoms: C_1  and  N_10 
REMARK    1  A    between atoms: C_1  and  C_22 
REMARK    2  A    between atoms: C_2  and  C_19 
REMARK    3  A    between atoms: C_2  and  C_17 
REMARK    4  A    between atoms: C_3  and  C_17 
REMARK    5  A    between atoms: C_9  and  C_23 
REMARK    6  A    between atoms: N_10  and  C_17 
REMARK    7  A    between atoms: N_11  and  C_22 
REMARK    8  A    between atoms: S_18  and  C_19 
REMARK    9  A    between atoms: C_22  and  C_23 
ROOT
HETATM    1  C           1     -21.523  -6.323  -5.714  0.00  0.00     0.278 C 
ENDROOT
BRANCH   1   2
HETATM    2  C           1     -20.400  -7.327  -5.623  0.00  0.00     0.249 C 
HETATM    3  N           1     -20.388  -8.251  -4.612  0.00  0.00    -0.345 N 
HETATM    4  H           1     -21.131  -8.259  -3.927  0.00  0.00     0.163 HD
HETATM    5  O           1     -19.512  -7.316  -6.442  0.00  0.00    -0.271 OA
BRANCH   3   6
HETATM    6  C           1     -19.309  -9.216  -4.526  0.00  0.00     0.186 C 
BRANCH   6   7
HETATM    7  C           1     -18.888  -9.379  -3.070  0.00  0.00     0.046 C 
BRANCH   7   8
HETATM    8  C           1     -19.837  -8.593  -2.176  0.00  0.00     0.076 C 
BRANCH   8   9
HETATM    9  S           1     -20.806  -9.745  -1.162  0.00  0.00    -0.173 SA
HETATM   10  C           1     -21.845  -8.486  -0.367  0.00  0.00     0.089 C 
ENDBRANCH   8   9
ENDBRANCH   7   8
ENDBRANCH   6   7
BRANCH   6  11
HETATM   11  C           1     -19.780 -10.544  -5.064  0.00  0.00     0.196 C 
HETATM   12  O           1     -19.926 -10.703  -6.295  0.00  0.00    -0.646 OA
HETATM   13  O           1     -20.022 -11.486  -4.279  0.00  0.00    -0.646 OA
ENDBRANCH   6  11
ENDBRANCH   3   6
ENDBRANCH   1   2
BRANCH   1  14
HETATM   14  N           1     -22.044  -6.031  -4.337  0.00  0.00    -0.066 N 
HETATM   15  H           1     -21.755  -6.795  -3.685  0.00  0.00     0.275 HD
HETATM   16  H           1     -21.653  -5.122  -4.003  0.00  0.00     0.275 HD
HETATM   17  H           1     -23.087  -5.973  -4.366  0.00  0.00     0.275 HD
ENDBRANCH   1  14
BRANCH   1  18
HETATM   18  C           1     -21.005  -5.036  -6.343  0.00  0.00     0.083 C 
BRANCH  18  19
HETATM   19  C           1     -21.946  -4.592  -7.418  0.00  0.00    -0.028 A 
HETATM   20  C           1     -21.600  -4.297  -8.767  0.00  0.00    -0.002 A 
HETATM   21  C           1     -22.775  -3.922  -9.419  0.00  0.00     0.042 A 
HETATM   22  C           1     -20.396  -4.314  -9.495  0.00  0.00     0.014 A 
HETATM   23  C           1     -22.806  -3.562 -10.772  0.00  0.00     0.030 A 
HETATM   24  N           1     -23.792  -3.990  -8.493  0.00  0.00    -0.365 N 
HETATM   25  C           1     -21.598  -3.587 -11.475  0.00  0.00     0.002 A 
HETATM   26  C           1     -20.409  -3.957 -10.849  0.00  0.00     0.001 A 
HETATM   27  C           1     -23.301  -4.394  -7.280  0.00  0.00     0.096 A 
HETATM   28  H           1     -24.799  -3.764  -8.689  0.00  0.00     0.165 HD
ENDBRANCH  18  19
ENDBRANCH   1  18
TORSDOF 9
ENDMDL
MODEL 8
REMARK VINA RESULT:      -7.0      1.930      3.222
REMARK  9 active torsions:
REMARK  status: ('A' for Active; 'I' for Inactive)
REMARK       I    between atoms: C_1  and  N_10 
REMARK    1  A    between atoms: C_1  and  C_22 
REMARK    2  A    between atoms: C_2  and  C_19 
REMARK    3  A    between atoms: C_2  and  C_17 
REMARK    4  A    between atoms: C_3  and  C_17 
REMARK    5  A    between atoms: C_9  and  C_23 
REMARK    6  A    between atoms: N_10  and  C_17 
REMARK    7  A    between atoms: N_11  and  C_22 
REMARK    8  A    between atoms: S_18  and  C_19 
REMARK    9  A    between atoms: C_22  and  C_23 
ROOT
HETATM    1  C           1     -21.204  -7.772  -5.474  0.00  0.00     0.278 C 
ENDROOT
BRANCH   1   2
HETATM    2  C           1     -20.751  -6.856  -6.584  0.00  0.00     0.249 C 
HETATM    3  N           1     -21.649  -6.017  -7.188  0.00  0.00    -0.345 N 
HETATM    4  H           1     -22.616  -6.013  -6.890  0.00  0.00     0.163 HD
HETATM    5  O           1     -19.597  -6.862  -6.939  0.00  0.00    -0.271 OA
BRANCH   3   6
HETATM    6  C           1     -21.214  -5.137  -8.255  0.00  0.00     0.186 C 
BRANCH   6   7
HETATM    7  C           1     -22.413  -4.738  -9.106  0.00  0.00     0.046 C 
BRANCH   7   8
HETATM    8  C           1     -21.929  -4.211 -10.450  0.00  0.00     0.076 C 
BRANCH   8   9
HETATM    9  S           1     -23.270  -4.332 -11.667  0.00  0.00    -0.173 SA
HETATM   10  C           1     -23.129  -2.633 -12.290  0.00  0.00     0.089 C 
ENDBRANCH   8   9
ENDBRANCH   7   8
ENDBRANCH   6   7
BRANCH   6  11
HETATM   11  C           1     -20.587  -3.900  -7.660  0.00  0.00     0.196 C 
HETATM   12  O           1     -21.251  -3.171  -6.891  0.00  0.00    -0.646 OA
HETATM   13  O           1     -19.404  -3.606  -7.934  0.00  0.00    -0.646 OA
ENDBRANCH   6  11
ENDBRANCH   3   6
ENDBRANCH   1   2
BRANCH   1  14
HETATM   14  N           1     -21.151  -9.195  -5.947  0.00  0.00    -0.066 N 
HETATM   15  H           1     -22.080  -9.468  -6.338  0.00  0.00     0.275 HD
HETATM   16  H           1     -20.421  -9.288  -6.688  0.00  0.00     0.275 HD
HETATM   17  H           1     -20.913  -9.820  -5.144  0.00  0.00     0.275 HD
ENDBRANCH   1  14
BRANCH   1  18
HETATM   18  C           1     -20.286  -7.604  -4.270  0.00  0.00     0.083 C 
BRANCH  18  19
HETATM   19  C           1     -21.090  -7.169  -3.085  0.00  0.00    -0.028 A 
HETATM   20  C           1     -21.255  -7.892  -1.871  0.00  0.00    -0.002 A 
HETATM   21  C           1     -22.077  -7.126  -1.045  0.00  0.00     0.042 A 
HETATM   22  C           1     -20.779  -9.129  -1.396  0.00  0.00     0.014 A 
HETATM   23  C           1     -22.450  -7.538   0.241  0.00  0.00     0.030 A 
HETATM   24  N           1     -22.395  -5.981  -1.740  0.00  0.00    -0.365 N 
HETATM   25  C           1     -21.966  -8.770   0.691  0.00  0.00     0.002 A 
HETATM   26  C           1     -21.144  -9.556  -0.114  0.00  0.00     0.001 A 
HETATM   27  C           1     -21.804  -5.997  -2.975  0.00  0.00     0.096 A 
HETATM   28  H           1     -23.005  -5.207  -1.376  0.00  0.00     0.165 HD
ENDBRANCH  18  19
ENDBRANCH   1  18
TORSDOF 9
ENDMDL
MODEL 9
REMARK VINA RESULT:      -6.9      2.831      4.581
REMARK  9 active torsions:
REMARK  status: ('A' for Active; 'I' for Inactive)
REMARK       I    between atoms: C_1  and  N_10 
REMARK    1  A    between atoms: C_1  and  C_22 
REMARK    2  A    between atoms: C_2  and  C_19 
REMARK    3  A    between atoms: C_2  and  C_17 
REMARK    4  A    between atoms: C_3  and  C_17 
REMARK    5  A    between atoms: C_9  and  C_23 
REMARK    6  A    between atoms: N_10  and  C_17 
REMARK    7  A    between atoms: N_11  and  C_22 
REMARK    8  A    between atoms: S_18  and  C_19 
REMARK    9  A    between atoms: C_22  and  C_23 
ROOT
HETATM    1  C           1     -21.245  -6.269  -2.759  0.00  0.00     0.278 C 
ENDROOT
BRANCH   1   2
HETATM    2  C           1     -21.443  -6.353  -4.253  0.00  0.00     0.249 C 
HETATM    3  N           1     -21.023  -5.328  -5.058  0.00  0.00    -0.345 N 
HETATM    4  H           1     -20.581  -4.515  -4.650  0.00  0.00     0.163 HD
HETATM    5  O           1     -21.971  -7.325  -4.738  0.00  0.00    -0.271 OA
BRANCH   3   6
HETATM    6  C           1     -21.212  -5.410  -6.493  0.00  0.00     0.186 C 
BRANCH   6   7
HETATM    7  C           1     -21.756  -4.084  -7.010  0.00  0.00     0.046 C 
BRANCH   7   8
HETATM    8  C           1     -23.069  -4.324  -7.743  0.00  0.00     0.076 C 
BRANCH   8   9
HETATM    9  S           1     -22.829  -4.052  -9.521  0.00  0.00    -0.173 SA
HETATM   10  C           1     -24.487  -3.388  -9.847  0.00  0.00     0.089 C 
ENDBRANCH   8   9
ENDBRANCH   7   8
ENDBRANCH   6   7
BRANCH   6  11
HETATM   11  C           1     -19.890  -5.703  -7.157  0.00  0.00     0.196 C 
HETATM   12  O           1     -19.397  -6.850  -7.089  0.00  0.00    -0.646 OA
HETATM   13  O           1     -19.288  -4.800  -7.779  0.00  0.00    -0.646 OA
ENDBRANCH   6  11
ENDBRANCH   3   6
ENDBRANCH   1   2
BRANCH   1  14
HETATM   14  N           1     -22.564  -6.002  -2.095  0.00  0.00    -0.066 N 
HETATM   15  H           1     -22.776  -4.980  -2.139  0.00  0.00     0.275 HD
HETATM   16  H           1     -23.315  -6.535  -2.588  0.00  0.00     0.275 HD
HETATM   17  H           1     -22.518  -6.306  -1.096  0.00  0.00     0.275 HD
ENDBRANCH   1  14
BRANCH   1  18
HETATM   18  C           1     -20.677  -7.585  -2.246  0.00  0.00     0.083 C 
BRANCH  18  19
HETATM   19  C           1     -21.617  -8.181  -1.247  0.00  0.00    -0.028 A 
HETATM   20  C           1     -22.327  -9.406  -1.388  0.00  0.00    -0.002 A 
HETATM   21  C           1     -23.085  -9.578  -0.230  0.00  0.00     0.042 A 
HETATM   22  C           1     -22.396 -10.387  -2.395  0.00  0.00     0.014 A 
HETATM   23  C           1     -23.913 -10.689  -0.026  0.00  0.00     0.030 A 
HETATM   24  N           1     -22.838  -8.492   0.580  0.00  0.00    -0.365 N 
HETATM   25  C           1     -23.965 -11.650  -1.040  0.00  0.00     0.002 A 
HETATM   26  C           1     -23.219 -11.503  -2.208  0.00  0.00     0.001 A 
HETATM   27  C           1     -21.952  -7.641  -0.025  0.00  0.00     0.096 A 
HETATM   28  H           1     -23.267  -8.338   1.526  0.00  0.00     0.165 HD
ENDBRANCH  18  19
ENDBRANCH   1  18
TORSDOF 9
ENDMDL
