MODEL 1
REMARK VINA RESULT:      -6.4      0.000      0.000
REMARK  7 active torsions:
REMARK  status: ('A' for Active; 'I' for Inactive)
REMARK       I    between atoms: C_1  and  N_4 
REMARK    1  A    between atoms: C_1  and  C_5 
REMARK    2  A    between atoms: C_2  and  C_10 
REMARK    3  A    between atoms: C_2  and  N_12 
REMARK    4  A    between atoms: N_3  and  C_7 
REMARK       I    between atoms: N_3  and  C_10 
REMARK    5  A    between atoms: C_5  and  C_6 
REMARK    6  A    between atoms: C_6  and  C_7 
REMARK    7  A    between atoms: C_7  and  C_11 
ROOT
HETATM    1  C           1     -22.968  -3.303 -12.288  0.00  0.00     0.186 C 
ENDROOT
BRANCH   1   2
HETATM    2  N           1     -23.543  -2.165 -12.979  0.00  0.00    -0.345 N 
HETATM    3  C           1     -23.450  -2.073 -14.341  0.00  0.00     0.243 C 
HETATM    4  O           1     -22.888  -2.940 -14.968  0.00  0.00    -0.272 OA
HETATM    5  H           1     -24.013  -1.439 -12.453  0.00  0.00     0.163 HD
BRANCH   3   6
HETATM    6  C           1     -24.048  -0.889 -15.060  0.00  0.00     0.332 C 
BRANCH   6   7
HETATM    7  N           1     -23.067  -0.368 -16.069  0.00  0.00    -0.071 N 
HETATM    8  H           1     -23.554   0.285 -16.723  0.00  0.00     0.274 HD
HETATM    9  H           1     -22.299   0.141 -15.577  0.00  0.00     0.274 HD
HETATM   10  H           1     -22.667  -1.168 -16.609  0.00  0.00     0.274 HD
ENDBRANCH   6   7
ENDBRANCH   3   6
ENDBRANCH   1   2
BRANCH   1  11
HETATM   11  C           1     -21.766  -2.846 -11.472  0.00  0.00     0.045 C 
BRANCH  11  12
HETATM   12  C           1     -20.851  -4.035 -11.205  0.00  0.00     0.105 C 
BRANCH  12  13
HETATM   13  C           1     -20.733  -4.256  -9.718  0.00  0.00     0.215 C 
HETATM   14  O           1     -19.724  -4.735  -9.257  0.00  0.00    -0.274 OA
HETATM   15  N           1     -21.768  -3.914  -8.889  0.00  0.00    -0.370 N 
HETATM   16  H           1     -22.613  -3.513  -9.275  0.00  0.00     0.159 HD
HETATM   17  H           1     -21.687  -4.063  -7.892  0.00  0.00     0.159 HD
ENDBRANCH  12  13
ENDBRANCH  11  12
ENDBRANCH   1  11
BRANCH   1  18
HETATM   18  C           1     -24.001  -3.907 -11.367  0.00  0.00     0.196 C 
HETATM   19  O           1     -24.961  -3.214 -10.966  0.00  0.00    -0.646 OA
HETATM   20  O           1     -23.896  -5.098 -11.007  0.00  0.00    -0.646 OA
ENDBRANCH   1  18
TORSDOF 7
ENDMDL
MODEL 2
REMARK VINA RESULT:      -6.2     11.342     12.367
REMARK  7 active torsions:
REMARK  status: ('A' for Active; 'I' for Inactive)
REMARK       I    between atoms: C_1  and  N_4 
REMARK    1  A    between atoms: C_1  and  C_5 
REMARK    2  A    between atoms: C_2  and  C_10 
REMARK    3  A    between atoms: C_2  and  N_12 
REMARK    4  A    between atoms: N_3  and  C_7 
REMARK       I    between atoms: N_3  and  C_10 
REMARK    5  A    between atoms: C_5  and  C_6 
REMARK    6  A    between atoms: C_6  and  C_7 
REMARK    7  A    between atoms: C_7  and  C_11 
ROOT
HETATM    1  C           1     -34.724  -1.980 -11.650  0.00  0.00     0.186 C 
ENDROOT
BRANCH   1   2
HETATM    2  N           1     -34.496  -0.655 -12.195  0.00  0.00    -0.345 N 
HETATM    3  C           1     -35.070  -0.297 -13.385  0.00  0.00     0.243 C 
HETATM    4  O           1     -35.764  -1.085 -13.982  0.00  0.00    -0.272 OA
HETATM    5  H           1     -33.914   0.005 -11.695  0.00  0.00     0.163 HD
BRANCH   3   6
HETATM    6  C           1     -34.833   1.081 -13.953  0.00  0.00     0.332 C 
BRANCH   6   7
HETATM    7  N           1     -35.810   1.342 -15.060  0.00  0.00    -0.071 N 
HETATM    8  H           1     -36.784   1.247 -14.696  0.00  0.00     0.274 HD
HETATM    9  H           1     -35.669   2.310 -15.427  0.00  0.00     0.274 HD
HETATM   10  H           1     -35.656   0.651 -15.829  0.00  0.00     0.274 HD
ENDBRANCH   6   7
ENDBRANCH   3   6
ENDBRANCH   1   2
BRANCH   1  11
HETATM   11  C           1     -33.445  -2.484 -10.994  0.00  0.00     0.045 C 
BRANCH  11  12
HETATM   12  C           1     -32.965  -3.737 -11.715  0.00  0.00     0.105 C 
BRANCH  12  13
HETATM   13  C           1     -33.864  -4.897 -11.364  0.00  0.00     0.215 C 
HETATM   14  O           1     -34.042  -5.193 -10.206  0.00  0.00    -0.274 OA
HETATM   15  N           1     -34.479  -5.613 -12.356  0.00  0.00    -0.370 N 
HETATM   16  H           1     -34.330  -5.364 -13.325  0.00  0.00     0.159 HD
HETATM   17  H           1     -35.081  -6.390 -12.119  0.00  0.00     0.159 HD
ENDBRANCH  12  13
ENDBRANCH  11  12
ENDBRANCH   1  11
BRANCH   1  18
HETATM   18  C           1     -35.826  -1.917 -10.621  0.00  0.00     0.196 C 
HETATM   19  O           1     -35.898  -0.942  -9.841  0.00  0.00    -0.646 OA
HETATM   20  O           1     -36.666  -2.839 -10.549  0.00  0.00    -0.646 OA
ENDBRANCH   1  18
TORSDOF 7
ENDMDL
MODEL 3
REMARK VINA RESULT:      -6.2      2.078      5.793
REMARK  7 active torsions:
REMARK  status: ('A' for Active; 'I' for Inactive)
REMARK       I    between atoms: C_1  and  N_4 
REMARK    1  A    between atoms: C_1  and  C_5 
REMARK    2  A    between atoms: C_2  and  C_10 
REMARK    3  A    between atoms: C_2  and  N_12 
REMARK    4  A    between atoms: N_3  and  C_7 
REMARK       I    between atoms: N_3  and  C_10 
REMARK    5  A    between atoms: C_5  and  C_6 
REMARK    6  A    between atoms: C_6  and  C_7 
REMARK    7  A    between atoms: C_7  and  C_11 
ROOT
HETATM    1  C           1     -22.801  -3.757  -9.701  0.00  0.00     0.186 C 
ENDROOT
BRANCH   1   2
HETATM    2  N           1     -22.295  -4.820  -8.854  0.00  0.00    -0.345 N 
HETATM    3  C           1     -21.695  -4.518  -7.661  0.00  0.00     0.243 C 
HETATM    4  O           1     -21.585  -3.366  -7.315  0.00  0.00    -0.272 OA
HETATM    5  H           1     -22.386  -5.785  -9.144  0.00  0.00     0.163 HD
BRANCH   3   6
HETATM    6  C           1     -21.167  -5.623  -6.780  0.00  0.00     0.332 C 
BRANCH   6   7
HETATM    7  N           1     -19.933  -6.211  -7.398  0.00  0.00    -0.071 N 
HETATM    8  H           1     -19.134  -6.126  -6.729  0.00  0.00     0.274 HD
HETATM    9  H           1     -20.099  -7.219  -7.615  0.00  0.00     0.274 HD
HETATM   10  H           1     -19.706  -5.695  -8.278  0.00  0.00     0.274 HD
ENDBRANCH   6   7
ENDBRANCH   3   6
ENDBRANCH   1   2
BRANCH   1  11
HETATM   11  C           1     -22.264  -3.937 -11.115  0.00  0.00     0.045 C 
BRANCH  11  12
HETATM   12  C           1     -22.443  -2.641 -11.895  0.00  0.00     0.105 C 
BRANCH  12  13
HETATM   13  C           1     -23.208  -2.919 -13.166  0.00  0.00     0.215 C 
HETATM   14  O           1     -24.412  -3.012 -13.138  0.00  0.00    -0.274 OA
HETATM   15  N           1     -22.538  -3.065 -14.350  0.00  0.00    -0.370 N 
HETATM   16  H           1     -21.529  -2.987 -14.374  0.00  0.00     0.159 HD
HETATM   17  H           1     -23.050  -3.252 -15.202  0.00  0.00     0.159 HD
ENDBRANCH  12  13
ENDBRANCH  11  12
ENDBRANCH   1  11
BRANCH   1  18
HETATM   18  C           1     -24.310  -3.809  -9.725  0.00  0.00     0.196 C 
HETATM   19  O           1     -24.974  -2.769  -9.526  0.00  0.00    -0.646 OA
HETATM   20  O           1     -24.894  -4.892  -9.943  0.00  0.00    -0.646 OA
ENDBRANCH   1  18
TORSDOF 7
ENDMDL
MODEL 4
REMARK VINA RESULT:      -6.0     12.454     14.386
REMARK  7 active torsions:
REMARK  status: ('A' for Active; 'I' for Inactive)
REMARK       I    between atoms: C_1  and  N_4 
REMARK    1  A    between atoms: C_1  and  C_5 
REMARK    2  A    between atoms: C_2  and  C_10 
REMARK    3  A    between atoms: C_2  and  N_12 
REMARK    4  A    between atoms: N_3  and  C_7 
REMARK       I    between atoms: N_3  and  C_10 
REMARK    5  A    between atoms: C_5  and  C_6 
REMARK    6  A    between atoms: C_6  and  C_7 
REMARK    7  A    between atoms: C_7  and  C_11 
ROOT
HETATM    1  C           1     -35.661  -0.486 -12.749  0.00  0.00     0.186 C 
ENDROOT
BRANCH   1   2
HETATM    2  N           1     -36.025   0.186 -11.515  0.00  0.00    -0.345 N 
HETATM    3  C           1     -37.274   0.011 -10.984  0.00  0.00     0.243 C 
HETATM    4  O           1     -38.074  -0.701 -11.542  0.00  0.00    -0.272 OA
HETATM    5  H           1     -35.354   0.783 -11.048  0.00  0.00     0.163 HD
BRANCH   3   6
HETATM    6  C           1     -37.652   0.710  -9.701  0.00  0.00     0.332 C 
BRANCH   6   7
HETATM    7  N           1     -36.433   1.338  -9.094  0.00  0.00    -0.071 N 
HETATM    8  H           1     -36.718   2.138  -8.485  0.00  0.00     0.274 HD
HETATM    9  H           1     -35.925   0.628  -8.520  0.00  0.00     0.274 HD
HETATM   10  H           1     -35.806   1.685  -9.855  0.00  0.00     0.274 HD
ENDBRANCH   6   7
ENDBRANCH   3   6
ENDBRANCH   1   2
BRANCH   1  11
HETATM   11  C           1     -34.946   0.495 -13.668  0.00  0.00     0.045 C 
BRANCH  11  12
HETATM   12  C           1     -35.815   0.775 -14.887  0.00  0.00     0.105 C 
BRANCH  12  13
HETATM   13  C           1     -36.033  -0.505 -15.656  0.00  0.00     0.215 C 
HETATM   14  O           1     -37.155  -0.904 -15.858  0.00  0.00    -0.274 OA
HETATM   15  N           1     -34.959  -1.213 -16.125  0.00  0.00    -0.370 N 
HETATM   16  H           1     -34.019  -0.878 -15.955  0.00  0.00     0.159 HD
HETATM   17  H           1     -35.105  -2.071 -16.640  0.00  0.00     0.159 HD
ENDBRANCH  12  13
ENDBRANCH  11  12
ENDBRANCH   1  11
BRANCH   1  18
HETATM   18  C           1     -34.745  -1.644 -12.438  0.00  0.00     0.196 C 
HETATM   19  O           1     -34.101  -1.662 -11.367  0.00  0.00    -0.646 OA
HETATM   20  O           1     -34.632  -2.586 -13.252  0.00  0.00    -0.646 OA
ENDBRANCH   1  18
TORSDOF 7
ENDMDL
MODEL 5
REMARK VINA RESULT:      -6.0      8.560     10.490
REMARK  7 active torsions:
REMARK  status: ('A' for Active; 'I' for Inactive)
REMARK       I    between atoms: C_1  and  N_4 
REMARK    1  A    between atoms: C_1  and  C_5 
REMARK    2  A    between atoms: C_2  and  C_10 
REMARK    3  A    between atoms: C_2  and  N_12 
REMARK    4  A    between atoms: N_3  and  C_7 
REMARK       I    between atoms: N_3  and  C_10 
REMARK    5  A    between atoms: C_5  and  C_6 
REMARK    6  A    between atoms: C_6  and  C_7 
REMARK    7  A    between atoms: C_7  and  C_11 
ROOT
HETATM    1  C           1     -29.899  -6.990 -17.435  0.00  0.00     0.186 C 
ENDROOT
BRANCH   1   2
HETATM    2  N           1     -28.459  -7.036 -17.270  0.00  0.00    -0.345 N 
HETATM    3  C           1     -27.907  -6.878 -16.027  0.00  0.00     0.243 C 
HETATM    4  O           1     -28.619  -6.700 -15.068  0.00  0.00    -0.272 OA
HETATM    5  H           1     -27.862  -7.185 -18.074  0.00  0.00     0.163 HD
BRANCH   3   6
HETATM    6  C           1     -26.409  -6.925 -15.856  0.00  0.00     0.332 C 
BRANCH   6   7
HETATM    7  N           1     -25.746  -6.763 -17.192  0.00  0.00    -0.071 N 
HETATM    8  H           1     -24.946  -7.431 -17.269  0.00  0.00     0.274 HD
HETATM    9  H           1     -26.438  -6.961 -17.949  0.00  0.00     0.274 HD
HETATM   10  H           1     -25.393  -5.784 -17.288  0.00  0.00     0.274 HD
ENDBRANCH   6   7
ENDBRANCH   3   6
ENDBRANCH   1   2
BRANCH   1  11
HETATM   11  C           1     -30.326  -5.568 -17.770  0.00  0.00     0.045 C 
BRANCH  11  12
HETATM   12  C           1     -31.433  -5.132 -16.820  0.00  0.00     0.105 C 
BRANCH  12  13
HETATM   13  C           1     -31.968  -3.788 -17.250  0.00  0.00     0.215 C 
HETATM   14  O           1     -31.206  -2.922 -17.609  0.00  0.00    -0.274 OA
HETATM   15  N           1     -33.316  -3.550 -17.236  0.00  0.00    -0.370 N 
HETATM   16  H           1     -33.955  -4.276 -16.935  0.00  0.00     0.159 HD
HETATM   17  H           1     -33.674  -2.649 -17.525  0.00  0.00     0.159 HD
ENDBRANCH  12  13
ENDBRANCH  11  12
ENDBRANCH   1  11
BRANCH   1  18
HETATM   18  C           1     -30.306  -7.915 -18.556  0.00  0.00     0.196 C 
HETATM   19  O           1     -31.476  -7.886 -18.997  0.00  0.00    -0.646 OA
HETATM   20  O           1     -29.475  -8.710 -19.043  0.00  0.00    -0.646 OA
ENDBRANCH   1  18
TORSDOF 7
ENDMDL
MODEL 6
REMARK VINA RESULT:      -5.9      8.655      9.800
REMARK  7 active torsions:
REMARK  status: ('A' for Active; 'I' for Inactive)
REMARK       I    between atoms: C_1  and  N_4 
REMARK    1  A    between atoms: C_1  and  C_5 
REMARK    2  A    between atoms: C_2  and  C_10 
REMARK    3  A    between atoms: C_2  and  N_12 
REMARK    4  A    between atoms: N_3  and  C_7 
REMARK       I    between atoms: N_3  and  C_10 
REMARK    5  A    between atoms: C_5  and  C_6 
REMARK    6  A    between atoms: C_6  and  C_7 
REMARK    7  A    between atoms: C_7  and  C_11 
ROOT
HETATM    1  C           1     -29.971  -6.878 -17.585  0.00  0.00     0.186 C 
ENDROOT
BRANCH   1   2
HETATM    2  N           1     -31.135  -6.283 -16.957  0.00  0.00    -0.345 N 
HETATM    3  C           1     -31.438  -4.967 -17.184  0.00  0.00     0.243 C 
HETATM    4  O           1     -30.735  -4.301 -17.906  0.00  0.00    -0.272 OA
HETATM    5  H           1     -31.723  -6.841 -16.351  0.00  0.00     0.163 HD
BRANCH   3   6
HETATM    6  C           1     -32.648  -4.348 -16.530  0.00  0.00     0.332 C 
BRANCH   6   7
HETATM    7  N           1     -33.138  -3.202 -17.365  0.00  0.00    -0.071 N 
HETATM    8  H           1     -33.981  -3.500 -17.906  0.00  0.00     0.274 HD
HETATM    9  H           1     -33.390  -2.401 -16.742  0.00  0.00     0.274 HD
HETATM   10  H           1     -32.385  -2.908 -18.026  0.00  0.00     0.274 HD
ENDBRANCH   6   7
ENDBRANCH   3   6
ENDBRANCH   1   2
BRANCH   1  11
HETATM   11  C           1     -29.149  -7.614 -16.536  0.00  0.00     0.045 C 
BRANCH  11  12
HETATM   12  C           1     -28.291  -6.616 -15.770  0.00  0.00     0.105 C 
BRANCH  12  13
HETATM   13  C           1     -26.839  -6.824 -16.122  0.00  0.00     0.215 C 
HETATM   14  O           1     -26.101  -7.372 -15.338  0.00  0.00    -0.274 OA
HETATM   15  N           1     -26.357  -6.394 -17.329  0.00  0.00    -0.370 N 
HETATM   16  H           1     -26.976  -5.935 -17.985  0.00  0.00     0.159 HD
HETATM   17  H           1     -25.383  -6.534 -17.564  0.00  0.00     0.159 HD
ENDBRANCH  12  13
ENDBRANCH  11  12
ENDBRANCH   1  11
BRANCH   1  18
HETATM   18  C           1     -30.417  -7.851 -18.649  0.00  0.00     0.196 C 
HETATM   19  O           1     -29.591  -8.634 -19.165  0.00  0.00    -0.646 OA
HETATM   20  O           1     -31.612  -7.873 -19.014  0.00  0.00    -0.646 OA
ENDBRANCH   1  18
TORSDOF 7
ENDMDL
MODEL 7
REMARK VINA RESULT:      -5.8      7.837      9.777
REMARK  7 active torsions:
REMARK  status: ('A' for Active; 'I' for Inactive)
REMARK       I    between atoms: C_1  and  N_4 
REMARK    1  A    between atoms: C_1  and  C_5 
REMARK    2  A    between atoms: C_2  and  C_10 
REMARK    3  A    between atoms: C_2  and  N_12 
REMARK    4  A    between atoms: N_3  and  C_7 
REMARK       I    between atoms: N_3  and  C_10 
REMARK    5  A    between atoms: C_5  and  C_6 
REMARK    6  A    between atoms: C_6  and  C_7 
REMARK    7  A    between atoms: C_7  and  C_11 
ROOT
HETATM    1  C           1     -27.645  -5.989 -18.556  0.00  0.00     0.186 C 
ENDROOT
BRANCH   1   2
HETATM    2  N           1     -26.555  -6.643 -17.856  0.00  0.00    -0.345 N 
HETATM    3  C           1     -26.418  -6.485 -16.503  0.00  0.00     0.243 C 
HETATM    4  O           1     -27.204  -5.800 -15.892  0.00  0.00    -0.272 OA
HETATM    5  H           1     -25.897  -7.217 -18.368  0.00  0.00     0.163 HD
BRANCH   3   6
HETATM    6  C           1     -25.285  -7.164 -15.776  0.00  0.00     0.332 C 
BRANCH   6   7
HETATM    7  N           1     -24.276  -7.660 -16.770  0.00  0.00    -0.071 N 
HETATM    8  H           1     -24.652  -7.540 -17.737  0.00  0.00     0.274 HD
HETATM    9  H           1     -23.392  -7.112 -16.670  0.00  0.00     0.274 HD
HETATM   10  H           1     -24.083  -8.671 -16.593  0.00  0.00     0.274 HD
ENDBRANCH   6   7
ENDBRANCH   3   6
ENDBRANCH   1   2
BRANCH   1  11
HETATM   11  C           1     -27.413  -6.086 -20.058  0.00  0.00     0.045 C 
BRANCH  11  12
HETATM   12  C           1     -26.059  -6.732 -20.322  0.00  0.00     0.105 C 
BRANCH  12  13
HETATM   13  C           1     -26.254  -8.002 -21.113  0.00  0.00     0.215 C 
HETATM   14  O           1     -25.359  -8.425 -21.806  0.00  0.00    -0.274 OA
HETATM   15  N           1     -27.444  -8.677 -21.046  0.00  0.00    -0.370 N 
HETATM   16  H           1     -28.193  -8.323 -20.466  0.00  0.00     0.159 HD
HETATM   17  H           1     -27.573  -9.528 -21.577  0.00  0.00     0.159 HD
ENDBRANCH  12  13
ENDBRANCH  11  12
ENDBRANCH   1  11
BRANCH   1  18
HETATM   18  C           1     -28.947  -6.667 -18.203  0.00  0.00     0.196 C 
HETATM   19  O           1     -29.786  -6.076 -17.491  0.00  0.00    -0.646 OA
HETATM   20  O           1     -29.185  -7.819 -18.624  0.00  0.00    -0.646 OA
ENDBRANCH   1  18
TORSDOF 7
ENDMDL
MODEL 8
REMARK VINA RESULT:      -5.8      7.198      8.745
REMARK  7 active torsions:
REMARK  status: ('A' for Active; 'I' for Inactive)
REMARK       I    between atoms: C_1  and  N_4 
REMARK    1  A    between atoms: C_1  and  C_5 
REMARK    2  A    between atoms: C_2  and  C_10 
REMARK    3  A    between atoms: C_2  and  N_12 
REMARK    4  A    between atoms: N_3  and  C_7 
REMARK       I    between atoms: N_3  and  C_10 
REMARK    5  A    between atoms: C_5  and  C_6 
REMARK    6  A    between atoms: C_6  and  C_7 
REMARK    7  A    between atoms: C_7  and  C_11 
ROOT
HETATM    1  C           1     -26.738  -6.264 -16.583  0.00  0.00     0.186 C 
ENDROOT
BRANCH   1   2
HETATM    2  N           1     -26.392  -6.668 -17.932  0.00  0.00    -0.345 N 
HETATM    3  C           1     -27.130  -6.214 -18.992  0.00  0.00     0.243 C 
HETATM    4  O           1     -28.069  -5.477 -18.804  0.00  0.00    -0.272 OA
HETATM    5  H           1     -25.606  -7.285 -18.090  0.00  0.00     0.163 HD
BRANCH   3   6
HETATM    6  C           1     -26.771  -6.635 -20.396  0.00  0.00     0.332 C 
BRANCH   6   7
HETATM    7  N           1     -27.144  -8.073 -20.599  0.00  0.00    -0.071 N 
HETATM    8  H           1     -28.078  -8.256 -20.166  0.00  0.00     0.274 HD
HETATM    9  H           1     -27.189  -8.280 -21.622  0.00  0.00     0.274 HD
HETATM   10  H           1     -26.426  -8.685 -20.150  0.00  0.00     0.274 HD
ENDBRANCH   6   7
ENDBRANCH   3   6
ENDBRANCH   1   2
BRANCH   1  11
HETATM   11  C           1     -27.859  -7.151 -16.059  0.00  0.00     0.045 C 
BRANCH  11  12
HETATM   12  C           1     -28.936  -6.285 -15.419  0.00  0.00     0.105 C 
BRANCH  12  13
HETATM   13  C           1     -30.060  -6.070 -16.402  0.00  0.00     0.215 C 
HETATM   14  O           1     -30.712  -5.054 -16.361  0.00  0.00    -0.274 OA
HETATM   15  N           1     -30.343  -7.027 -17.340  0.00  0.00    -0.370 N 
HETATM   16  H           1     -29.797  -7.878 -17.374  0.00  0.00     0.159 HD
HETATM   17  H           1     -31.097  -6.882 -17.999  0.00  0.00     0.159 HD
ENDBRANCH  12  13
ENDBRANCH  11  12
ENDBRANCH   1  11
BRANCH   1  18
HETATM   18  C           1     -25.527  -6.403 -15.691  0.00  0.00     0.196 C 
HETATM   19  O           1     -25.122  -7.538 -15.361  0.00  0.00    -0.646 OA
HETATM   20  O           1     -24.931  -5.383 -15.284  0.00  0.00    -0.646 OA
ENDBRANCH   1  18
TORSDOF 7
ENDMDL
MODEL 9
REMARK VINA RESULT:      -5.5      1.852      2.807
REMARK  7 active torsions:
REMARK  status: ('A' for Active; 'I' for Inactive)
REMARK       I    between atoms: C_1  and  N_4 
REMARK    1  A    between atoms: C_1  and  C_5 
REMARK    2  A    between atoms: C_2  and  C_10 
REMARK    3  A    between atoms: C_2  and  N_12 
REMARK    4  A    between atoms: N_3  and  C_7 
REMARK       I    between atoms: N_3  and  C_10 
REMARK    5  A    between atoms: C_5  and  C_6 
REMARK    6  A    between atoms: C_6  and  C_7 
REMARK    7  A    between atoms: C_7  and  C_11 
ROOT
HETATM    1  C           1     -22.110  -3.583 -11.627  0.00  0.00     0.186 C 
ENDROOT
BRANCH   1   2
HETATM    2  N           1     -22.198  -3.215 -13.027  0.00  0.00    -0.345 N 
HETATM    3  C           1     -23.265  -2.484 -13.477  0.00  0.00     0.243 C 
HETATM    4  O           1     -24.133  -2.147 -12.708  0.00  0.00    -0.272 OA
HETATM    5  H           1     -21.470  -3.498 -13.671  0.00  0.00     0.163 HD
BRANCH   3   6
HETATM    6  C           1     -23.356  -2.101 -14.933  0.00  0.00     0.332 C 
BRANCH   6   7
HETATM    7  N           1     -23.993  -0.748 -15.057  0.00  0.00    -0.071 N 
HETATM    8  H           1     -23.320  -0.016 -14.737  0.00  0.00     0.274 HD
HETATM    9  H           1     -24.248  -0.575 -16.055  0.00  0.00     0.274 HD
HETATM   10  H           1     -24.853  -0.715 -14.465  0.00  0.00     0.274 HD
ENDBRANCH   6   7
ENDBRANCH   3   6
ENDBRANCH   1   2
BRANCH   1  11
HETATM   11  C           1     -22.628  -5.003 -11.443  0.00  0.00     0.045 C 
BRANCH  11  12
HETATM   12  C           1     -23.935  -4.970 -10.661  0.00  0.00     0.105 C 
BRANCH  12  13
HETATM   13  C           1     -23.707  -4.305  -9.326  0.00  0.00     0.215 C 
HETATM   14  O           1     -22.820  -4.692  -8.603  0.00  0.00    -0.274 OA
HETATM   15  N           1     -24.504  -3.264  -8.934  0.00  0.00    -0.370 N 
HETATM   16  H           1     -25.247  -2.940  -9.539  0.00  0.00     0.159 HD
HETATM   17  H           1     -24.351  -2.819  -8.038  0.00  0.00     0.159 HD
ENDBRANCH  12  13
ENDBRANCH  11  12
ENDBRANCH   1  11
BRANCH   1  18
HETATM   18  C           1     -20.671  -3.511 -11.178  0.00  0.00     0.196 C 
HETATM   19  O           1     -20.056  -2.423 -11.224  0.00  0.00    -0.646 OA
HETATM   20  O           1     -20.094  -4.537 -10.760  0.00  0.00    -0.646 OA
ENDBRANCH   1  18
TORSDOF 7
ENDMDL
