MODEL 1
REMARK VINA RESULT:      -6.4      0.000      0.000
REMARK  10 active torsions:
REMARK  status: ('A' for Active; 'I' for Inactive)
REMARK    1  A    between atoms: N_1  and  C_7 
REMARK    2  A    between atoms: C_4  and  C_5 
REMARK    3  A    between atoms: C_4  and  C_14 
REMARK    4  A    between atoms: C_5  and  C_6 
REMARK    5  A    between atoms: C_6  and  N_20 
REMARK    6  A    between atoms: C_7  and  C_19 
REMARK    7  A    between atoms: C_7  and  C_8 
REMARK    8  A    between atoms: C_14  and  C_17 
REMARK    9  A    between atoms: C_16  and  C_17 
REMARK   10  A    between atoms: C_17  and  N_24 
REMARK       I    between atoms: C_19  and  N_24 
ROOT
HETATM    1  C           1     -35.710  -0.430 -11.960  0.00  0.00     0.185 C 
ENDROOT
BRANCH   1   2
HETATM    2  C           1     -36.136   0.391 -13.169  0.00  0.00     0.036 C 
BRANCH   2   3
HETATM    3  C           1     -34.902   0.840 -13.940  0.00  0.00     0.004 C 
BRANCH   3   4
HETATM    4  C           1     -35.167   0.723 -15.436  0.00  0.00     0.027 C 
BRANCH   4   5
HETATM    5  C           1     -36.274  -0.293 -15.679  0.00  0.00     0.229 C 
BRANCH   5   6
HETATM    6  N           1     -36.290  -0.681 -17.127  0.00  0.00    -0.079 N 
HETATM    7  H           1     -35.346  -0.514 -17.543  0.00  0.00     0.274 HD
HETATM    8  H           1     -37.002  -0.108 -17.634  0.00  0.00     0.274 HD
HETATM    9  H           1     -36.533  -1.694 -17.215  0.00  0.00     0.274 HD
ENDBRANCH   5   6
ENDBRANCH   4   5
ENDBRANCH   3   4
ENDBRANCH   2   3
ENDBRANCH   1   2
BRANCH   1  10
HETATM   10  C           1     -36.771  -0.342 -10.891  0.00  0.00     0.196 C 
HETATM   11  O           1     -36.591   0.384  -9.890  0.00  0.00    -0.646 OA
HETATM   12  O           1     -37.831  -0.996 -11.007  0.00  0.00    -0.646 OA
ENDBRANCH   1  10
BRANCH   1  13
HETATM   13  N           1     -35.536  -1.815 -12.354  0.00  0.00    -0.345 N 
HETATM   14  C           1     -34.471  -2.533 -11.881  0.00  0.00     0.249 C 
HETATM   15  O           1     -33.675  -2.013 -11.134  0.00  0.00    -0.271 OA
HETATM   16  H           1     -36.202  -2.251 -12.979  0.00  0.00     0.163 HD
BRANCH  14  17
HETATM   17  C           1     -34.289  -3.974 -12.291  0.00  0.00     0.278 C 
BRANCH  17  18
HETATM   18  N           1     -33.804  -4.031 -13.709  0.00  0.00    -0.066 N 
HETATM   19  H           1     -32.965  -3.418 -13.814  0.00  0.00     0.275 HD
HETATM   20  H           1     -33.547  -5.016 -13.948  0.00  0.00     0.275 HD
HETATM   21  H           1     -34.560  -3.701 -14.349  0.00  0.00     0.275 HD
ENDBRANCH  17  18
BRANCH  17  22
HETATM   22  C           1     -33.267  -4.637 -11.377  0.00  0.00     0.017 C 
HETATM   23  C           1     -31.964  -4.843 -12.140  0.00  0.00     0.012 C 
HETATM   24  C           1     -33.800  -5.985 -10.911  0.00  0.00     0.012 C 
ENDBRANCH  17  22
ENDBRANCH  14  17
ENDBRANCH   1  13
TORSDOF 10
ENDMDL
MODEL 2
REMARK VINA RESULT:      -6.3      1.568      5.133
REMARK  10 active torsions:
REMARK  status: ('A' for Active; 'I' for Inactive)
REMARK    1  A    between atoms: N_1  and  C_7 
REMARK    2  A    between atoms: C_4  and  C_5 
REMARK    3  A    between atoms: C_4  and  C_14 
REMARK    4  A    between atoms: C_5  and  C_6 
REMARK    5  A    between atoms: C_6  and  N_20 
REMARK    6  A    between atoms: C_7  and  C_19 
REMARK    7  A    between atoms: C_7  and  C_8 
REMARK    8  A    between atoms: C_14  and  C_17 
REMARK    9  A    between atoms: C_16  and  C_17 
REMARK   10  A    between atoms: C_17  and  N_24 
REMARK       I    between atoms: C_19  and  N_24 
ROOT
HETATM    1  C           1     -35.262  -1.748 -11.499  0.00  0.00     0.185 C 
ENDROOT
BRANCH   1   2
HETATM    2  C           1     -33.882  -1.770 -10.857  0.00  0.00     0.036 C 
BRANCH   2   3
HETATM    3  C           1     -33.195  -3.093 -11.173  0.00  0.00     0.004 C 
BRANCH   3   4
HETATM    4  C           1     -33.977  -4.236 -10.538  0.00  0.00     0.027 C 
BRANCH   4   5
HETATM    5  C           1     -33.888  -5.468 -11.429  0.00  0.00     0.229 C 
BRANCH   5   6
HETATM    6  N           1     -34.746  -5.271 -12.643  0.00  0.00    -0.079 N 
HETATM    7  H           1     -35.425  -6.061 -12.721  0.00  0.00     0.274 HD
HETATM    8  H           1     -34.142  -5.245 -13.496  0.00  0.00     0.274 HD
HETATM    9  H           1     -35.268  -4.370 -12.560  0.00  0.00     0.274 HD
ENDBRANCH   5   6
ENDBRANCH   4   5
ENDBRANCH   3   4
ENDBRANCH   2   3
ENDBRANCH   1   2
BRANCH   1  10
HETATM   10  C           1     -36.279  -1.270 -10.493  0.00  0.00     0.196 C 
HETATM   11  O           1     -35.901  -0.713  -9.439  0.00  0.00    -0.646 OA
HETATM   12  O           1     -37.499  -1.431 -10.712  0.00  0.00    -0.646 OA
ENDBRANCH   1  10
BRANCH   1  13
HETATM   13  N           1     -35.251  -0.849 -12.637  0.00  0.00    -0.345 N 
HETATM   14  C           1     -35.063  -1.344 -13.899  0.00  0.00     0.249 C 
HETATM   15  O           1     -34.907  -2.531 -14.066  0.00  0.00    -0.271 OA
HETATM   16  H           1     -35.381   0.145 -12.498  0.00  0.00     0.163 HD
BRANCH  14  17
HETATM   17  C           1     -35.051  -0.409 -15.083  0.00  0.00     0.278 C 
BRANCH  17  18
HETATM   18  N           1     -35.072  -1.209 -16.352  0.00  0.00    -0.066 N 
HETATM   19  H           1     -35.864  -1.891 -16.320  0.00  0.00     0.275 HD
HETATM   20  H           1     -35.199  -0.567 -17.166  0.00  0.00     0.275 HD
HETATM   21  H           1     -34.170  -1.727 -16.451  0.00  0.00     0.275 HD
ENDBRANCH  17  18
BRANCH  17  22
HETATM   22  C           1     -36.278   0.492 -15.032  0.00  0.00     0.017 C 
HETATM   23  C           1     -37.441  -0.194 -15.739  0.00  0.00     0.012 C 
HETATM   24  C           1     -35.970   1.812 -15.726  0.00  0.00     0.012 C 
ENDBRANCH  17  22
ENDBRANCH  14  17
ENDBRANCH   1  13
TORSDOF 10
ENDMDL
MODEL 3
REMARK VINA RESULT:      -5.7     13.339     15.961
REMARK  10 active torsions:
REMARK  status: ('A' for Active; 'I' for Inactive)
REMARK    1  A    between atoms: N_1  and  C_7 
REMARK    2  A    between atoms: C_4  and  C_5 
REMARK    3  A    between atoms: C_4  and  C_14 
REMARK    4  A    between atoms: C_5  and  C_6 
REMARK    5  A    between atoms: C_6  and  N_20 
REMARK    6  A    between atoms: C_7  and  C_19 
REMARK    7  A    between atoms: C_7  and  C_8 
REMARK    8  A    between atoms: C_14  and  C_17 
REMARK    9  A    between atoms: C_16  and  C_17 
REMARK   10  A    between atoms: C_17  and  N_24 
REMARK       I    between atoms: C_19  and  N_24 
ROOT
HETATM    1  C           1     -21.354  -5.522  -6.559  0.00  0.00     0.185 C 
ENDROOT
BRANCH   1   2
HETATM    2  C           1     -21.875  -4.158  -6.991  0.00  0.00     0.036 C 
BRANCH   2   3
HETATM    3  C           1     -23.257  -4.313  -7.612  0.00  0.00     0.004 C 
BRANCH   3   4
HETATM    4  C           1     -23.139  -4.280  -9.131  0.00  0.00     0.027 C 
BRANCH   4   5
HETATM    5  C           1     -24.102  -3.243  -9.692  0.00  0.00     0.229 C 
BRANCH   5   6
HETATM    6  N           1     -25.499  -3.789  -9.665  0.00  0.00    -0.079 N 
HETATM    7  H           1     -26.027  -3.356  -8.874  0.00  0.00     0.274 HD
HETATM    8  H           1     -25.465  -4.826  -9.538  0.00  0.00     0.274 HD
HETATM    9  H           1     -25.979  -3.565 -10.566  0.00  0.00     0.274 HD
ENDBRANCH   5   6
ENDBRANCH   4   5
ENDBRANCH   3   4
ENDBRANCH   2   3
ENDBRANCH   1   2
BRANCH   1  10
HETATM   10  C           1     -20.063  -5.821  -7.280  0.00  0.00     0.196 C 
HETATM   11  O           1     -19.434  -6.871  -7.025  0.00  0.00    -0.646 OA
HETATM   12  O           1     -19.622  -5.018  -8.131  0.00  0.00    -0.646 OA
ENDBRANCH   1  10
BRANCH   1  13
HETATM   13  N           1     -21.119  -5.518  -5.128  0.00  0.00    -0.345 N 
HETATM   14  C           1     -21.569  -6.555  -4.357  0.00  0.00     0.249 C 
HETATM   15  O           1     -22.162  -7.475  -4.869  0.00  0.00    -0.271 OA
HETATM   16  H           1     -20.621  -4.747  -4.700  0.00  0.00     0.163 HD
BRANCH  14  17
HETATM   17  C           1     -21.324  -6.551  -2.868  0.00  0.00     0.278 C 
BRANCH  17  18
HETATM   18  N           1     -22.400  -5.758  -2.188  0.00  0.00    -0.066 N 
HETATM   19  H           1     -22.039  -5.391  -1.278  0.00  0.00     0.275 HD
HETATM   20  H           1     -22.681  -4.959  -2.799  0.00  0.00     0.275 HD
HETATM   21  H           1     -23.226  -6.373  -2.012  0.00  0.00     0.275 HD
ENDBRANCH  17  18
BRANCH  17  22
HETATM   22  C           1     -21.341  -7.982  -2.346  0.00  0.00     0.017 C 
HETATM   23  C           1     -21.972  -8.008  -0.959  0.00  0.00     0.012 C 
HETATM   24  C           1     -19.916  -8.511  -2.265  0.00  0.00     0.012 C 
ENDBRANCH  17  22
ENDBRANCH  14  17
ENDBRANCH   1  13
TORSDOF 10
ENDMDL
MODEL 4
REMARK VINA RESULT:      -5.6     12.015     15.460
REMARK  10 active torsions:
REMARK  status: ('A' for Active; 'I' for Inactive)
REMARK    1  A    between atoms: N_1  and  C_7 
REMARK    2  A    between atoms: C_4  and  C_5 
REMARK    3  A    between atoms: C_4  and  C_14 
REMARK    4  A    between atoms: C_5  and  C_6 
REMARK    5  A    between atoms: C_6  and  N_20 
REMARK    6  A    between atoms: C_7  and  C_19 
REMARK    7  A    between atoms: C_7  and  C_8 
REMARK    8  A    between atoms: C_14  and  C_17 
REMARK    9  A    between atoms: C_16  and  C_17 
REMARK   10  A    between atoms: C_17  and  N_24 
REMARK       I    between atoms: C_19  and  N_24 
ROOT
HETATM    1  C           1     -21.251  -5.045  -7.500  0.00  0.00     0.185 C 
ENDROOT
BRANCH   1   2
HETATM    2  C           1     -21.267  -6.348  -6.713  0.00  0.00     0.036 C 
BRANCH   2   3
HETATM    3  C           1     -22.021  -6.144  -5.405  0.00  0.00     0.004 C 
BRANCH   3   4
HETATM    4  C           1     -21.025  -6.006  -4.260  0.00  0.00     0.027 C 
BRANCH   4   5
HETATM    5  C           1     -21.540  -6.766  -3.045  0.00  0.00     0.229 C 
BRANCH   5   6
HETATM    6  N           1     -22.420  -5.868  -2.228  0.00  0.00    -0.079 N 
HETATM    7  H           1     -21.950  -4.945  -2.096  0.00  0.00     0.274 HD
HETATM    8  H           1     -22.596  -6.307  -1.296  0.00  0.00     0.274 HD
HETATM    9  H           1     -23.330  -5.727  -2.722  0.00  0.00     0.274 HD
ENDBRANCH   5   6
ENDBRANCH   4   5
ENDBRANCH   3   4
ENDBRANCH   2   3
ENDBRANCH   1   2
BRANCH   1  10
HETATM   10  C           1     -19.849  -4.760  -7.977  0.00  0.00     0.196 C 
HETATM   11  O           1     -19.618  -4.633  -9.199  0.00  0.00    -0.646 OA
HETATM   12  O           1     -18.917  -4.652  -7.150  0.00  0.00    -0.646 OA
ENDBRANCH   1  10
BRANCH   1  13
HETATM   13  N           1     -22.135  -5.161  -8.644  0.00  0.00    -0.345 N 
HETATM   14  C           1     -22.941  -4.112  -8.996  0.00  0.00     0.249 C 
HETATM   15  O           1     -22.916  -3.088  -8.354  0.00  0.00    -0.271 OA
HETATM   16  H           1     -22.157  -6.018  -9.182  0.00  0.00     0.163 HD
BRANCH  14  17
HETATM   17  C           1     -23.861  -4.233 -10.186  0.00  0.00     0.278 C 
BRANCH  17  18
HETATM   18  N           1     -25.265  -3.913  -9.766  0.00  0.00    -0.066 N 
HETATM   19  H           1     -25.806  -3.570 -10.592  0.00  0.00     0.275 HD
HETATM   20  H           1     -25.719  -4.774  -9.386  0.00  0.00     0.275 HD
HETATM   21  H           1     -25.247  -3.173  -9.029  0.00  0.00     0.275 HD
ENDBRANCH  17  18
BRANCH  17  22
HETATM   22  C           1     -23.421  -3.257 -11.269  0.00  0.00     0.017 C 
HETATM   23  C           1     -24.525  -3.125 -12.312  0.00  0.00     0.012 C 
HETATM   24  C           1     -22.153  -3.773 -11.936  0.00  0.00     0.012 C 
ENDBRANCH  17  22
ENDBRANCH  14  17
ENDBRANCH   1  13
TORSDOF 10
ENDMDL
MODEL 5
REMARK VINA RESULT:      -5.6     13.975     17.129
REMARK  10 active torsions:
REMARK  status: ('A' for Active; 'I' for Inactive)
REMARK    1  A    between atoms: N_1  and  C_7 
REMARK    2  A    between atoms: C_4  and  C_5 
REMARK    3  A    between atoms: C_4  and  C_14 
REMARK    4  A    between atoms: C_5  and  C_6 
REMARK    5  A    between atoms: C_6  and  N_20 
REMARK    6  A    between atoms: C_7  and  C_19 
REMARK    7  A    between atoms: C_7  and  C_8 
REMARK    8  A    between atoms: C_14  and  C_17 
REMARK    9  A    between atoms: C_16  and  C_17 
REMARK   10  A    between atoms: C_17  and  N_24 
REMARK       I    between atoms: C_19  and  N_24 
ROOT
HETATM    1  C           1     -20.888  -6.572  -5.063  0.00  0.00     0.185 C 
ENDROOT
BRANCH   1   2
HETATM    2  C           1     -21.929  -6.713  -3.960  0.00  0.00     0.036 C 
BRANCH   2   3
HETATM    3  C           1     -21.447  -5.989  -2.710  0.00  0.00     0.004 C 
BRANCH   3   4
HETATM    4  C           1     -22.230  -6.485  -1.501  0.00  0.00     0.027 C 
BRANCH   4   5
HETATM    5  C           1     -21.962  -7.970  -1.297  0.00  0.00     0.229 C 
BRANCH   5   6
HETATM    6  N           1     -20.484  -8.204  -1.200  0.00  0.00    -0.079 N 
HETATM    7  H           1     -20.125  -7.797  -0.307  0.00  0.00     0.274 HD
HETATM    8  H           1     -20.005  -7.748  -2.009  0.00  0.00     0.274 HD
HETATM    9  H           1     -20.291  -9.231  -1.215  0.00  0.00     0.274 HD
ENDBRANCH   5   6
ENDBRANCH   4   5
ENDBRANCH   3   4
ENDBRANCH   2   3
ENDBRANCH   1   2
BRANCH   1  10
HETATM   10  C           1     -20.082  -7.843  -5.161  0.00  0.00     0.196 C 
HETATM   11  O           1     -19.307  -8.018  -6.125  0.00  0.00    -0.646 OA
HETATM   12  O           1     -20.190  -8.721  -4.278  0.00  0.00    -0.646 OA
ENDBRANCH   1  10
BRANCH   1  13
HETATM   13  N           1     -21.555  -6.324  -6.327  0.00  0.00    -0.345 N 
HETATM   14  C           1     -21.567  -5.064  -6.860  0.00  0.00     0.249 C 
HETATM   15  O           1     -21.022  -4.156  -6.277  0.00  0.00    -0.271 OA
HETATM   16  H           1     -22.011  -7.085  -6.815  0.00  0.00     0.163 HD
BRANCH  14  17
HETATM   17  C           1     -22.260  -4.806  -8.175  0.00  0.00     0.278 C 
BRANCH  17  18
HETATM   18  N           1     -23.555  -4.092  -7.925  0.00  0.00    -0.066 N 
HETATM   19  H           1     -23.547  -3.172  -8.420  0.00  0.00     0.275 HD
HETATM   20  H           1     -24.347  -4.673  -8.283  0.00  0.00     0.275 HD
HETATM   21  H           1     -23.673  -3.935  -6.899  0.00  0.00     0.275 HD
ENDBRANCH  17  18
BRANCH  17  22
HETATM   22  C           1     -21.369  -3.944  -9.059  0.00  0.00     0.017 C 
HETATM   23  C           1     -22.106  -3.609 -10.350  0.00  0.00     0.012 C 
HETATM   24  C           1     -20.091  -4.704  -9.388  0.00  0.00     0.012 C 
ENDBRANCH  17  22
ENDBRANCH  14  17
ENDBRANCH   1  13
TORSDOF 10
ENDMDL
MODEL 6
REMARK VINA RESULT:      -5.5      2.177      3.887
REMARK  10 active torsions:
REMARK  status: ('A' for Active; 'I' for Inactive)
REMARK    1  A    between atoms: N_1  and  C_7 
REMARK    2  A    between atoms: C_4  and  C_5 
REMARK    3  A    between atoms: C_4  and  C_14 
REMARK    4  A    between atoms: C_5  and  C_6 
REMARK    5  A    between atoms: C_6  and  N_20 
REMARK    6  A    between atoms: C_7  and  C_19 
REMARK    7  A    between atoms: C_7  and  C_8 
REMARK    8  A    between atoms: C_14  and  C_17 
REMARK    9  A    between atoms: C_16  and  C_17 
REMARK   10  A    between atoms: C_17  and  N_24 
REMARK       I    between atoms: C_19  and  N_24 
ROOT
HETATM    1  C           1     -35.971  -0.141 -13.128  0.00  0.00     0.185 C 
ENDROOT
BRANCH   1   2
HETATM    2  C           1     -35.895   0.341 -11.685  0.00  0.00     0.036 C 
BRANCH   2   3
HETATM    3  C           1     -37.210   0.040 -10.978  0.00  0.00     0.004 C 
BRANCH   3   4
HETATM    4  C           1     -36.929  -0.709  -9.681  0.00  0.00     0.027 C 
BRANCH   4   5
HETATM    5  C           1     -37.345   0.154  -8.497  0.00  0.00     0.229 C 
BRANCH   5   6
HETATM    6  N           1     -36.339   1.249  -8.297  0.00  0.00    -0.079 N 
HETATM    7  H           1     -36.642   1.859  -7.505  0.00  0.00     0.274 HD
HETATM    8  H           1     -36.266   1.818  -9.170  0.00  0.00     0.274 HD
HETATM    9  H           1     -35.407   0.830  -8.076  0.00  0.00     0.274 HD
ENDBRANCH   5   6
ENDBRANCH   4   5
ENDBRANCH   3   4
ENDBRANCH   2   3
ENDBRANCH   1   2
BRANCH   1  10
HETATM   10  C           1     -34.938   0.581 -13.956  0.00  0.00     0.196 C 
HETATM   11  O           1     -34.377   1.602 -13.503  0.00  0.00    -0.646 OA
HETATM   12  O           1     -34.643   0.159 -15.095  0.00  0.00    -0.646 OA
ENDBRANCH   1  10
BRANCH   1  13
HETATM   13  N           1     -35.715  -1.568 -13.174  0.00  0.00    -0.345 N 
HETATM   14  C           1     -34.716  -2.109 -12.413  0.00  0.00     0.249 C 
HETATM   15  O           1     -34.045  -1.398 -11.701  0.00  0.00    -0.271 OA
HETATM   16  H           1     -36.277  -2.163 -13.771  0.00  0.00     0.163 HD
BRANCH  14  17
HETATM   17  C           1     -34.449  -3.594 -12.461  0.00  0.00     0.278 C 
BRANCH  17  18
HETATM   18  N           1     -33.893  -3.958 -13.806  0.00  0.00    -0.066 N 
HETATM   19  H           1     -33.222  -3.219 -14.116  0.00  0.00     0.275 HD
HETATM   20  H           1     -33.397  -4.874 -13.740  0.00  0.00     0.275 HD
HETATM   21  H           1     -34.674  -4.032 -14.497  0.00  0.00     0.275 HD
ENDBRANCH  17  18
BRANCH  17  22
HETATM   22  C           1     -33.443  -3.965 -11.380  0.00  0.00     0.017 C 
HETATM   23  C           1     -32.180  -4.516 -12.029  0.00  0.00     0.012 C 
HETATM   24  C           1     -34.046  -5.024 -10.466  0.00  0.00     0.012 C 
ENDBRANCH  17  22
ENDBRANCH  14  17
ENDBRANCH   1  13
TORSDOF 10
ENDMDL
MODEL 7
REMARK VINA RESULT:      -5.3     15.182     18.045
REMARK  10 active torsions:
REMARK  status: ('A' for Active; 'I' for Inactive)
REMARK    1  A    between atoms: N_1  and  C_7 
REMARK    2  A    between atoms: C_4  and  C_5 
REMARK    3  A    between atoms: C_4  and  C_14 
REMARK    4  A    between atoms: C_5  and  C_6 
REMARK    5  A    between atoms: C_6  and  N_20 
REMARK    6  A    between atoms: C_7  and  C_19 
REMARK    7  A    between atoms: C_7  and  C_8 
REMARK    8  A    between atoms: C_14  and  C_17 
REMARK    9  A    between atoms: C_16  and  C_17 
REMARK   10  A    between atoms: C_17  and  N_24 
REMARK       I    between atoms: C_19  and  N_24 
ROOT
HETATM    1  C           1     -20.303  -8.251  -4.418  0.00  0.00     0.185 C 
ENDROOT
BRANCH   1   2
HETATM    2  C           1     -21.441  -9.040  -3.786  0.00  0.00     0.036 C 
BRANCH   2   3
HETATM    3  C           1     -21.195  -9.178  -2.290  0.00  0.00     0.004 C 
BRANCH   3   4
HETATM    4  C           1     -20.840  -7.816  -1.705  0.00  0.00     0.027 C 
BRANCH   4   5
HETATM    5  C           1     -22.104  -7.132  -1.204  0.00  0.00     0.229 C 
BRANCH   5   6
HETATM    6  N           1     -22.353  -5.888  -2.005  0.00  0.00    -0.079 N 
HETATM    7  H           1     -22.636  -5.113  -1.364  0.00  0.00     0.274 HD
HETATM    8  H           1     -23.116  -6.066  -2.697  0.00  0.00     0.274 HD
HETATM    9  H           1     -21.480  -5.620  -2.512  0.00  0.00     0.274 HD
ENDBRANCH   5   6
ENDBRANCH   4   5
ENDBRANCH   3   4
ENDBRANCH   2   3
ENDBRANCH   1   2
BRANCH   1  10
HETATM   10  C           1     -19.208  -9.198  -4.845  0.00  0.00     0.196 C 
HETATM   11  O           1     -19.360  -9.912  -5.859  0.00  0.00    -0.646 OA
HETATM   12  O           1     -18.150  -9.268  -4.183  0.00  0.00    -0.646 OA
ENDBRANCH   1  10
BRANCH   1  13
HETATM   13  N           1     -20.798  -7.533  -5.577  0.00  0.00    -0.345 N 
HETATM   14  C           1     -21.095  -6.200  -5.482  0.00  0.00     0.249 C 
HETATM   15  O           1     -20.945  -5.621  -4.431  0.00  0.00    -0.271 OA
HETATM   16  H           1     -20.924  -8.018  -6.457  0.00  0.00     0.163 HD
BRANCH  14  17
HETATM   17  C           1     -21.610  -5.453  -6.687  0.00  0.00     0.278 C 
BRANCH  17  18
HETATM   18  N           1     -23.018  -5.002  -6.431  0.00  0.00    -0.066 N 
HETATM   19  H           1     -23.496  -5.692  -5.808  0.00  0.00     0.275 HD
HETATM   20  H           1     -23.003  -4.066  -5.967  0.00  0.00     0.275 HD
HETATM   21  H           1     -23.533  -4.936  -7.338  0.00  0.00     0.275 HD
ENDBRANCH  17  18
BRANCH  17  22
HETATM   22  C           1     -20.728  -4.239  -6.948  0.00  0.00     0.017 C 
HETATM   23  C           1     -21.370  -3.366  -8.019  0.00  0.00     0.012 C 
HETATM   24  C           1     -19.357  -4.699  -7.423  0.00  0.00     0.012 C 
ENDBRANCH  17  22
ENDBRANCH  14  17
ENDBRANCH   1  13
TORSDOF 10
ENDMDL
MODEL 8
REMARK VINA RESULT:      -5.3     15.721     18.087
REMARK  10 active torsions:
REMARK  status: ('A' for Active; 'I' for Inactive)
REMARK    1  A    between atoms: N_1  and  C_7 
REMARK    2  A    between atoms: C_4  and  C_5 
REMARK    3  A    between atoms: C_4  and  C_14 
REMARK    4  A    between atoms: C_5  and  C_6 
REMARK    5  A    between atoms: C_6  and  N_20 
REMARK    6  A    between atoms: C_7  and  C_19 
REMARK    7  A    between atoms: C_7  and  C_8 
REMARK    8  A    between atoms: C_14  and  C_17 
REMARK    9  A    between atoms: C_16  and  C_17 
REMARK   10  A    between atoms: C_17  and  N_24 
REMARK       I    between atoms: C_19  and  N_24 
ROOT
HETATM    1  C           1     -20.722  -8.189  -4.763  0.00  0.00     0.185 C 
ENDROOT
BRANCH   1   2
HETATM    2  C           1     -21.081  -7.112  -5.778  0.00  0.00     0.036 C 
BRANCH   2   3
HETATM    3  C           1     -20.817  -5.738  -5.177  0.00  0.00     0.004 C 
BRANCH   3   4
HETATM    4  C           1     -20.408  -4.770  -6.280  0.00  0.00     0.027 C 
BRANCH   4   5
HETATM    5  C           1     -21.376  -4.894  -7.449  0.00  0.00     0.229 C 
BRANCH   5   6
HETATM    6  N           1     -22.248  -3.675  -7.509  0.00  0.00    -0.079 N 
HETATM    7  H           1     -22.740  -3.554  -6.596  0.00  0.00     0.274 HD
HETATM    8  H           1     -22.952  -3.788  -8.274  0.00  0.00     0.274 HD
HETATM    9  H           1     -21.659  -2.833  -7.701  0.00  0.00     0.274 HD
ENDBRANCH   5   6
ENDBRANCH   4   5
ENDBRANCH   3   4
ENDBRANCH   2   3
ENDBRANCH   1   2
BRANCH   1  10
HETATM   10  C           1     -19.315  -8.672  -5.016  0.00  0.00     0.196 C 
HETATM   11  O           1     -18.841  -8.637  -6.172  0.00  0.00    -0.646 OA
HETATM   12  O           1     -18.623  -9.106  -4.069  0.00  0.00    -0.646 OA
ENDBRANCH   1  10
BRANCH   1  13
HETATM   13  N           1     -20.810  -7.640  -3.424  0.00  0.00    -0.345 N 
HETATM   14  C           1     -21.392  -8.368  -2.422  0.00  0.00     0.249 C 
HETATM   15  O           1     -21.832  -9.470  -2.653  0.00  0.00    -0.271 OA
HETATM   16  H           1     -20.442  -6.717  -3.231  0.00  0.00     0.163 HD
BRANCH  14  17
HETATM   17  C           1     -21.484  -7.796  -1.029  0.00  0.00     0.278 C 
BRANCH  17  18
HETATM   18  N           1     -22.304  -6.540  -1.058  0.00  0.00    -0.066 N 
HETATM   19  H           1     -21.951  -5.877  -0.332  0.00  0.00     0.275 HD
HETATM   20  H           1     -22.227  -6.097  -2.001  0.00  0.00     0.275 HD
HETATM   21  H           1     -23.304  -6.773  -0.861  0.00  0.00     0.275 HD
ENDBRANCH  17  18
BRANCH  17  22
HETATM   22  C           1     -22.144  -8.811  -0.105  0.00  0.00     0.017 C 
HETATM   23  C           1     -23.298  -8.148   0.636  0.00  0.00     0.012 C 
HETATM   24  C           1     -21.123  -9.323   0.902  0.00  0.00     0.012 C 
ENDBRANCH  17  22
ENDBRANCH  14  17
ENDBRANCH   1  13
TORSDOF 10
ENDMDL
MODEL 9
REMARK VINA RESULT:      -5.2     14.334     17.053
REMARK  10 active torsions:
REMARK  status: ('A' for Active; 'I' for Inactive)
REMARK    1  A    between atoms: N_1  and  C_7 
REMARK    2  A    between atoms: C_4  and  C_5 
REMARK    3  A    between atoms: C_4  and  C_14 
REMARK    4  A    between atoms: C_5  and  C_6 
REMARK    5  A    between atoms: C_6  and  N_20 
REMARK    6  A    between atoms: C_7  and  C_19 
REMARK    7  A    between atoms: C_7  and  C_8 
REMARK    8  A    between atoms: C_14  and  C_17 
REMARK    9  A    between atoms: C_16  and  C_17 
REMARK   10  A    between atoms: C_17  and  N_24 
REMARK       I    between atoms: C_19  and  N_24 
ROOT
HETATM    1  C           1     -20.684  -6.771  -5.444  0.00  0.00     0.185 C 
ENDROOT
BRANCH   1   2
HETATM    2  C           1     -20.677  -6.040  -6.779  0.00  0.00     0.036 C 
BRANCH   2   3
HETATM    3  C           1     -20.210  -4.605  -6.571  0.00  0.00     0.004 C 
BRANCH   3   4
HETATM    4  C           1     -21.235  -3.646  -7.163  0.00  0.00     0.027 C 
BRANCH   4   5
HETATM    5  C           1     -22.219  -4.423  -8.026  0.00  0.00     0.229 C 
BRANCH   5   6
HETATM    6  N           1     -23.611  -4.221  -7.505  0.00  0.00    -0.079 N 
HETATM    7  H           1     -23.583  -4.120  -6.466  0.00  0.00     0.274 HD
HETATM    8  H           1     -24.201  -5.046  -7.760  0.00  0.00     0.274 HD
HETATM    9  H           1     -24.020  -3.357  -7.927  0.00  0.00     0.274 HD
ENDBRANCH   5   6
ENDBRANCH   4   5
ENDBRANCH   3   4
ENDBRANCH   2   3
ENDBRANCH   1   2
BRANCH   1  10
HETATM   10  C           1     -21.848  -6.291  -4.613  0.00  0.00     0.196 C 
HETATM   11  O           1     -21.674  -5.976  -3.416  0.00  0.00    -0.646 OA
HETATM   12  O           1     -22.988  -6.209  -5.121  0.00  0.00    -0.646 OA
ENDBRANCH   1  10
BRANCH   1  13
HETATM   13  N           1     -20.812  -8.197  -5.675  0.00  0.00    -0.345 N 
HETATM   14  C           1     -19.997  -9.074  -5.010  0.00  0.00     0.249 C 
HETATM   15  O           1     -19.171  -8.659  -4.231  0.00  0.00    -0.271 OA
HETATM   16  H           1     -21.503  -8.544  -6.327  0.00  0.00     0.163 HD
BRANCH  14  17
HETATM   17  C           1     -20.129 -10.558  -5.251  0.00  0.00     0.278 C 
BRANCH  17  18
HETATM   18  N           1     -21.103 -10.798  -6.366  0.00  0.00    -0.066 N 
HETATM   19  H           1     -22.039 -10.419  -6.098  0.00  0.00     0.275 HD
HETATM   20  H           1     -20.767 -10.315  -7.230  0.00  0.00     0.275 HD
HETATM   21  H           1     -21.180 -11.824  -6.546  0.00  0.00     0.275 HD
ENDBRANCH  17  18
BRANCH  17  22
HETATM   22  C           1     -18.771 -11.134  -5.631  0.00  0.00     0.017 C 
HETATM   23  C           1     -18.889 -11.880  -6.954  0.00  0.00     0.012 C 
HETATM   24  C           1     -18.305 -12.096  -4.546  0.00  0.00     0.012 C 
ENDBRANCH  17  22
ENDBRANCH  14  17
ENDBRANCH   1  13
TORSDOF 10
ENDMDL
