MODEL 1
REMARK VINA RESULT:      -5.9      0.000      0.000
REMARK  8 active torsions:
REMARK  status: ('A' for Active; 'I' for Inactive)
REMARK    1  A    between atoms: C_1  and  C_8 
REMARK    2  A    between atoms: C_1  and  N_10 
REMARK    3  A    between atoms: C_2  and  C_3 
REMARK    4  A    between atoms: C_2  and  C_19 
REMARK    5  A    between atoms: C_2  and  N_9 
REMARK    6  A    between atoms: C_3  and  C_4 
REMARK    7  A    between atoms: C_4  and  C_5 
REMARK    8  A    between atoms: C_5  and  N_6 
REMARK       I    between atoms: C_8  and  N_9 
ROOT
HETATM    1  C           1     -35.000  -0.223 -12.480  0.00  0.00     0.185 C 
ENDROOT
BRANCH   1   2
HETATM    2  C           1     -35.004   0.699 -13.691  0.00  0.00     0.038 C 
BRANCH   2   3
HETATM    3  C           1     -35.342  -0.105 -14.941  0.00  0.00     0.030 C 
BRANCH   3   4
HETATM    4  C           1     -36.605   0.458 -15.580  0.00  0.00     0.230 C 
BRANCH   4   5
HETATM    5  N           1     -36.356   1.867 -16.029  0.00  0.00    -0.079 N 
HETATM    6  H           1     -36.394   1.913 -17.073  0.00  0.00     0.274 HD
HETATM    7  H           1     -37.087   2.495 -15.626  0.00  0.00     0.274 HD
HETATM    8  H           1     -35.412   2.174 -15.702  0.00  0.00     0.274 HD
ENDBRANCH   4   5
ENDBRANCH   3   4
ENDBRANCH   2   3
ENDBRANCH   1   2
BRANCH   1   9
HETATM    9  C           1     -36.318  -0.108 -11.754  0.00  0.00     0.196 C 
HETATM   10  O           1     -37.349  -0.612 -12.248  0.00  0.00    -0.646 OA
HETATM   11  O           1     -36.377   0.492 -10.659  0.00  0.00    -0.646 OA
ENDBRANCH   1   9
BRANCH   1  12
HETATM   12  N           1     -34.808  -1.593 -12.916  0.00  0.00    -0.345 N 
HETATM   13  C           1     -34.143  -2.480 -12.114  0.00  0.00     0.248 C 
HETATM   14  O           1     -33.716  -2.122 -11.042  0.00  0.00    -0.271 OA
HETATM   15  H           1     -35.166  -1.892 -13.814  0.00  0.00     0.163 HD
BRANCH  13  16
HETATM   16  C           1     -33.944  -3.905 -12.568  0.00  0.00     0.270 C 
HETATM   17  C           1     -32.640  -4.444 -11.994  0.00  0.00     0.050 C 
BRANCH  16  18
HETATM   18  N           1     -33.885  -3.948 -14.066  0.00  0.00    -0.067 N 
HETATM   19  H           1     -33.499  -4.869 -14.374  0.00  0.00     0.275 HD
HETATM   20  H           1     -34.848  -3.828 -14.455  0.00  0.00     0.275 HD
HETATM   21  H           1     -33.270  -3.178 -14.413  0.00  0.00     0.275 HD
ENDBRANCH  16  18
ENDBRANCH  13  16
ENDBRANCH   1  12
TORSDOF 8
ENDMDL
MODEL 2
REMARK VINA RESULT:      -5.9     11.791     13.737
REMARK  8 active torsions:
REMARK  status: ('A' for Active; 'I' for Inactive)
REMARK    1  A    between atoms: C_1  and  C_8 
REMARK    2  A    between atoms: C_1  and  N_10 
REMARK    3  A    between atoms: C_2  and  C_3 
REMARK    4  A    between atoms: C_2  and  C_19 
REMARK    5  A    between atoms: C_2  and  N_9 
REMARK    6  A    between atoms: C_3  and  C_4 
REMARK    7  A    between atoms: C_4  and  C_5 
REMARK    8  A    between atoms: C_5  and  N_6 
REMARK       I    between atoms: C_8  and  N_9 
ROOT
HETATM    1  C           1     -22.649  -3.685  -9.626  0.00  0.00     0.185 C 
ENDROOT
BRANCH   1   2
HETATM    2  C           1     -22.036  -3.850 -11.009  0.00  0.00     0.038 C 
BRANCH   2   3
HETATM    3  C           1     -22.358  -2.626 -11.858  0.00  0.00     0.030 C 
BRANCH   3   4
HETATM    4  C           1     -22.800  -3.073 -13.246  0.00  0.00     0.230 C 
BRANCH   4   5
HETATM    5  N           1     -23.831  -4.155 -13.120  0.00  0.00    -0.079 N 
HETATM    6  H           1     -24.301  -4.297 -14.042  0.00  0.00     0.274 HD
HETATM    7  H           1     -23.368  -5.044 -12.825  0.00  0.00     0.274 HD
HETATM    8  H           1     -24.541  -3.877 -12.406  0.00  0.00     0.274 HD
ENDBRANCH   4   5
ENDBRANCH   3   4
ENDBRANCH   2   3
ENDBRANCH   1   2
BRANCH   1   9
HETATM    9  C           1     -24.150  -3.817  -9.721  0.00  0.00     0.196 C 
HETATM   10  O           1     -24.881  -2.843  -9.436  0.00  0.00    -0.646 OA
HETATM   11  O           1     -24.660  -4.897 -10.084  0.00  0.00    -0.646 OA
ENDBRANCH   1   9
BRANCH   1  12
HETATM   12  N           1     -22.130  -4.711  -8.742  0.00  0.00    -0.345 N 
HETATM   13  C           1     -21.552  -4.360  -7.552  0.00  0.00     0.248 C 
HETATM   14  O           1     -21.474  -3.196  -7.238  0.00  0.00    -0.271 OA
HETATM   15  H           1     -22.195  -5.686  -9.005  0.00  0.00     0.163 HD
BRANCH  13  16
HETATM   16  C           1     -21.011  -5.428  -6.633  0.00  0.00     0.270 C 
HETATM   17  C           1     -20.267  -4.773  -5.476  0.00  0.00     0.050 C 
BRANCH  16  18
HETATM   18  N           1     -20.071  -6.314  -7.394  0.00  0.00    -0.067 N 
HETATM   19  H           1     -19.095  -5.954  -7.294  0.00  0.00     0.275 HD
HETATM   20  H           1     -20.123  -7.286  -7.011  0.00  0.00     0.275 HD
HETATM   21  H           1     -20.339  -6.321  -8.403  0.00  0.00     0.275 HD
ENDBRANCH  16  18
ENDBRANCH  13  16
ENDBRANCH   1  12
TORSDOF 8
ENDMDL
MODEL 3
REMARK VINA RESULT:      -5.7      1.712      5.323
REMARK  8 active torsions:
REMARK  status: ('A' for Active; 'I' for Inactive)
REMARK    1  A    between atoms: C_1  and  C_8 
REMARK    2  A    between atoms: C_1  and  N_10 
REMARK    3  A    between atoms: C_2  and  C_3 
REMARK    4  A    between atoms: C_2  and  C_19 
REMARK    5  A    between atoms: C_2  and  N_9 
REMARK    6  A    between atoms: C_3  and  C_4 
REMARK    7  A    between atoms: C_4  and  C_5 
REMARK    8  A    between atoms: C_5  and  N_6 
REMARK       I    between atoms: C_8  and  N_9 
ROOT
HETATM    1  C           1     -34.910  -2.492 -12.209  0.00  0.00     0.185 C 
ENDROOT
BRANCH   1   2
HETATM    2  C           1     -34.020  -3.689 -12.513  0.00  0.00     0.038 C 
BRANCH   2   3
HETATM    3  C           1     -34.709  -4.966 -12.049  0.00  0.00     0.030 C 
BRANCH   3   4
HETATM    4  C           1     -33.882  -5.619 -10.948  0.00  0.00     0.230 C 
BRANCH   4   5
HETATM    5  N           1     -34.273  -7.061 -10.816  0.00  0.00    -0.079 N 
HETATM    6  H           1     -35.173  -7.131 -10.291  0.00  0.00     0.274 HD
HETATM    7  H           1     -34.391  -7.478 -11.766  0.00  0.00     0.274 HD
HETATM    8  H           1     -33.526  -7.577 -10.298  0.00  0.00     0.274 HD
ENDBRANCH   4   5
ENDBRANCH   3   4
ENDBRANCH   2   3
ENDBRANCH   1   2
BRANCH   1   9
HETATM    9  C           1     -34.466  -1.849 -10.918  0.00  0.00     0.196 C 
HETATM   10  O           1     -33.259  -1.873 -10.591  0.00  0.00    -0.646 OA
HETATM   11  O           1     -35.304  -1.293 -10.177  0.00  0.00    -0.646 OA
ENDBRANCH   1   9
BRANCH   1  12
HETATM   12  N           1     -34.809  -1.528 -13.288  0.00  0.00    -0.345 N 
HETATM   13  C           1     -35.911  -0.815 -13.673  0.00  0.00     0.248 C 
HETATM   14  O           1     -36.968  -0.986 -13.113  0.00  0.00    -0.271 OA
HETATM   15  H           1     -33.924  -1.385 -13.756  0.00  0.00     0.163 HD
BRANCH  13  16
HETATM   16  C           1     -35.806   0.188 -14.795  0.00  0.00     0.270 C 
HETATM   17  C           1     -34.896   1.333 -14.370  0.00  0.00     0.050 C 
BRANCH  16  18
HETATM   18  N           1     -37.169   0.727 -15.114  0.00  0.00    -0.067 N 
HETATM   19  H           1     -37.449   1.420 -14.384  0.00  0.00     0.275 HD
HETATM   20  H           1     -37.147   1.196 -16.048  0.00  0.00     0.275 HD
HETATM   21  H           1     -37.858  -0.058 -15.134  0.00  0.00     0.275 HD
ENDBRANCH  16  18
ENDBRANCH  13  16
ENDBRANCH   1  12
TORSDOF 8
ENDMDL
MODEL 4
REMARK VINA RESULT:      -5.7      3.128      5.988
REMARK  8 active torsions:
REMARK  status: ('A' for Active; 'I' for Inactive)
REMARK    1  A    between atoms: C_1  and  C_8 
REMARK    2  A    between atoms: C_1  and  N_10 
REMARK    3  A    between atoms: C_2  and  C_3 
REMARK    4  A    between atoms: C_2  and  C_19 
REMARK    5  A    between atoms: C_2  and  N_9 
REMARK    6  A    between atoms: C_3  and  C_4 
REMARK    7  A    between atoms: C_4  and  C_5 
REMARK    8  A    between atoms: C_5  and  N_6 
REMARK       I    between atoms: C_8  and  N_9 
ROOT
HETATM    1  C           1     -33.970  -3.466 -12.062  0.00  0.00     0.185 C 
ENDROOT
BRANCH   1   2
HETATM    2  C           1     -33.275  -4.592 -11.310  0.00  0.00     0.038 C 
BRANCH   2   3
HETATM    3  C           1     -34.260  -5.246 -10.349  0.00  0.00     0.030 C 
BRANCH   3   4
HETATM    4  C           1     -34.288  -6.749 -10.594  0.00  0.00     0.230 C 
BRANCH   4   5
HETATM    5  N           1     -35.060  -7.421  -9.497  0.00  0.00    -0.079 N 
HETATM    6  H           1     -35.151  -8.441  -9.709  0.00  0.00     0.274 HD
HETATM    7  H           1     -34.554  -7.299  -8.590  0.00  0.00     0.274 HD
HETATM    8  H           1     -36.010  -6.994  -9.428  0.00  0.00     0.274 HD
ENDBRANCH   4   5
ENDBRANCH   3   4
ENDBRANCH   2   3
ENDBRANCH   1   2
BRANCH   1   9
HETATM    9  C           1     -34.443  -3.972 -13.403  0.00  0.00     0.196 C 
HETATM   10  O           1     -35.002  -5.087 -13.488  0.00  0.00    -0.646 OA
HETATM   11  O           1     -34.276  -3.276 -14.428  0.00  0.00    -0.646 OA
ENDBRANCH   1   9
BRANCH   1  12
HETATM   12  N           1     -35.109  -3.002 -11.293  0.00  0.00    -0.345 N 
HETATM   13  C           1     -35.320  -1.661 -11.124  0.00  0.00     0.248 C 
HETATM   14  O           1     -34.558  -0.862 -11.617  0.00  0.00    -0.271 OA
HETATM   15  H           1     -35.746  -3.671 -10.880  0.00  0.00     0.163 HD
BRANCH  13  16
HETATM   16  C           1     -36.504  -1.178 -10.324  0.00  0.00     0.270 C 
HETATM   17  C           1     -37.422  -0.356 -11.219  0.00  0.00     0.050 C 
BRANCH  16  18
HETATM   18  N           1     -36.025  -0.328  -9.185  0.00  0.00    -0.067 N 
HETATM   19  H           1     -35.048  -0.600  -8.934  0.00  0.00     0.275 HD
HETATM   20  H           1     -36.043   0.678  -9.472  0.00  0.00     0.275 HD
HETATM   21  H           1     -36.650  -0.466  -8.360  0.00  0.00     0.275 HD
ENDBRANCH  16  18
ENDBRANCH  13  16
ENDBRANCH   1  12
TORSDOF 8
ENDMDL
MODEL 5
REMARK VINA RESULT:      -5.5     11.262     13.099
REMARK  8 active torsions:
REMARK  status: ('A' for Active; 'I' for Inactive)
REMARK    1  A    between atoms: C_1  and  C_8 
REMARK    2  A    between atoms: C_1  and  N_10 
REMARK    3  A    between atoms: C_2  and  C_3 
REMARK    4  A    between atoms: C_2  and  C_19 
REMARK    5  A    between atoms: C_2  and  N_9 
REMARK    6  A    between atoms: C_3  and  C_4 
REMARK    7  A    between atoms: C_4  and  C_5 
REMARK    8  A    between atoms: C_5  and  N_6 
REMARK       I    between atoms: C_8  and  N_9 
ROOT
HETATM    1  C           1     -23.653  -4.225 -10.895  0.00  0.00     0.185 C 
ENDROOT
BRANCH   1   2
HETATM    2  C           1     -22.520  -4.915 -10.150  0.00  0.00     0.038 C 
BRANCH   2   3
HETATM    3  C           1     -21.207  -4.199 -10.443  0.00  0.00     0.030 C 
BRANCH   3   4
HETATM    4  C           1     -20.364  -4.144  -9.175  0.00  0.00     0.230 C 
BRANCH   4   5
HETATM    5  N           1     -21.251  -3.883  -7.994  0.00  0.00    -0.079 N 
HETATM    6  H           1     -20.721  -4.065  -7.112  0.00  0.00     0.274 HD
HETATM    7  H           1     -21.568  -2.887  -8.010  0.00  0.00     0.274 HD
HETATM    8  H           1     -22.083  -4.515  -8.037  0.00  0.00     0.274 HD
ENDBRANCH   4   5
ENDBRANCH   3   4
ENDBRANCH   2   3
ENDBRANCH   1   2
BRANCH   1   9
HETATM    9  C           1     -24.543  -3.509  -9.908  0.00  0.00     0.196 C 
HETATM   10  O           1     -25.686  -3.137 -10.253  0.00  0.00    -0.646 OA
HETATM   11  O           1     -24.137  -3.288  -8.747  0.00  0.00    -0.646 OA
ENDBRANCH   1   9
BRANCH   1  12
HETATM   12  N           1     -23.101  -3.265 -11.832  0.00  0.00    -0.345 N 
HETATM   13  C           1     -23.577  -3.210 -13.114  0.00  0.00     0.248 C 
HETATM   14  O           1     -24.457  -3.959 -13.465  0.00  0.00    -0.271 OA
HETATM   15  H           1     -22.364  -2.638 -11.537  0.00  0.00     0.163 HD
BRANCH  13  16
HETATM   16  C           1     -23.003  -2.211 -14.088  0.00  0.00     0.270 C 
HETATM   17  C           1     -24.120  -1.325 -14.625  0.00  0.00     0.050 C 
BRANCH  16  18
HETATM   18  N           1     -22.354  -2.940 -15.227  0.00  0.00    -0.067 N 
HETATM   19  H           1     -22.479  -3.969 -15.098  0.00  0.00     0.275 HD
HETATM   20  H           1     -22.800  -2.646 -16.126  0.00  0.00     0.275 HD
HETATM   21  H           1     -21.335  -2.712 -15.252  0.00  0.00     0.275 HD
ENDBRANCH  16  18
ENDBRANCH  13  16
ENDBRANCH   1  12
TORSDOF 8
ENDMDL
MODEL 6
REMARK VINA RESULT:      -5.2      9.682     11.511
REMARK  8 active torsions:
REMARK  status: ('A' for Active; 'I' for Inactive)
REMARK    1  A    between atoms: C_1  and  C_8 
REMARK    2  A    between atoms: C_1  and  N_10 
REMARK    3  A    between atoms: C_2  and  C_3 
REMARK    4  A    between atoms: C_2  and  C_19 
REMARK    5  A    between atoms: C_2  and  N_9 
REMARK    6  A    between atoms: C_3  and  C_4 
REMARK    7  A    between atoms: C_4  and  C_5 
REMARK    8  A    between atoms: C_5  and  N_6 
REMARK       I    between atoms: C_8  and  N_9 
ROOT
HETATM    1  C           1     -26.665  -6.312 -16.643  0.00  0.00     0.185 C 
ENDROOT
BRANCH   1   2
HETATM    2  C           1     -27.772  -7.237 -16.159  0.00  0.00     0.038 C 
BRANCH   2   3
HETATM    3  C           1     -29.036  -6.425 -15.901  0.00  0.00     0.030 C 
BRANCH   3   4
HETATM    4  C           1     -30.106  -6.816 -16.912  0.00  0.00     0.230 C 
BRANCH   4   5
HETATM    5  N           1     -29.668  -8.041 -17.658  0.00  0.00    -0.079 N 
HETATM    6  H           1     -30.212  -8.122 -18.547  0.00  0.00     0.274 HD
HETATM    7  H           1     -28.649  -7.967 -17.881  0.00  0.00     0.274 HD
HETATM    8  H           1     -29.835  -8.887 -17.068  0.00  0.00     0.274 HD
ENDBRANCH   4   5
ENDBRANCH   3   4
ENDBRANCH   2   3
ENDBRANCH   1   2
BRANCH   1   9
HETATM    9  C           1     -25.481  -6.413 -15.712  0.00  0.00     0.196 C 
HETATM   10  O           1     -25.060  -7.535 -15.357  0.00  0.00    -0.646 OA
HETATM   11  O           1     -24.922  -5.375 -15.298  0.00  0.00    -0.646 OA
ENDBRANCH   1   9
BRANCH   1  12
HETATM   12  N           1     -26.261  -6.700 -17.981  0.00  0.00    -0.345 N 
HETATM   13  C           1     -26.970  -6.258 -19.065  0.00  0.00     0.248 C 
HETATM   14  O           1     -27.931  -5.543 -18.908  0.00  0.00    -0.271 OA
HETATM   15  H           1     -25.456  -7.299 -18.113  0.00  0.00     0.163 HD
BRANCH  13  16
HETATM   16  C           1     -26.550  -6.662 -20.457  0.00  0.00     0.270 C 
HETATM   17  C           1     -27.156  -8.018 -20.797  0.00  0.00     0.050 C 
BRANCH  16  18
HETATM   18  N           1     -25.054  -6.755 -20.520  0.00  0.00    -0.067 N 
HETATM   19  H           1     -24.742  -7.653 -20.087  0.00  0.00     0.275 HD
HETATM   20  H           1     -24.747  -6.726 -21.519  0.00  0.00     0.275 HD
HETATM   21  H           1     -24.633  -5.952 -20.002  0.00  0.00     0.275 HD
ENDBRANCH  16  18
ENDBRANCH  13  16
ENDBRANCH   1  12
TORSDOF 8
ENDMDL
MODEL 7
REMARK VINA RESULT:      -5.2      8.974     11.027
REMARK  8 active torsions:
REMARK  status: ('A' for Active; 'I' for Inactive)
REMARK    1  A    between atoms: C_1  and  C_8 
REMARK    2  A    between atoms: C_1  and  N_10 
REMARK    3  A    between atoms: C_2  and  C_3 
REMARK    4  A    between atoms: C_2  and  C_19 
REMARK    5  A    between atoms: C_2  and  N_9 
REMARK    6  A    between atoms: C_3  and  C_4 
REMARK    7  A    between atoms: C_4  and  C_5 
REMARK    8  A    between atoms: C_5  and  N_6 
REMARK       I    between atoms: C_8  and  N_9 
ROOT
HETATM    1  C           1     -27.718  -6.282 -17.341  0.00  0.00     0.185 C 
ENDROOT
BRANCH   1   2
HETATM    2  C           1     -28.818  -7.141 -17.950  0.00  0.00     0.038 C 
BRANCH   2   3
HETATM    3  C           1     -30.030  -6.270 -18.261  0.00  0.00     0.030 C 
BRANCH   3   4
HETATM    4  C           1     -31.113  -6.516 -17.218  0.00  0.00     0.230 C 
BRANCH   4   5
HETATM    5  N           1     -31.174  -5.351 -16.275  0.00  0.00    -0.079 N 
HETATM    6  H           1     -32.172  -5.087 -16.110  0.00  0.00     0.274 HD
HETATM    7  H           1     -30.729  -5.614 -15.367  0.00  0.00     0.274 HD
HETATM    8  H           1     -30.664  -4.539 -16.691  0.00  0.00     0.274 HD
ENDBRANCH   4   5
ENDBRANCH   3   4
ENDBRANCH   2   3
ENDBRANCH   1   2
BRANCH   1   9
HETATM    9  C           1     -27.698  -6.477 -15.845  0.00  0.00     0.196 C 
HETATM   10  O           1     -28.343  -5.701 -15.106  0.00  0.00    -0.646 OA
HETATM   11  O           1     -27.037  -7.412 -15.345  0.00  0.00    -0.646 OA
ENDBRANCH   1   9
BRANCH   1  12
HETATM   12  N           1     -26.437  -6.674 -17.896  0.00  0.00    -0.345 N 
HETATM   13  C           1     -26.186  -6.496 -19.230  0.00  0.00     0.248 C 
HETATM   14  O           1     -27.031  -6.011 -19.944  0.00  0.00    -0.271 OA
HETATM   15  H           1     -25.729  -7.080 -17.298  0.00  0.00     0.163 HD
BRANCH  13  16
HETATM   16  C           1     -24.852  -6.903 -19.807  0.00  0.00     0.270 C 
HETATM   17  C           1     -25.071  -7.913 -20.926  0.00  0.00     0.050 C 
BRANCH  16  18
HETATM   18  N           1     -24.012  -7.525 -18.732  0.00  0.00    -0.067 N 
HETATM   19  H           1     -24.026  -8.564 -18.835  0.00  0.00     0.275 HD
HETATM   20  H           1     -23.028  -7.181 -18.818  0.00  0.00     0.275 HD
HETATM   21  H           1     -24.392  -7.261 -17.795  0.00  0.00     0.275 HD
ENDBRANCH  16  18
ENDBRANCH  13  16
ENDBRANCH   1  12
TORSDOF 8
ENDMDL
MODEL 8
REMARK VINA RESULT:      -5.1     10.457     12.713
REMARK  8 active torsions:
REMARK  status: ('A' for Active; 'I' for Inactive)
REMARK    1  A    between atoms: C_1  and  C_8 
REMARK    2  A    between atoms: C_1  and  N_10 
REMARK    3  A    between atoms: C_2  and  C_3 
REMARK    4  A    between atoms: C_2  and  C_19 
REMARK    5  A    between atoms: C_2  and  N_9 
REMARK    6  A    between atoms: C_3  and  C_4 
REMARK    7  A    between atoms: C_4  and  C_5 
REMARK    8  A    between atoms: C_5  and  N_6 
REMARK       I    between atoms: C_8  and  N_9 
ROOT
HETATM    1  C           1     -25.743  -6.428 -17.359  0.00  0.00     0.185 C 
ENDROOT
BRANCH   1   2
HETATM    2  C           1     -27.200  -6.199 -16.982  0.00  0.00     0.038 C 
BRANCH   2   3
HETATM    3  C           1     -28.065  -6.256 -18.236  0.00  0.00     0.030 C 
BRANCH   3   4
HETATM    4  C           1     -29.429  -6.837 -17.887  0.00  0.00     0.230 C 
BRANCH   4   5
HETATM    5  N           1     -29.253  -8.191 -17.266  0.00  0.00    -0.079 N 
HETATM    6  H           1     -28.906  -8.083 -16.286  0.00  0.00     0.274 HD
HETATM    7  H           1     -30.171  -8.691 -17.256  0.00  0.00     0.274 HD
HETATM    8  H           1     -28.562  -8.741 -17.822  0.00  0.00     0.274 HD
ENDBRANCH   4   5
ENDBRANCH   3   4
ENDBRANCH   2   3
ENDBRANCH   1   2
BRANCH   1   9
HETATM    9  C           1     -25.079  -7.281 -16.306  0.00  0.00     0.196 C 
HETATM   10  O           1     -25.314  -7.075 -15.096  0.00  0.00    -0.646 OA
HETATM   11  O           1     -24.294  -8.192 -16.645  0.00  0.00    -0.646 OA
ENDBRANCH   1   9
BRANCH   1  12
HETATM   12  N           1     -25.676  -7.103 -18.641  0.00  0.00    -0.345 N 
HETATM   13  C           1     -24.608  -6.891 -19.469  0.00  0.00     0.248 C 
HETATM   14  O           1     -23.721  -6.143 -19.134  0.00  0.00    -0.271 OA
HETATM   15  H           1     -26.419  -7.730 -18.922  0.00  0.00     0.163 HD
BRANCH  13  16
HETATM   16  C           1     -24.538  -7.594 -20.803  0.00  0.00     0.270 C 
HETATM   17  C           1     -25.895  -8.206 -21.127  0.00  0.00     0.050 C 
BRANCH  16  18
HETATM   18  N           1     -23.504  -8.679 -20.743  0.00  0.00    -0.067 N 
HETATM   19  H           1     -23.928  -9.583 -21.051  0.00  0.00     0.275 HD
HETATM   20  H           1     -22.708  -8.435 -21.375  0.00  0.00     0.275 HD
HETATM   21  H           1     -23.155  -8.774 -19.763  0.00  0.00     0.275 HD
ENDBRANCH  16  18
ENDBRANCH  13  16
ENDBRANCH   1  12
TORSDOF 8
ENDMDL
MODEL 9
REMARK VINA RESULT:      -5.0     13.665     15.371
REMARK  8 active torsions:
REMARK  status: ('A' for Active; 'I' for Inactive)
REMARK    1  A    between atoms: C_1  and  C_8 
REMARK    2  A    between atoms: C_1  and  N_10 
REMARK    3  A    between atoms: C_2  and  C_3 
REMARK    4  A    between atoms: C_2  and  C_19 
REMARK    5  A    between atoms: C_2  and  N_9 
REMARK    6  A    between atoms: C_3  and  C_4 
REMARK    7  A    between atoms: C_4  and  C_5 
REMARK    8  A    between atoms: C_5  and  N_6 
REMARK       I    between atoms: C_8  and  N_9 
ROOT
HETATM    1  C           1     -21.656  -4.920  -8.290  0.00  0.00     0.185 C 
ENDROOT
BRANCH   1   2
HETATM    2  C           1     -22.737  -3.941  -8.726  0.00  0.00     0.038 C 
BRANCH   2   3
HETATM    3  C           1     -23.510  -4.527  -9.902  0.00  0.00     0.030 C 
BRANCH   3   4
HETATM    4  C           1     -23.192  -3.735 -11.164  0.00  0.00     0.230 C 
BRANCH   4   5
HETATM    5  N           1     -22.187  -4.485 -11.987  0.00  0.00    -0.079 N 
HETATM    6  H           1     -22.140  -4.070 -12.944  0.00  0.00     0.274 HD
HETATM    7  H           1     -21.247  -4.420 -11.533  0.00  0.00     0.274 HD
HETATM    8  H           1     -22.472  -5.488 -12.055  0.00  0.00     0.274 HD
ENDBRANCH   4   5
ENDBRANCH   3   4
ENDBRANCH   2   3
ENDBRANCH   1   2
BRANCH   1   9
HETATM    9  C           1     -20.318  -4.461  -8.817  0.00  0.00     0.196 C 
HETATM   10  O           1     -19.936  -4.825  -9.950  0.00  0.00    -0.646 OA
HETATM   11  O           1     -19.595  -3.717  -8.121  0.00  0.00    -0.646 OA
ENDBRANCH   1   9
BRANCH   1  12
HETATM   12  N           1     -21.611  -4.975  -6.842  0.00  0.00    -0.345 N 
HETATM   13  C           1     -21.245  -6.134  -6.213  0.00  0.00     0.248 C 
HETATM   14  O           1     -20.958  -7.111  -6.863  0.00  0.00    -0.271 OA
HETATM   15  H           1     -21.851  -4.157  -6.297  0.00  0.00     0.163 HD
BRANCH  13  16
HETATM   16  C           1     -21.198  -6.191  -4.705  0.00  0.00     0.270 C 
HETATM   17  C           1     -20.503  -7.474  -4.267  0.00  0.00     0.050 C 
BRANCH  16  18
HETATM   18  N           1     -22.595  -6.170  -4.161  0.00  0.00    -0.067 N 
HETATM   19  H           1     -23.250  -5.823  -4.896  0.00  0.00     0.275 HD
HETATM   20  H           1     -22.871  -7.137  -3.876  0.00  0.00     0.275 HD
HETATM   21  H           1     -22.635  -5.537  -3.330  0.00  0.00     0.275 HD
ENDBRANCH  16  18
ENDBRANCH  13  16
ENDBRANCH   1  12
TORSDOF 8
ENDMDL
