MODEL 1
REMARK VINA RESULT:      -6.3      0.000      0.000
REMARK  8 active torsions:
REMARK  status: ('A' for Active; 'I' for Inactive)
REMARK    1  A    between atoms: C_1  and  C_7 
REMARK    2  A    between atoms: C_1  and  C_9 
REMARK    3  A    between atoms: C_6  and  C_9 
REMARK    4  A    between atoms: C_6  and  N_12 
REMARK    5  A    between atoms: C_7  and  C_20 
REMARK       I    between atoms: N_11  and  C_21 
REMARK    6  A    between atoms: N_18  and  C_20 
REMARK    7  A    between atoms: C_19  and  C_22 
REMARK    8  A    between atoms: C_20  and  C_21 
ROOT
HETATM    1  C           1     -35.547  -0.502 -11.472  0.00  0.00     0.275 C 
ENDROOT
BRANCH   1   2
HETATM    2  C           1     -35.257  -1.933 -11.037  0.00  0.00     0.042 C 
BRANCH   2   3
HETATM    3  C           1     -33.758  -2.109 -10.835  0.00  0.00     0.004 C 
BRANCH   3   4
HETATM    4  C           1     -33.286  -3.348 -11.583  0.00  0.00     0.027 C 
BRANCH   4   5
HETATM    5  C           1     -34.393  -3.837 -12.507  0.00  0.00     0.229 C 
BRANCH   5   6
HETATM    6  N           1     -33.856  -3.981 -13.900  0.00  0.00    -0.079 N 
HETATM    7  H           1     -34.468  -4.629 -14.445  0.00  0.00     0.274 HD
HETATM    8  H           1     -32.886  -4.368 -13.861  0.00  0.00     0.274 HD
HETATM    9  H           1     -33.840  -3.045 -14.365  0.00  0.00     0.274 HD
ENDBRANCH   5   6
ENDBRANCH   4   5
ENDBRANCH   3   4
ENDBRANCH   2   3
ENDBRANCH   1   2
BRANCH   1  10
HETATM   10  N           1     -36.283   0.213 -10.379  0.00  0.00    -0.067 N 
HETATM   11  H           1     -35.623   0.845  -9.871  0.00  0.00     0.275 HD
HETATM   12  H           1     -37.059   0.778 -10.792  0.00  0.00     0.275 HD
HETATM   13  H           1     -36.680  -0.486  -9.710  0.00  0.00     0.275 HD
ENDBRANCH   1  10
BRANCH   1  14
HETATM   14  C           1     -36.396  -0.518 -12.721  0.00  0.00     0.251 C 
HETATM   15  N           1     -35.929   0.056 -13.873  0.00  0.00    -0.336 N 
HETATM   16  C           1     -36.606   0.134 -15.164  0.00  0.00     0.188 C 
HETATM   17  C           1     -34.647   0.724 -14.078  0.00  0.00     0.127 C 
HETATM   18  C           1     -36.288   1.536 -15.655  0.00  0.00     0.038 C 
HETATM   19  C           1     -34.997   1.922 -14.943  0.00  0.00     0.022 C 
HETATM   20  O           1     -37.486  -1.039 -12.703  0.00  0.00    -0.271 OA
BRANCH  16  21
HETATM   21  C           1     -36.066  -0.904 -16.117  0.00  0.00     0.196 C 
HETATM   22  O           1     -36.392  -0.875 -17.324  0.00  0.00    -0.646 OA
HETATM   23  O           1     -35.293  -1.793 -15.700  0.00  0.00    -0.646 OA
ENDBRANCH  16  21
ENDBRANCH   1  14
TORSDOF 8
ENDMDL
MODEL 2
REMARK VINA RESULT:      -6.2     12.917     15.464
REMARK  8 active torsions:
REMARK  status: ('A' for Active; 'I' for Inactive)
REMARK    1  A    between atoms: C_1  and  C_7 
REMARK    2  A    between atoms: C_1  and  C_9 
REMARK    3  A    between atoms: C_6  and  C_9 
REMARK    4  A    between atoms: C_6  and  N_12 
REMARK    5  A    between atoms: C_7  and  C_20 
REMARK       I    between atoms: N_11  and  C_21 
REMARK    6  A    between atoms: N_18  and  C_20 
REMARK    7  A    between atoms: C_19  and  C_22 
REMARK    8  A    between atoms: C_20  and  C_21 
ROOT
HETATM    1  C           1     -21.773  -3.267 -10.662  0.00  0.00     0.275 C 
ENDROOT
BRANCH   1   2
HETATM    2  C           1     -23.043  -3.001 -11.458  0.00  0.00     0.042 C 
BRANCH   2   3
HETATM    3  C           1     -22.705  -2.911 -12.940  0.00  0.00     0.004 C 
BRANCH   3   4
HETATM    4  C           1     -23.863  -2.263 -13.688  0.00  0.00     0.027 C 
BRANCH   4   5
HETATM    5  C           1     -23.340  -1.583 -14.945  0.00  0.00     0.229 C 
BRANCH   5   6
HETATM    6  N           1     -24.120  -0.327 -15.198  0.00  0.00    -0.079 N 
HETATM    7  H           1     -24.437  -0.307 -16.193  0.00  0.00     0.274 HD
HETATM    8  H           1     -23.514   0.504 -15.009  0.00  0.00     0.274 HD
HETATM    9  H           1     -24.953  -0.303 -14.567  0.00  0.00     0.274 HD
ENDBRANCH   5   6
ENDBRANCH   4   5
ENDBRANCH   3   4
ENDBRANCH   2   3
ENDBRANCH   1   2
BRANCH   1  10
HETATM   10  N           1     -20.643  -3.556 -11.605  0.00  0.00    -0.067 N 
HETATM   11  H           1     -20.946  -3.348 -12.584  0.00  0.00     0.275 HD
HETATM   12  H           1     -19.822  -2.958 -11.360  0.00  0.00     0.275 HD
HETATM   13  H           1     -20.375  -4.563 -11.530  0.00  0.00     0.275 HD
ENDBRANCH   1  10
BRANCH   1  14
HETATM   14  C           1     -21.986  -4.455  -9.755  0.00  0.00     0.251 C 
HETATM   15  N           1     -21.261  -4.573  -8.599  0.00  0.00    -0.336 N 
HETATM   16  C           1     -21.334  -5.644  -7.611  0.00  0.00     0.188 C 
HETATM   17  C           1     -20.248  -3.655  -8.087  0.00  0.00     0.127 C 
HETATM   18  C           1     -19.882  -5.884  -7.230  0.00  0.00     0.038 C 
HETATM   19  C           1     -19.170  -4.573  -7.540  0.00  0.00     0.022 C 
HETATM   20  O           1     -22.796  -5.301 -10.050  0.00  0.00    -0.271 OA
BRANCH  16  21
HETATM   21  C           1     -22.139  -5.214  -6.409  0.00  0.00     0.196 C 
HETATM   22  O           1     -21.736  -5.483  -5.257  0.00  0.00    -0.646 OA
HETATM   23  O           1     -23.210  -4.588  -6.567  0.00  0.00    -0.646 OA
ENDBRANCH  16  21
ENDBRANCH   1  14
TORSDOF 8
ENDMDL
MODEL 3
REMARK VINA RESULT:      -6.1     13.453     15.483
REMARK  8 active torsions:
REMARK  status: ('A' for Active; 'I' for Inactive)
REMARK    1  A    between atoms: C_1  and  C_7 
REMARK    2  A    between atoms: C_1  and  C_9 
REMARK    3  A    between atoms: C_6  and  C_9 
REMARK    4  A    between atoms: C_6  and  N_12 
REMARK    5  A    between atoms: C_7  and  C_20 
REMARK       I    between atoms: N_11  and  C_21 
REMARK    6  A    between atoms: N_18  and  C_20 
REMARK    7  A    between atoms: C_19  and  C_22 
REMARK    8  A    between atoms: C_20  and  C_21 
ROOT
HETATM    1  C           1     -20.551  -5.371  -7.564  0.00  0.00     0.275 C 
ENDROOT
BRANCH   1   2
HETATM    2  C           1     -21.185  -6.397  -6.634  0.00  0.00     0.042 C 
BRANCH   2   3
HETATM    3  C           1     -20.817  -6.073  -5.192  0.00  0.00     0.004 C 
BRANCH   3   4
HETATM    4  C           1     -21.891  -6.616  -4.258  0.00  0.00     0.027 C 
BRANCH   4   5
HETATM    5  C           1     -21.371  -6.608  -2.827  0.00  0.00     0.229 C 
BRANCH   5   6
HETATM    6  N           1     -22.315  -5.835  -1.955  0.00  0.00    -0.079 N 
HETATM    7  H           1     -23.151  -6.422  -1.739  0.00  0.00     0.274 HD
HETATM    8  H           1     -22.618  -4.968  -2.454  0.00  0.00     0.274 HD
HETATM    9  H           1     -21.833  -5.574  -1.065  0.00  0.00     0.274 HD
ENDBRANCH   5   6
ENDBRANCH   4   5
ENDBRANCH   3   4
ENDBRANCH   2   3
ENDBRANCH   1   2
BRANCH   1  10
HETATM   10  N           1     -19.666  -4.458  -6.770  0.00  0.00    -0.067 N 
HETATM   11  H           1     -20.249  -3.892  -6.113  0.00  0.00     0.275 HD
HETATM   12  H           1     -18.977  -5.025  -6.226  0.00  0.00     0.275 HD
HETATM   13  H           1     -19.153  -3.818  -7.419  0.00  0.00     0.275 HD
ENDBRANCH   1  10
BRANCH   1  14
HETATM   14  C           1     -21.636  -4.562  -8.234  0.00  0.00     0.251 C 
HETATM   15  N           1     -21.583  -4.330  -9.582  0.00  0.00    -0.336 N 
HETATM   16  C           1     -22.535  -3.576 -10.392  0.00  0.00     0.188 C 
HETATM   17  C           1     -20.563  -4.784 -10.523  0.00  0.00     0.127 C 
HETATM   18  C           1     -21.653  -2.793 -11.350  0.00  0.00     0.038 C 
HETATM   19  C           1     -20.358  -3.590 -11.439  0.00  0.00     0.022 C 
HETATM   20  O           1     -22.550  -4.119  -7.579  0.00  0.00    -0.271 OA
BRANCH  16  21
HETATM   21  C           1     -23.453  -4.506 -11.147  0.00  0.00     0.196 C 
HETATM   22  O           1     -23.671  -4.318 -12.363  0.00  0.00    -0.646 OA
HETATM   23  O           1     -23.997  -5.463 -10.555  0.00  0.00    -0.646 OA
ENDBRANCH  16  21
ENDBRANCH   1  14
TORSDOF 8
ENDMDL
MODEL 4
REMARK VINA RESULT:      -5.7     13.113     15.197
REMARK  8 active torsions:
REMARK  status: ('A' for Active; 'I' for Inactive)
REMARK    1  A    between atoms: C_1  and  C_7 
REMARK    2  A    between atoms: C_1  and  C_9 
REMARK    3  A    between atoms: C_6  and  C_9 
REMARK    4  A    between atoms: C_6  and  N_12 
REMARK    5  A    between atoms: C_7  and  C_20 
REMARK       I    between atoms: N_11  and  C_21 
REMARK    6  A    between atoms: N_18  and  C_20 
REMARK    7  A    between atoms: C_19  and  C_22 
REMARK    8  A    between atoms: C_20  and  C_21 
ROOT
HETATM    1  C           1     -20.690  -4.388  -7.573  0.00  0.00     0.275 C 
ENDROOT
BRANCH   1   2
HETATM    2  C           1     -21.151  -5.664  -6.880  0.00  0.00     0.042 C 
BRANCH   2   3
HETATM    3  C           1     -20.926  -5.537  -5.380  0.00  0.00     0.004 C 
BRANCH   3   4
HETATM    4  C           1     -21.927  -6.413  -4.639  0.00  0.00     0.027 C 
BRANCH   4   5
HETATM    5  C           1     -21.462  -6.615  -3.203  0.00  0.00     0.229 C 
BRANCH   5   6
HETATM    6  N           1     -22.387  -5.892  -2.270  0.00  0.00    -0.079 N 
HETATM    7  H           1     -23.123  -6.549  -1.930  0.00  0.00     0.274 HD
HETATM    8  H           1     -22.837  -5.095  -2.775  0.00  0.00     0.274 HD
HETATM    9  H           1     -21.843  -5.526  -1.456  0.00  0.00     0.274 HD
ENDBRANCH   5   6
ENDBRANCH   4   5
ENDBRANCH   3   4
ENDBRANCH   2   3
ENDBRANCH   1   2
BRANCH   1  10
HETATM   10  N           1     -21.540  -3.239  -7.121  0.00  0.00    -0.067 N 
HETATM   11  H           1     -21.544  -2.498  -7.858  0.00  0.00     0.275 HD
HETATM   12  H           1     -22.517  -3.571  -6.955  0.00  0.00     0.275 HD
HETATM   13  H           1     -21.152  -2.845  -6.234  0.00  0.00     0.275 HD
ENDBRANCH   1  10
BRANCH   1  14
HETATM   14  C           1     -20.821  -4.552  -9.068  0.00  0.00     0.251 C 
HETATM   15  N           1     -22.014  -4.284  -9.684  0.00  0.00    -0.336 N 
HETATM   16  C           1     -22.322  -4.386 -11.107  0.00  0.00     0.188 C 
HETATM   17  C           1     -23.256  -3.835  -9.060  0.00  0.00     0.127 C 
HETATM   18  C           1     -23.717  -4.987 -11.133  0.00  0.00     0.038 C 
HETATM   19  C           1     -24.332  -4.621  -9.788  0.00  0.00     0.022 C 
HETATM   20  O           1     -19.873  -4.918  -9.721  0.00  0.00    -0.271 OA
BRANCH  16  21
HETATM   21  C           1     -22.313  -3.024 -11.758  0.00  0.00     0.196 C 
HETATM   22  O           1     -23.298  -2.644 -12.426  0.00  0.00    -0.646 OA
HETATM   23  O           1     -21.319  -2.277 -11.629  0.00  0.00    -0.646 OA
ENDBRANCH  16  21
ENDBRANCH   1  14
TORSDOF 8
ENDMDL
MODEL 5
REMARK VINA RESULT:      -5.5     14.444     17.161
REMARK  8 active torsions:
REMARK  status: ('A' for Active; 'I' for Inactive)
REMARK    1  A    between atoms: C_1  and  C_7 
REMARK    2  A    between atoms: C_1  and  C_9 
REMARK    3  A    between atoms: C_6  and  C_9 
REMARK    4  A    between atoms: C_6  and  N_12 
REMARK    5  A    between atoms: C_7  and  C_20 
REMARK       I    between atoms: N_11  and  C_21 
REMARK    6  A    between atoms: N_18  and  C_20 
REMARK    7  A    between atoms: C_19  and  C_22 
REMARK    8  A    between atoms: C_20  and  C_21 
ROOT
HETATM    1  C           1     -21.545  -5.091  -7.365  0.00  0.00     0.275 C 
ENDROOT
BRANCH   1   2
HETATM    2  C           1     -21.212  -5.077  -8.851  0.00  0.00     0.042 C 
BRANCH   2   3
HETATM    3  C           1     -21.930  -3.914  -9.522  0.00  0.00     0.004 C 
BRANCH   3   4
HETATM    4  C           1     -22.968  -4.452 -10.499  0.00  0.00     0.027 C 
BRANCH   4   5
HETATM    5  C           1     -24.222  -3.592 -10.433  0.00  0.00     0.229 C 
BRANCH   5   6
HETATM    6  N           1     -24.576  -3.331  -8.999  0.00  0.00    -0.079 N 
HETATM    7  H           1     -24.111  -2.451  -8.680  0.00  0.00     0.274 HD
HETATM    8  H           1     -24.251  -4.130  -8.409  0.00  0.00     0.274 HD
HETATM    9  H           1     -25.612  -3.230  -8.909  0.00  0.00     0.274 HD
ENDBRANCH   5   6
ENDBRANCH   4   5
ENDBRANCH   3   4
ENDBRANCH   2   3
ENDBRANCH   1   2
BRANCH   1  10
HETATM   10  N           1     -21.240  -3.748  -6.772  0.00  0.00    -0.067 N 
HETATM   11  H           1     -20.268  -3.751  -6.386  0.00  0.00     0.275 HD
HETATM   12  H           1     -21.319  -3.013  -7.511  0.00  0.00     0.275 HD
HETATM   13  H           1     -21.919  -3.543  -6.004  0.00  0.00     0.275 HD
ENDBRANCH   1  10
BRANCH   1  14
HETATM   14  C           1     -20.716  -6.146  -6.673  0.00  0.00     0.251 C 
HETATM   15  N           1     -21.161  -6.712  -5.509  0.00  0.00    -0.336 N 
HETATM   16  C           1     -20.497  -7.737  -4.709  0.00  0.00     0.188 C 
HETATM   17  C           1     -22.402  -6.421  -4.796  0.00  0.00     0.127 C 
HETATM   18  C           1     -20.735  -7.288  -3.277  0.00  0.00     0.038 C 
HETATM   19  C           1     -21.990  -6.426  -3.334  0.00  0.00     0.022 C 
HETATM   20  O           1     -19.660  -6.491  -7.148  0.00  0.00    -0.271 OA
BRANCH  16  21
HETATM   21  C           1     -21.113  -9.093  -4.955  0.00  0.00     0.196 C 
HETATM   22  O           1     -21.605  -9.738  -4.004  0.00  0.00    -0.646 OA
HETATM   23  O           1     -21.131  -9.570  -6.110  0.00  0.00    -0.646 OA
ENDBRANCH  16  21
ENDBRANCH   1  14
TORSDOF 8
ENDMDL
MODEL 6
REMARK VINA RESULT:      -5.5     15.807     18.631
REMARK  8 active torsions:
REMARK  status: ('A' for Active; 'I' for Inactive)
REMARK    1  A    between atoms: C_1  and  C_7 
REMARK    2  A    between atoms: C_1  and  C_9 
REMARK    3  A    between atoms: C_6  and  C_9 
REMARK    4  A    between atoms: C_6  and  N_12 
REMARK    5  A    between atoms: C_7  and  C_20 
REMARK       I    between atoms: N_11  and  C_21 
REMARK    6  A    between atoms: N_18  and  C_20 
REMARK    7  A    between atoms: C_19  and  C_22 
REMARK    8  A    between atoms: C_20  and  C_21 
ROOT
HETATM    1  C           1     -20.319  -6.366  -5.295  0.00  0.00     0.275 C 
ENDROOT
BRANCH   1   2
HETATM    2  C           1     -20.338  -4.850  -5.437  0.00  0.00     0.042 C 
BRANCH   2   3
HETATM    3  C           1     -20.245  -4.476  -6.910  0.00  0.00     0.004 C 
BRANCH   3   4
HETATM    4  C           1     -21.426  -3.592  -7.287  0.00  0.00     0.027 C 
BRANCH   4   5
HETATM    5  C           1     -22.323  -4.334  -8.269  0.00  0.00     0.229 C 
BRANCH   5   6
HETATM    6  N           1     -23.761  -4.065  -7.935  0.00  0.00    -0.079 N 
HETATM    7  H           1     -24.163  -3.402  -8.635  0.00  0.00     0.274 HD
HETATM    8  H           1     -23.824  -3.645  -6.980  0.00  0.00     0.274 HD
HETATM    9  H           1     -24.297  -4.963  -7.957  0.00  0.00     0.274 HD
ENDBRANCH   5   6
ENDBRANCH   4   5
ENDBRANCH   3   4
ENDBRANCH   2   3
ENDBRANCH   1   2
BRANCH   1  10
HETATM   10  N           1     -20.495  -6.996  -6.644  0.00  0.00    -0.067 N 
HETATM   11  H           1     -21.316  -6.565  -7.125  0.00  0.00     0.275 HD
HETATM   12  H           1     -19.634  -6.841  -7.216  0.00  0.00     0.275 HD
HETATM   13  H           1     -20.657  -8.023  -6.531  0.00  0.00     0.275 HD
ENDBRANCH   1  10
BRANCH   1  14
HETATM   14  C           1     -21.445  -6.800  -4.387  0.00  0.00     0.251 C 
HETATM   15  N           1     -21.187  -7.612  -3.316  0.00  0.00    -0.336 N 
HETATM   16  C           1     -22.142  -8.127  -2.341  0.00  0.00     0.188 C 
HETATM   17  C           1     -19.895  -8.152  -2.901  0.00  0.00     0.127 C 
HETATM   18  C           1     -21.694  -9.562  -2.118  0.00  0.00     0.038 C 
HETATM   19  C           1     -20.215  -9.576  -2.482  0.00  0.00     0.022 C 
HETATM   20  O           1     -22.574  -6.430  -4.607  0.00  0.00    -0.271 OA
BRANCH  16  21
HETATM   21  C           1     -22.076  -7.339  -1.055  0.00  0.00     0.196 C 
HETATM   22  O           1     -21.757  -7.908   0.011  0.00  0.00    -0.646 OA
HETATM   23  O           1     -22.340  -6.118  -1.057  0.00  0.00    -0.646 OA
ENDBRANCH  16  21
ENDBRANCH   1  14
TORSDOF 8
ENDMDL
MODEL 7
REMARK VINA RESULT:      -5.4     12.243     14.663
REMARK  8 active torsions:
REMARK  status: ('A' for Active; 'I' for Inactive)
REMARK    1  A    between atoms: C_1  and  C_7 
REMARK    2  A    between atoms: C_1  and  C_9 
REMARK    3  A    between atoms: C_6  and  C_9 
REMARK    4  A    between atoms: C_6  and  N_12 
REMARK    5  A    between atoms: C_7  and  C_20 
REMARK       I    between atoms: N_11  and  C_21 
REMARK    6  A    between atoms: N_18  and  C_20 
REMARK    7  A    between atoms: C_19  and  C_22 
REMARK    8  A    between atoms: C_20  and  C_21 
ROOT
HETATM    1  C           1     -23.674  -4.047 -11.513  0.00  0.00     0.275 C 
ENDROOT
BRANCH   1   2
HETATM    2  C           1     -23.536  -3.795 -13.009  0.00  0.00     0.042 C 
BRANCH   2   3
HETATM    3  C           1     -24.253  -2.503 -13.376  0.00  0.00     0.004 C 
BRANCH   3   4
HETATM    4  C           1     -23.516  -1.819 -14.519  0.00  0.00     0.027 C 
BRANCH   4   5
HETATM    5  C           1     -24.308  -0.602 -14.978  0.00  0.00     0.229 C 
BRANCH   5   6
HETATM    6  N           1     -23.540   0.122 -16.045  0.00  0.00    -0.079 N 
HETATM    7  H           1     -22.959  -0.561 -16.580  0.00  0.00     0.274 HD
HETATM    8  H           1     -22.919   0.836 -15.603  0.00  0.00     0.274 HD
HETATM    9  H           1     -24.209   0.594 -16.694  0.00  0.00     0.274 HD
ENDBRANCH   5   6
ENDBRANCH   4   5
ENDBRANCH   3   4
ENDBRANCH   2   3
ENDBRANCH   1   2
BRANCH   1  10
HETATM   10  N           1     -24.861  -3.297 -10.988  0.00  0.00    -0.067 N 
HETATM   11  H           1     -24.791  -2.293 -11.271  0.00  0.00     0.275 HD
HETATM   12  H           1     -25.737  -3.709 -11.382  0.00  0.00     0.275 HD
HETATM   13  H           1     -24.884  -3.365  -9.945  0.00  0.00     0.275 HD
ENDBRANCH   1  10
BRANCH   1  14
HETATM   14  C           1     -22.427  -3.573 -10.806  0.00  0.00     0.251 C 
HETATM   15  N           1     -22.138  -4.030  -9.548  0.00  0.00    -0.336 N 
HETATM   16  C           1     -20.988  -3.683  -8.719  0.00  0.00     0.188 C 
HETATM   17  C           1     -22.914  -4.969  -8.743  0.00  0.00     0.127 C 
HETATM   18  C           1     -21.576  -3.542  -7.325  0.00  0.00     0.038 C 
HETATM   19  C           1     -22.841  -4.392  -7.340  0.00  0.00     0.022 C 
HETATM   20  O           1     -21.685  -2.791 -11.350  0.00  0.00    -0.271 OA
BRANCH  16  21
HETATM   21  C           1     -19.950  -4.778  -8.756  0.00  0.00     0.196 C 
HETATM   22  O           1     -19.487  -5.235  -7.689  0.00  0.00    -0.646 OA
HETATM   23  O           1     -19.553  -5.226  -9.853  0.00  0.00    -0.646 OA
ENDBRANCH  16  21
ENDBRANCH   1  14
TORSDOF 8
ENDMDL
MODEL 8
REMARK VINA RESULT:      -5.3     14.422     17.168
REMARK  8 active torsions:
REMARK  status: ('A' for Active; 'I' for Inactive)
REMARK    1  A    between atoms: C_1  and  C_7 
REMARK    2  A    between atoms: C_1  and  C_9 
REMARK    3  A    between atoms: C_6  and  C_9 
REMARK    4  A    between atoms: C_6  and  N_12 
REMARK    5  A    between atoms: C_7  and  C_20 
REMARK       I    between atoms: N_11  and  C_21 
REMARK    6  A    between atoms: N_18  and  C_20 
REMARK    7  A    between atoms: C_19  and  C_22 
REMARK    8  A    between atoms: C_20  and  C_21 
ROOT
HETATM    1  C           1     -20.971  -4.875  -6.965  0.00  0.00     0.275 C 
ENDROOT
BRANCH   1   2
HETATM    2  C           1     -21.791  -3.866  -7.758  0.00  0.00     0.042 C 
BRANCH   2   3
HETATM    3  C           1     -21.537  -4.061  -9.246  0.00  0.00     0.004 C 
BRANCH   3   4
HETATM    4  C           1     -22.865  -4.249  -9.969  0.00  0.00     0.027 C 
BRANCH   4   5
HETATM    5  C           1     -23.976  -3.576  -9.175  0.00  0.00     0.229 C 
BRANCH   5   6
HETATM    6  N           1     -25.301  -4.145  -9.588  0.00  0.00    -0.079 N 
HETATM    7  H           1     -25.384  -4.118 -10.628  0.00  0.00     0.274 HD
HETATM    8  H           1     -26.071  -3.579  -9.162  0.00  0.00     0.274 HD
HETATM    9  H           1     -25.373  -5.134  -9.258  0.00  0.00     0.274 HD
ENDBRANCH   5   6
ENDBRANCH   4   5
ENDBRANCH   3   4
ENDBRANCH   2   3
ENDBRANCH   1   2
BRANCH   1  10
HETATM   10  N           1     -20.316  -5.838  -7.910  0.00  0.00    -0.067 N 
HETATM   11  H           1     -20.711  -6.794  -7.762  0.00  0.00     0.275 HD
HETATM   12  H           1     -20.493  -5.536  -8.895  0.00  0.00     0.275 HD
HETATM   13  H           1     -19.286  -5.855  -7.731  0.00  0.00     0.275 HD
ENDBRANCH   1  10
BRANCH   1  14
HETATM   14  C           1     -21.878  -5.633  -6.025  0.00  0.00     0.251 C 
HETATM   15  N           1     -21.366  -6.624  -5.231  0.00  0.00    -0.336 N 
HETATM   16  C           1     -22.087  -7.454  -4.271  0.00  0.00     0.188 C 
HETATM   17  C           1     -19.981  -7.079  -5.160  0.00  0.00     0.127 C 
HETATM   18  C           1     -21.488  -8.837  -4.468  0.00  0.00     0.038 C 
HETATM   19  C           1     -20.101  -8.589  -5.048  0.00  0.00     0.022 C 
HETATM   20  O           1     -23.055  -5.364  -5.974  0.00  0.00    -0.271 OA
BRANCH  16  21
HETATM   21  C           1     -21.858  -6.966  -2.861  0.00  0.00     0.196 C 
HETATM   22  O           1     -22.148  -5.791  -2.551  0.00  0.00    -0.646 OA
HETATM   23  O           1     -21.378  -7.739  -2.003  0.00  0.00    -0.646 OA
ENDBRANCH  16  21
ENDBRANCH   1  14
TORSDOF 8
ENDMDL
MODEL 9
REMARK VINA RESULT:      -5.2     16.956     19.663
REMARK  8 active torsions:
REMARK  status: ('A' for Active; 'I' for Inactive)
REMARK    1  A    between atoms: C_1  and  C_7 
REMARK    2  A    between atoms: C_1  and  C_9 
REMARK    3  A    between atoms: C_6  and  C_9 
REMARK    4  A    between atoms: C_6  and  N_12 
REMARK    5  A    between atoms: C_7  and  C_20 
REMARK       I    between atoms: N_11  and  C_21 
REMARK    6  A    between atoms: N_18  and  C_20 
REMARK    7  A    between atoms: C_19  and  C_22 
REMARK    8  A    between atoms: C_20  and  C_21 
ROOT
HETATM    1  C           1     -21.963  -6.669  -2.905  0.00  0.00     0.275 C 
ENDROOT
BRANCH   1   2
HETATM    2  C           1     -21.235  -6.176  -4.149  0.00  0.00     0.042 C 
BRANCH   2   3
HETATM    3  C           1     -22.177  -6.231  -5.345  0.00  0.00     0.004 C 
BRANCH   3   4
HETATM    4  C           1     -21.442  -5.761  -6.593  0.00  0.00     0.027 C 
BRANCH   4   5
HETATM    5  C           1     -22.060  -4.461  -7.088  0.00  0.00     0.229 C 
BRANCH   5   6
HETATM    6  N           1     -23.547  -4.508  -6.896  0.00  0.00    -0.079 N 
HETATM    7  H           1     -23.914  -5.424  -7.238  0.00  0.00     0.274 HD
HETATM    8  H           1     -23.993  -3.731  -7.435  0.00  0.00     0.274 HD
HETATM    9  H           1     -23.770  -4.401  -5.880  0.00  0.00     0.274 HD
ENDBRANCH   5   6
ENDBRANCH   4   5
ENDBRANCH   3   4
ENDBRANCH   2   3
ENDBRANCH   1   2
BRANCH   1  10
HETATM   10  N           1     -22.097  -5.542  -1.925  0.00  0.00    -0.067 N 
HETATM   11  H           1     -22.053  -5.920  -0.952  0.00  0.00     0.275 HD
HETATM   12  H           1     -21.320  -4.859  -2.070  0.00  0.00     0.275 HD
HETATM   13  H           1     -23.014  -5.060  -2.070  0.00  0.00     0.275 HD
ENDBRANCH   1  10
BRANCH   1  14
HETATM   14  C           1     -21.177  -7.792  -2.274  0.00  0.00     0.251 C 
HETATM   15  N           1     -21.585  -8.328  -1.082  0.00  0.00    -0.336 N 
HETATM   16  C           1     -20.954  -9.408  -0.331  0.00  0.00     0.188 C 
HETATM   17  C           1     -22.745  -7.941  -0.284  0.00  0.00     0.127 C 
HETATM   18  C           1     -21.053  -8.951   1.115  0.00  0.00     0.038 C 
HETATM   19  C           1     -22.235  -7.989   1.145  0.00  0.00     0.022 C 
HETATM   20  O           1     -20.188  -8.219  -2.822  0.00  0.00    -0.271 OA
BRANCH  16  21
HETATM   21  C           1     -21.694 -10.708  -0.535  0.00  0.00     0.196 C 
HETATM   22  O           1     -21.976 -11.093  -1.690  0.00  0.00    -0.646 OA
HETATM   23  O           1     -22.026 -11.399   0.452  0.00  0.00    -0.646 OA
ENDBRANCH  16  21
ENDBRANCH   1  14
TORSDOF 8
ENDMDL
