MODEL 1
REMARK VINA RESULT:      -7.5      0.000      0.000
REMARK  9 active torsions:
REMARK  status: ('A' for Active; 'I' for Inactive)
REMARK    1  A    between atoms: C_2  and  C_3 
REMARK    2  A    between atoms: C_2  and  C_17 
REMARK    3  A    between atoms: C_3  and  C_4 
REMARK    4  A    between atoms: C_3  and  N_22 
REMARK       I    between atoms: C_4  and  N_5 
REMARK    5  A    between atoms: N_5  and  C_15 
REMARK    6  A    between atoms: C_8  and  C_15 
REMARK    7  A    between atoms: C_9  and  O_11 
REMARK    8  A    between atoms: C_15  and  C_25 
REMARK    9  A    between atoms: C_24  and  C_25 
ROOT
HETATM    1  C           1     -22.413  -5.072  -7.173  0.00  0.00     0.278 C 
ENDROOT
BRANCH   1   2
HETATM    2  C           1     -21.890  -3.723  -7.649  0.00  0.00     0.081 C 
BRANCH   2   3
HETATM    3  C           1     -21.876  -3.691  -9.146  0.00  0.00    -0.056 A 
HETATM    4  C           1     -20.694  -3.958  -9.837  0.00  0.00     0.010 A 
HETATM    5  C           1     -20.680  -3.929 -11.232  0.00  0.00     0.037 A 
HETATM    6  C           1     -21.849  -3.634 -11.934  0.00  0.00     0.065 A 
HETATM    7  C           1     -23.031  -3.368 -11.242  0.00  0.00     0.037 A 
HETATM    8  C           1     -23.044  -3.397  -9.848  0.00  0.00     0.010 A 
BRANCH   6   9
HETATM    9  O           1     -21.836  -3.606 -13.289  0.00  0.00    -0.361 OA
HETATM   10  H           1     -21.461  -4.445 -13.603  0.00  0.00     0.217 HD
ENDBRANCH   6   9
ENDBRANCH   2   3
ENDBRANCH   1   2
BRANCH   1  11
HETATM   11  C           1     -21.377  -5.736  -6.300  0.00  0.00     0.249 C 
HETATM   12  O           1     -20.218  -5.405  -6.382  0.00  0.00    -0.271 OA
HETATM   13  N           1     -21.749  -6.713  -5.417  0.00  0.00    -0.344 N 
HETATM   14  H           1     -22.720  -6.990  -5.349  0.00  0.00     0.163 HD
BRANCH  13  15
HETATM   15  C           1     -20.753  -7.350  -4.579  0.00  0.00     0.189 C 
BRANCH  15  16
HETATM   16  C           1     -20.276  -8.620  -5.241  0.00  0.00     0.197 C 
HETATM   17  O           1     -19.069  -8.758  -5.533  0.00  0.00    -0.646 OA
HETATM   18  O           1     -21.089  -9.534  -5.497  0.00  0.00    -0.646 OA
ENDBRANCH  15  16
BRANCH  15  19
HETATM   19  C           1     -21.366  -7.685  -3.226  0.00  0.00     0.014 C 
HETATM   20  C           1     -20.302  -8.298  -2.324  0.00  0.00     0.012 C 
BRANCH  19  21
HETATM   21  C           1     -21.904  -6.414  -2.583  0.00  0.00     0.002 C 
HETATM   22  C           1     -22.284  -6.698  -1.136  0.00  0.00     0.005 C 
ENDBRANCH  19  21
ENDBRANCH  15  19
ENDBRANCH  13  15
ENDBRANCH   1  11
BRANCH   1  23
HETATM   23  N           1     -23.674  -4.870  -6.386  0.00  0.00    -0.066 N 
HETATM   24  H           1     -24.499  -4.973  -7.019  0.00  0.00     0.275 HD
HETATM   25  H           1     -23.672  -3.912  -5.967  0.00  0.00     0.275 HD
HETATM   26  H           1     -23.728  -5.583  -5.624  0.00  0.00     0.275 HD
ENDBRANCH   1  23
TORSDOF 9
ENDMDL
MODEL 2
REMARK VINA RESULT:      -7.4      1.149      1.489
REMARK  9 active torsions:
REMARK  status: ('A' for Active; 'I' for Inactive)
REMARK    1  A    between atoms: C_2  and  C_3 
REMARK    2  A    between atoms: C_2  and  C_17 
REMARK    3  A    between atoms: C_3  and  C_4 
REMARK    4  A    between atoms: C_3  and  N_22 
REMARK       I    between atoms: C_4  and  N_5 
REMARK    5  A    between atoms: N_5  and  C_15 
REMARK    6  A    between atoms: C_8  and  C_15 
REMARK    7  A    between atoms: C_9  and  O_11 
REMARK    8  A    between atoms: C_15  and  C_25 
REMARK    9  A    between atoms: C_24  and  C_25 
ROOT
HETATM    1  C           1     -21.573  -4.726  -7.529  0.00  0.00     0.278 C 
ENDROOT
BRANCH   1   2
HETATM    2  C           1     -20.981  -4.818  -8.929  0.00  0.00     0.081 C 
BRANCH   2   3
HETATM    3  C           1     -21.924  -4.196  -9.913  0.00  0.00    -0.056 A 
HETATM    4  C           1     -21.428  -3.399 -10.944  0.00  0.00     0.010 A 
HETATM    5  C           1     -22.306  -2.820 -11.861  0.00  0.00     0.037 A 
HETATM    6  C           1     -23.678  -3.039 -11.746  0.00  0.00     0.065 A 
HETATM    7  C           1     -24.174  -3.838 -10.715  0.00  0.00     0.037 A 
HETATM    8  C           1     -23.296  -4.416  -9.798  0.00  0.00     0.010 A 
BRANCH   6   9
HETATM    9  O           1     -24.532  -2.477 -12.637  0.00  0.00    -0.361 OA
HETATM   10  H           1     -24.007  -2.131 -13.378  0.00  0.00     0.217 HD
ENDBRANCH   6   9
ENDBRANCH   2   3
ENDBRANCH   1   2
BRANCH   1  11
HETATM   11  C           1     -20.729  -5.530  -6.571  0.00  0.00     0.249 C 
HETATM   12  O           1     -19.536  -5.349  -6.520  0.00  0.00    -0.271 OA
HETATM   13  N           1     -21.315  -6.465  -5.761  0.00  0.00    -0.344 N 
HETATM   14  H           1     -22.315  -6.616  -5.805  0.00  0.00     0.163 HD
BRANCH  13  15
HETATM   15  C           1     -20.504  -7.238  -4.841  0.00  0.00     0.189 C 
BRANCH  15  16
HETATM   16  C           1     -20.158  -8.566  -5.470  0.00  0.00     0.197 C 
HETATM   17  O           1     -21.066  -9.371  -5.770  0.00  0.00    -0.646 OA
HETATM   18  O           1     -18.964  -8.860  -5.692  0.00  0.00    -0.646 OA
ENDBRANCH  15  16
BRANCH  15  19
HETATM   19  C           1     -21.282  -7.476  -3.554  0.00  0.00     0.014 C 
HETATM   20  C           1     -20.431  -8.291  -2.589  0.00  0.00     0.012 C 
BRANCH  19  21
HETATM   21  C           1     -21.629  -6.137  -2.916  0.00  0.00     0.002 C 
HETATM   22  C           1     -22.259  -6.373  -1.549  0.00  0.00     0.005 C 
ENDBRANCH  19  21
ENDBRANCH  15  19
ENDBRANCH  13  15
ENDBRANCH   1  11
BRANCH   1  23
HETATM   23  N           1     -21.597  -3.291  -7.090  0.00  0.00    -0.066 N 
HETATM   24  H           1     -21.460  -2.672  -7.920  0.00  0.00     0.275 HD
HETATM   25  H           1     -20.830  -3.126  -6.400  0.00  0.00     0.275 HD
HETATM   26  H           1     -22.518  -3.078  -6.645  0.00  0.00     0.275 HD
ENDBRANCH   1  23
TORSDOF 9
ENDMDL
MODEL 3
REMARK VINA RESULT:      -7.4      2.199      7.792
REMARK  9 active torsions:
REMARK  status: ('A' for Active; 'I' for Inactive)
REMARK    1  A    between atoms: C_2  and  C_3 
REMARK    2  A    between atoms: C_2  and  C_17 
REMARK    3  A    between atoms: C_3  and  C_4 
REMARK    4  A    between atoms: C_3  and  N_22 
REMARK       I    between atoms: C_4  and  N_5 
REMARK    5  A    between atoms: N_5  and  C_15 
REMARK    6  A    between atoms: C_8  and  C_15 
REMARK    7  A    between atoms: C_9  and  O_11 
REMARK    8  A    between atoms: C_15  and  C_25 
REMARK    9  A    between atoms: C_24  and  C_25 
ROOT
HETATM    1  C           1     -21.112  -5.687  -6.952  0.00  0.00     0.278 C 
ENDROOT
BRANCH   1   2
HETATM    2  C           1     -20.869  -5.191  -5.532  0.00  0.00     0.081 C 
BRANCH   2   3
HETATM    3  C           1     -21.149  -6.296  -4.561  0.00  0.00    -0.056 A 
HETATM    4  C           1     -21.288  -6.011  -3.203  0.00  0.00     0.010 A 
HETATM    5  C           1     -21.549  -7.040  -2.298  0.00  0.00     0.037 A 
HETATM    6  C           1     -21.673  -8.353  -2.752  0.00  0.00     0.065 A 
HETATM    7  C           1     -21.536  -8.637  -4.111  0.00  0.00     0.037 A 
HETATM    8  C           1     -21.274  -7.608  -5.016  0.00  0.00     0.010 A 
BRANCH   6   9
HETATM    9  O           1     -21.928  -9.353  -1.874  0.00  0.00    -0.361 OA
HETATM   10  H           1     -21.099  -9.837  -1.721  0.00  0.00     0.217 HD
ENDBRANCH   6   9
ENDBRANCH   2   3
ENDBRANCH   1   2
BRANCH   1  11
HETATM   11  C           1     -21.710  -4.575  -7.778  0.00  0.00     0.249 C 
HETATM   12  O           1     -21.660  -3.435  -7.383  0.00  0.00    -0.271 OA
HETATM   13  N           1     -22.310  -4.859  -8.976  0.00  0.00    -0.344 N 
HETATM   14  H           1     -22.351  -5.814  -9.306  0.00  0.00     0.163 HD
BRANCH  13  15
HETATM   15  C           1     -22.885  -3.791  -9.770  0.00  0.00     0.189 C 
BRANCH  15  16
HETATM   16  C           1     -24.389  -3.835  -9.657  0.00  0.00     0.197 C 
HETATM   17  O           1     -25.028  -2.791  -9.400  0.00  0.00    -0.646 OA
HETATM   18  O           1     -24.996  -4.914  -9.821  0.00  0.00    -0.646 OA
ENDBRANCH  15  16
BRANCH  15  19
HETATM   19  C           1     -22.482  -3.967 -11.227  0.00  0.00     0.014 C 
HETATM   20  C           1     -22.893  -2.735 -12.021  0.00  0.00     0.012 C 
BRANCH  19  21
HETATM   21  C           1     -20.973  -4.149 -11.319  0.00  0.00     0.002 C 
HETATM   22  C           1     -20.288  -2.795 -11.193  0.00  0.00     0.005 C 
ENDBRANCH  19  21
ENDBRANCH  15  19
ENDBRANCH  13  15
ENDBRANCH   1  11
BRANCH   1  23
HETATM   23  N           1     -19.810  -6.117  -7.560  0.00  0.00    -0.066 N 
HETATM   24  H           1     -19.106  -5.352  -7.453  0.00  0.00     0.275 HD
HETATM   25  H           1     -19.952  -6.321  -8.575  0.00  0.00     0.275 HD
HETATM   26  H           1     -19.466  -6.977  -7.077  0.00  0.00     0.275 HD
ENDBRANCH   1  23
TORSDOF 9
ENDMDL
MODEL 4
REMARK VINA RESULT:      -7.0      2.075      2.814
REMARK  9 active torsions:
REMARK  status: ('A' for Active; 'I' for Inactive)
REMARK    1  A    between atoms: C_2  and  C_3 
REMARK    2  A    between atoms: C_2  and  C_17 
REMARK    3  A    between atoms: C_3  and  C_4 
REMARK    4  A    between atoms: C_3  and  N_22 
REMARK       I    between atoms: C_4  and  N_5 
REMARK    5  A    between atoms: N_5  and  C_15 
REMARK    6  A    between atoms: C_8  and  C_15 
REMARK    7  A    between atoms: C_9  and  O_11 
REMARK    8  A    between atoms: C_15  and  C_25 
REMARK    9  A    between atoms: C_24  and  C_25 
ROOT
HETATM    1  C           1     -20.996  -4.904  -6.399  0.00  0.00     0.278 C 
ENDROOT
BRANCH   1   2
HETATM    2  C           1     -20.707  -5.622  -7.711  0.00  0.00     0.081 C 
BRANCH   2   3
HETATM    3  C           1     -21.237  -4.811  -8.853  0.00  0.00    -0.056 A 
HETATM    4  C           1     -20.389  -4.433  -9.893  0.00  0.00     0.010 A 
HETATM    5  C           1     -20.882  -3.678 -10.957  0.00  0.00     0.037 A 
HETATM    6  C           1     -22.225  -3.302 -10.980  0.00  0.00     0.065 A 
HETATM    7  C           1     -23.074  -3.681  -9.940  0.00  0.00     0.037 A 
HETATM    8  C           1     -22.580  -4.435  -8.876  0.00  0.00     0.010 A 
BRANCH   6   9
HETATM    9  O           1     -22.706  -2.568 -12.014  0.00  0.00    -0.361 OA
HETATM   10  H           1     -22.707  -1.634 -11.744  0.00  0.00     0.217 HD
ENDBRANCH   6   9
ENDBRANCH   2   3
ENDBRANCH   1   2
BRANCH   1  11
HETATM   11  C           1     -21.682  -5.852  -5.447  0.00  0.00     0.249 C 
HETATM   12  O           1     -22.888  -5.937  -5.445  0.00  0.00    -0.271 OA
HETATM   13  N           1     -20.941  -6.614  -4.585  0.00  0.00    -0.344 N 
HETATM   14  H           1     -19.931  -6.542  -4.588  0.00  0.00     0.163 HD
BRANCH  13  15
HETATM   15  C           1     -21.601  -7.524  -3.671  0.00  0.00     0.189 C 
BRANCH  15  16
HETATM   16  C           1     -21.603  -6.929  -2.283  0.00  0.00     0.197 C 
HETATM   17  O           1     -22.319  -5.937  -2.029  0.00  0.00    -0.646 OA
HETATM   18  O           1     -20.888  -7.430  -1.389  0.00  0.00    -0.646 OA
ENDBRANCH  15  16
BRANCH  15  19
HETATM   19  C           1     -20.857  -8.853  -3.650  0.00  0.00     0.014 C 
HETATM   20  C           1     -21.792  -9.966  -4.103  0.00  0.00     0.012 C 
BRANCH  19  21
HETATM   21  C           1     -19.662  -8.781  -4.591  0.00  0.00     0.002 C 
HETATM   22  C           1     -18.423  -9.309  -3.880  0.00  0.00     0.005 C 
ENDBRANCH  19  21
ENDBRANCH  15  19
ENDBRANCH  13  15
ENDBRANCH   1  11
BRANCH   1  23
HETATM   23  N           1     -19.707  -4.433  -5.793  0.00  0.00    -0.066 N 
HETATM   24  H           1     -18.921  -5.025  -6.145  0.00  0.00     0.275 HD
HETATM   25  H           1     -19.764  -4.510  -4.752  0.00  0.00     0.275 HD
HETATM   26  H           1     -19.539  -3.437  -6.060  0.00  0.00     0.275 HD
ENDBRANCH   1  23
TORSDOF 9
ENDMDL
MODEL 5
REMARK VINA RESULT:      -6.8      1.162      1.317
REMARK  9 active torsions:
REMARK  status: ('A' for Active; 'I' for Inactive)
REMARK    1  A    between atoms: C_2  and  C_3 
REMARK    2  A    between atoms: C_2  and  C_17 
REMARK    3  A    between atoms: C_3  and  C_4 
REMARK    4  A    between atoms: C_3  and  N_22 
REMARK       I    between atoms: C_4  and  N_5 
REMARK    5  A    between atoms: N_5  and  C_15 
REMARK    6  A    between atoms: C_8  and  C_15 
REMARK    7  A    between atoms: C_9  and  O_11 
REMARK    8  A    between atoms: C_15  and  C_25 
REMARK    9  A    between atoms: C_24  and  C_25 
ROOT
HETATM    1  C           1     -21.739  -5.845  -6.683  0.00  0.00     0.278 C 
ENDROOT
BRANCH   1   2
HETATM    2  C           1     -20.974  -4.598  -7.108  0.00  0.00     0.081 C 
BRANCH   2   3
HETATM    3  C           1     -21.152  -4.378  -8.578  0.00  0.00    -0.056 A 
HETATM    4  C           1     -20.093  -4.621  -9.452  0.00  0.00     0.010 A 
HETATM    5  C           1     -20.258  -4.418 -10.822  0.00  0.00     0.037 A 
HETATM    6  C           1     -21.483  -3.972 -11.318  0.00  0.00     0.065 A 
HETATM    7  C           1     -22.543  -3.730 -10.443  0.00  0.00     0.037 A 
HETATM    8  C           1     -22.378  -3.933  -9.074  0.00  0.00     0.010 A 
BRANCH   6   9
HETATM    9  O           1     -21.645  -3.774 -12.649  0.00  0.00    -0.361 OA
HETATM   10  H           1     -21.969  -4.603 -13.039  0.00  0.00     0.217 HD
ENDBRANCH   6   9
ENDBRANCH   2   3
ENDBRANCH   1   2
BRANCH   1  11
HETATM   11  C           1     -20.770  -6.877  -6.160  0.00  0.00     0.249 C 
HETATM   12  O           1     -19.654  -6.943  -6.619  0.00  0.00    -0.271 OA
HETATM   13  N           1     -21.155  -7.737  -5.168  0.00  0.00    -0.344 N 
HETATM   14  H           1     -22.090  -7.680  -4.785  0.00  0.00     0.163 HD
BRANCH  13  15
HETATM   15  C           1     -20.224  -8.728  -4.666  0.00  0.00     0.189 C 
BRANCH  15  16
HETATM   16  C           1     -20.540 -10.071  -5.280  0.00  0.00     0.197 C 
HETATM   17  O           1     -19.780 -10.557  -6.145  0.00  0.00    -0.646 OA
HETATM   18  O           1     -21.561 -10.696  -4.923  0.00  0.00    -0.646 OA
ENDBRANCH  15  16
BRANCH  15  19
HETATM   19  C           1     -20.350  -8.823  -3.152  0.00  0.00     0.014 C 
HETATM   20  C           1     -18.977  -9.079  -2.543  0.00  0.00     0.012 C 
BRANCH  19  21
HETATM   21  C           1     -20.910  -7.516  -2.605  0.00  0.00     0.002 C 
HETATM   22  C           1     -21.448  -7.743  -1.199  0.00  0.00     0.005 C 
ENDBRANCH  19  21
ENDBRANCH  15  19
ENDBRANCH  13  15
ENDBRANCH   1  11
BRANCH   1  23
HETATM   23  N           1     -22.718  -5.487  -5.604  0.00  0.00    -0.066 N 
HETATM   24  H           1     -22.888  -6.321  -4.998  0.00  0.00     0.275 HD
HETATM   25  H           1     -23.618  -5.182  -6.040  0.00  0.00     0.275 HD
HETATM   26  H           1     -22.331  -4.708  -5.026  0.00  0.00     0.275 HD
ENDBRANCH   1  23
TORSDOF 9
ENDMDL
MODEL 6
REMARK VINA RESULT:      -6.4      1.659      2.630
REMARK  9 active torsions:
REMARK  status: ('A' for Active; 'I' for Inactive)
REMARK    1  A    between atoms: C_2  and  C_3 
REMARK    2  A    between atoms: C_2  and  C_17 
REMARK    3  A    between atoms: C_3  and  C_4 
REMARK    4  A    between atoms: C_3  and  N_22 
REMARK       I    between atoms: C_4  and  N_5 
REMARK    5  A    between atoms: N_5  and  C_15 
REMARK    6  A    between atoms: C_8  and  C_15 
REMARK    7  A    between atoms: C_9  and  O_11 
REMARK    8  A    between atoms: C_15  and  C_25 
REMARK    9  A    between atoms: C_24  and  C_25 
ROOT
HETATM    1  C           1     -21.708  -6.367  -5.727  0.00  0.00     0.278 C 
ENDROOT
BRANCH   1   2
HETATM    2  C           1     -20.951  -5.073  -5.992  0.00  0.00     0.081 C 
BRANCH   2   3
HETATM    3  C           1     -21.089  -4.699  -7.436  0.00  0.00    -0.056 A 
HETATM    4  C           1     -22.261  -4.093  -7.889  0.00  0.00     0.010 A 
HETATM    5  C           1     -22.390  -3.744  -9.234  0.00  0.00     0.037 A 
HETATM    6  C           1     -21.347  -4.000 -10.124  0.00  0.00     0.065 A 
HETATM    7  C           1     -20.175  -4.605  -9.669  0.00  0.00     0.037 A 
HETATM    8  C           1     -20.046  -4.954  -8.326  0.00  0.00     0.010 A 
BRANCH   6   9
HETATM    9  O           1     -21.472  -3.661 -11.430  0.00  0.00    -0.361 OA
HETATM   10  H           1     -20.701  -3.123 -11.676  0.00  0.00     0.217 HD
ENDBRANCH   6   9
ENDBRANCH   2   3
ENDBRANCH   1   2
BRANCH   1  11
HETATM   11  C           1     -20.960  -7.189  -4.707  0.00  0.00     0.249 C 
HETATM   12  O           1     -19.845  -7.585  -4.951  0.00  0.00    -0.271 OA
HETATM   13  N           1     -21.544  -7.486  -3.505  0.00  0.00    -0.344 N 
HETATM   14  H           1     -22.478  -7.154  -3.301  0.00  0.00     0.163 HD
BRANCH  13  15
HETATM   15  C           1     -20.824  -8.275  -2.525  0.00  0.00     0.189 C 
BRANCH  15  16
HETATM   16  C           1     -21.175  -9.733  -2.698  0.00  0.00     0.197 C 
HETATM   17  O           1     -20.344 -10.617  -2.399  0.00  0.00    -0.646 OA
HETATM   18  O           1     -22.299 -10.056  -3.140  0.00  0.00    -0.646 OA
ENDBRANCH  15  16
BRANCH  15  19
HETATM   19  C           1     -21.214  -7.825  -1.124  0.00  0.00     0.014 C 
HETATM   20  C           1     -22.213  -6.679  -1.218  0.00  0.00     0.012 C 
BRANCH  19  21
HETATM   21  C           1     -21.847  -8.989  -0.373  0.00  0.00     0.002 C 
HETATM   22  C           1     -23.087  -8.503   0.367  0.00  0.00     0.005 C 
ENDBRANCH  19  21
ENDBRANCH  15  19
ENDBRANCH  13  15
ENDBRANCH   1  11
BRANCH   1  23
HETATM   23  N           1     -23.077  -6.047  -5.204  0.00  0.00    -0.066 N 
HETATM   24  H           1     -23.668  -5.674  -5.981  0.00  0.00     0.275 HD
HETATM   25  H           1     -23.001  -5.329  -4.448  0.00  0.00     0.275 HD
HETATM   26  H           1     -23.515  -6.913  -4.818  0.00  0.00     0.275 HD
ENDBRANCH   1  23
TORSDOF 9
ENDMDL
MODEL 7
REMARK VINA RESULT:      -6.4      2.205      3.590
REMARK  9 active torsions:
REMARK  status: ('A' for Active; 'I' for Inactive)
REMARK    1  A    between atoms: C_2  and  C_3 
REMARK    2  A    between atoms: C_2  and  C_17 
REMARK    3  A    between atoms: C_3  and  C_4 
REMARK    4  A    between atoms: C_3  and  N_22 
REMARK       I    between atoms: C_4  and  N_5 
REMARK    5  A    between atoms: N_5  and  C_15 
REMARK    6  A    between atoms: C_8  and  C_15 
REMARK    7  A    between atoms: C_9  and  O_11 
REMARK    8  A    between atoms: C_15  and  C_25 
REMARK    9  A    between atoms: C_24  and  C_25 
ROOT
HETATM    1  C           1     -20.239  -7.597  -5.330  0.00  0.00     0.278 C 
ENDROOT
BRANCH   1   2
HETATM    2  C           1     -20.755  -6.179  -5.124  0.00  0.00     0.081 C 
BRANCH   2   3
HETATM    3  C           1     -20.904  -5.503  -6.453  0.00  0.00    -0.056 A 
HETATM    4  C           1     -19.826  -5.458  -7.336  0.00  0.00     0.010 A 
HETATM    5  C           1     -19.964  -4.830  -8.574  0.00  0.00     0.037 A 
HETATM    6  C           1     -21.182  -4.248  -8.928  0.00  0.00     0.065 A 
HETATM    7  C           1     -22.261  -4.294  -8.044  0.00  0.00     0.037 A 
HETATM    8  C           1     -22.122  -4.922  -6.807  0.00  0.00     0.010 A 
BRANCH   6   9
HETATM    9  O           1     -21.317  -3.637 -10.131  0.00  0.00    -0.361 OA
HETATM   10  H           1     -21.632  -4.299 -10.769  0.00  0.00     0.217 HD
ENDBRANCH   6   9
ENDBRANCH   2   3
ENDBRANCH   1   2
BRANCH   1  11
HETATM   11  C           1     -19.979  -8.237  -3.988  0.00  0.00     0.249 C 
HETATM   12  O           1     -18.960  -8.859  -3.803  0.00  0.00    -0.271 OA
HETATM   13  N           1     -20.899  -8.115  -2.982  0.00  0.00    -0.344 N 
HETATM   14  H           1     -21.753  -7.595  -3.138  0.00  0.00     0.163 HD
BRANCH  13  15
HETATM   15  C           1     -20.650  -8.731  -1.693  0.00  0.00     0.189 C 
BRANCH  15  16
HETATM   16  C           1     -21.315 -10.085  -1.646  0.00  0.00     0.197 C 
HETATM   17  O           1     -22.422 -10.258  -2.201  0.00  0.00    -0.646 OA
HETATM   18  O           1     -20.758 -11.034  -1.054  0.00  0.00    -0.646 OA
ENDBRANCH  15  16
BRANCH  15  19
HETATM   19  C           1     -21.219  -7.850  -0.590  0.00  0.00     0.014 C 
HETATM   20  C           1     -22.237  -6.886  -1.184  0.00  0.00     0.012 C 
BRANCH  19  21
HETATM   21  C           1     -21.898  -8.722   0.458  0.00  0.00     0.002 C 
HETATM   22  C           1     -23.303  -8.197   0.723  0.00  0.00     0.005 C 
ENDBRANCH  19  21
ENDBRANCH  15  19
ENDBRANCH  13  15
ENDBRANCH   1  11
BRANCH   1  23
HETATM   23  N           1     -21.263  -8.398  -6.077  0.00  0.00    -0.066 N 
HETATM   24  H           1     -22.215  -8.174  -5.710  0.00  0.00     0.275 HD
HETATM   25  H           1     -21.069  -9.417  -5.947  0.00  0.00     0.275 HD
HETATM   26  H           1     -21.217  -8.162  -7.094  0.00  0.00     0.275 HD
ENDBRANCH   1  23
TORSDOF 9
ENDMDL
MODEL 8
REMARK VINA RESULT:      -6.3      2.180      3.492
REMARK  9 active torsions:
REMARK  status: ('A' for Active; 'I' for Inactive)
REMARK    1  A    between atoms: C_2  and  C_3 
REMARK    2  A    between atoms: C_2  and  C_17 
REMARK    3  A    between atoms: C_3  and  C_4 
REMARK    4  A    between atoms: C_3  and  N_22 
REMARK       I    between atoms: C_4  and  N_5 
REMARK    5  A    between atoms: N_5  and  C_15 
REMARK    6  A    between atoms: C_8  and  C_15 
REMARK    7  A    between atoms: C_9  and  O_11 
REMARK    8  A    between atoms: C_15  and  C_25 
REMARK    9  A    between atoms: C_24  and  C_25 
ROOT
HETATM    1  C           1     -21.405  -6.179  -4.942  0.00  0.00     0.278 C 
ENDROOT
BRANCH   1   2
HETATM    2  C           1     -20.316  -5.313  -5.562  0.00  0.00     0.081 C 
BRANCH   2   3
HETATM    3  C           1     -20.767  -4.827  -6.905  0.00  0.00    -0.056 A 
HETATM    4  C           1     -22.115  -4.548  -7.128  0.00  0.00     0.010 A 
HETATM    5  C           1     -22.535  -4.094  -8.379  0.00  0.00     0.037 A 
HETATM    6  C           1     -21.607  -3.920  -9.405  0.00  0.00     0.065 A 
HETATM    7  C           1     -20.258  -4.198  -9.181  0.00  0.00     0.037 A 
HETATM    8  C           1     -19.838  -4.652  -7.931  0.00  0.00     0.010 A 
BRANCH   6   9
HETATM    9  O           1     -22.015  -3.479 -10.620  0.00  0.00    -0.361 OA
HETATM   10  H           1     -21.234  -3.422 -11.196  0.00  0.00     0.217 HD
ENDBRANCH   6   9
ENDBRANCH   2   3
ENDBRANCH   1   2
BRANCH   1  11
HETATM   11  C           1     -21.092  -7.635  -5.188  0.00  0.00     0.249 C 
HETATM   12  O           1     -21.350  -8.136  -6.256  0.00  0.00    -0.271 OA
HETATM   13  N           1     -20.516  -8.387  -4.200  0.00  0.00    -0.344 N 
HETATM   14  H           1     -20.300  -7.967  -3.305  0.00  0.00     0.163 HD
BRANCH  13  15
HETATM   15  C           1     -20.215  -9.785  -4.436  0.00  0.00     0.189 C 
BRANCH  15  16
HETATM   16  C           1     -20.958 -10.635  -3.434  0.00  0.00     0.197 C 
HETATM   17  O           1     -20.760 -11.868  -3.390  0.00  0.00    -0.646 OA
HETATM   18  O           1     -21.771 -10.105  -2.647  0.00  0.00    -0.646 OA
ENDBRANCH  15  16
BRANCH  15  19
HETATM   19  C           1     -18.718 -10.016  -4.282  0.00  0.00     0.014 C 
HETATM   20  C           1     -18.001  -9.562  -5.547  0.00  0.00     0.012 C 
BRANCH  19  21
HETATM   21  C           1     -18.200  -9.219  -3.092  0.00  0.00     0.002 C 
HETATM   22  C           1     -16.726  -9.534  -2.872  0.00  0.00     0.005 C 
ENDBRANCH  19  21
ENDBRANCH  15  19
ENDBRANCH  13  15
ENDBRANCH   1  11
BRANCH   1  23
HETATM   23  N           1     -21.467  -5.923  -3.466  0.00  0.00    -0.066 N 
HETATM   24  H           1     -20.760  -5.197  -3.209  0.00  0.00     0.275 HD
HETATM   25  H           1     -21.261  -6.809  -2.951  0.00  0.00     0.275 HD
HETATM   26  H           1     -22.422  -5.585  -3.210  0.00  0.00     0.275 HD
ENDBRANCH   1  23
TORSDOF 9
ENDMDL
MODEL 9
REMARK VINA RESULT:      -6.2      2.577      3.419
REMARK  9 active torsions:
REMARK  status: ('A' for Active; 'I' for Inactive)
REMARK    1  A    between atoms: C_2  and  C_3 
REMARK    2  A    between atoms: C_2  and  C_17 
REMARK    3  A    between atoms: C_3  and  C_4 
REMARK    4  A    between atoms: C_3  and  N_22 
REMARK       I    between atoms: C_4  and  N_5 
REMARK    5  A    between atoms: N_5  and  C_15 
REMARK    6  A    between atoms: C_8  and  C_15 
REMARK    7  A    between atoms: C_9  and  O_11 
REMARK    8  A    between atoms: C_15  and  C_25 
REMARK    9  A    between atoms: C_24  and  C_25 
ROOT
HETATM    1  C           1     -20.402  -6.341  -5.377  0.00  0.00     0.278 C 
ENDROOT
BRANCH   1   2
HETATM    2  C           1     -20.571  -4.836  -5.539  0.00  0.00     0.081 C 
BRANCH   2   3
HETATM    3  C           1     -20.948  -4.525  -6.954  0.00  0.00    -0.056 A 
HETATM    4  C           1     -19.955  -4.358  -7.919  0.00  0.00     0.010 A 
HETATM    5  C           1     -20.305  -4.069  -9.238  0.00  0.00     0.037 A 
HETATM    6  C           1     -21.649  -3.946  -9.591  0.00  0.00     0.065 A 
HETATM    7  C           1     -22.642  -4.113  -8.626  0.00  0.00     0.037 A 
HETATM    8  C           1     -22.291  -4.403  -7.307  0.00  0.00     0.010 A 
BRANCH   6   9
HETATM    9  O           1     -21.990  -3.664 -10.872  0.00  0.00    -0.361 OA
HETATM   10  H           1     -21.172  -3.584 -11.390  0.00  0.00     0.217 HD
ENDBRANCH   6   9
ENDBRANCH   2   3
ENDBRANCH   1   2
BRANCH   1  11
HETATM   11  C           1     -21.366  -6.847  -4.331  0.00  0.00     0.249 C 
HETATM   12  O           1     -22.455  -6.337  -4.218  0.00  0.00    -0.271 OA
HETATM   13  N           1     -21.006  -7.882  -3.511  0.00  0.00    -0.344 N 
HETATM   14  H           1     -20.093  -8.308  -3.606  0.00  0.00     0.163 HD
BRANCH  13  15
HETATM   15  C           1     -21.932  -8.367  -2.507  0.00  0.00     0.189 C 
BRANCH  15  16
HETATM   16  C           1     -21.735  -7.593  -1.226  0.00  0.00     0.197 C 
HETATM   17  O           1     -20.775  -7.864  -0.473  0.00  0.00    -0.646 OA
HETATM   18  O           1     -22.531  -6.680  -0.920  0.00  0.00    -0.646 OA
ENDBRANCH  15  16
BRANCH  15  19
HETATM   19  C           1     -21.674  -9.845  -2.249  0.00  0.00     0.014 C 
HETATM   20  C           1     -22.857 -10.445  -1.501  0.00  0.00     0.012 C 
BRANCH  19  21
HETATM   21  C           1     -21.494 -10.569  -3.577  0.00  0.00     0.002 C 
HETATM   22  C           1     -22.724 -11.420  -3.863  0.00  0.00     0.005 C 
ENDBRANCH  19  21
ENDBRANCH  15  19
ENDBRANCH  13  15
ENDBRANCH   1  11
BRANCH   1  23
HETATM   23  N           1     -20.683  -7.019  -6.685  0.00  0.00    -0.066 N 
HETATM   24  H           1     -20.694  -8.054  -6.545  0.00  0.00     0.275 HD
HETATM   25  H           1     -19.939  -6.767  -7.374  0.00  0.00     0.275 HD
HETATM   26  H           1     -21.612  -6.707  -7.047  0.00  0.00     0.275 HD
ENDBRANCH   1  23
TORSDOF 9
ENDMDL
