MODEL 1
REMARK VINA RESULT:      -9.1      0.000      0.000
REMARK  9 active torsions:
REMARK  status: ('A' for Active; 'I' for Inactive)
REMARK    1  A    between atoms: O_3  and  C_27 
REMARK    2  A    between atoms: C_4  and  C_5 
REMARK    3  A    between atoms: C_5  and  C_23 
REMARK    4  A    between atoms: N_7  and  C_8 
REMARK    5  A    between atoms: C_8  and  C_32 
REMARK    6  A    between atoms: C_8  and  C_25 
REMARK    7  A    between atoms: C_10  and  C_25 
REMARK    8  A    between atoms: C_21  and  C_23 
REMARK    9  A    between atoms: C_23  and  N_26 
REMARK       I    between atoms: N_26  and  C_32 
ROOT
HETATM    1  H           1     -19.331  -7.459  -7.254  0.00  0.00     0.163 HD
HETATM    2  N           1     -19.749  -7.061  -6.422  0.00  0.00    -0.344 N 
HETATM    3  O           1     -19.415  -4.877  -6.098  0.00  0.00    -0.271 OA
HETATM    4  C           1     -20.173  -5.759  -6.424  0.00  0.00     0.249 C 
ENDROOT
BRANCH   2   5
HETATM    5  C           1     -19.899  -7.870  -5.228  0.00  0.00     0.190 C 
BRANCH   5   6
HETATM    6  C           1     -21.244  -8.584  -5.265  0.00  0.00     0.077 C 
BRANCH   6   7
HETATM    7  C           1     -21.551  -9.143  -3.910  0.00  0.00    -0.028 A 
HETATM    8  C           1     -21.642 -10.477  -3.586  0.00  0.00     0.096 A 
HETATM    9  N           1     -21.938 -10.564  -2.252  0.00  0.00    -0.365 N 
HETATM   10  H           1     -22.069 -11.462  -1.722  0.00  0.00     0.165 HD
HETATM   11  C           1     -22.041  -9.305  -1.703  0.00  0.00     0.042 A 
HETATM   12  C           1     -22.325  -8.911  -0.391  0.00  0.00     0.030 A 
HETATM   13  C           1     -21.801  -8.391  -2.730  0.00  0.00    -0.002 A 
HETATM   14  C           1     -22.364  -7.538  -0.123  0.00  0.00     0.002 A 
HETATM   15  C           1     -22.127  -6.603  -1.128  0.00  0.00     0.001 A 
HETATM   16  C           1     -21.845  -7.015  -2.435  0.00  0.00     0.014 A 
ENDBRANCH   6   7
ENDBRANCH   5   6
BRANCH   5  17
HETATM   17  C           1     -18.789  -8.890  -5.170  0.00  0.00     0.197 C 
HETATM   18  O           1     -18.240  -9.154  -4.078  0.00  0.00    -0.646 OA
HETATM   19  O           1     -18.419  -9.472  -6.212  0.00  0.00    -0.646 OA
ENDBRANCH   5  17
ENDBRANCH   2   5
BRANCH   4  20
HETATM   20  C           1     -21.586  -5.427  -6.835  0.00  0.00     0.278 C 
BRANCH  20  21
HETATM   21  N           1     -22.504  -5.616  -5.663  0.00  0.00    -0.066 N 
HETATM   22  H           1     -22.455  -4.775  -5.044  0.00  0.00     0.275 HD
HETATM   23  H           1     -23.483  -5.741  -6.005  0.00  0.00     0.275 HD
HETATM   24  H           1     -22.212  -6.462  -5.124  0.00  0.00     0.275 HD
ENDBRANCH  20  21
BRANCH  20  25
HETATM   25  C           1     -21.652  -3.978  -7.301  0.00  0.00     0.081 C 
BRANCH  25  26
HETATM   26  C           1     -21.688  -3.937  -8.798  0.00  0.00    -0.056 A 
HETATM   27  C           1     -20.511  -4.098  -9.528  0.00  0.00     0.010 A 
HETATM   28  C           1     -20.545  -4.059 -10.922  0.00  0.00     0.037 A 
HETATM   29  C           1     -21.755  -3.859 -11.585  0.00  0.00     0.065 A 
HETATM   30  C           1     -22.933  -3.698 -10.855  0.00  0.00     0.037 A 
HETATM   31  C           1     -22.899  -3.737  -9.460  0.00  0.00     0.010 A 
BRANCH  29  32
HETATM   32  O           1     -21.789  -3.822 -12.940  0.00  0.00    -0.361 OA
HETATM   33  H           1     -21.630  -2.905 -13.218  0.00  0.00     0.217 HD
ENDBRANCH  29  32
ENDBRANCH  25  26
ENDBRANCH  20  25
ENDBRANCH   4  20
TORSDOF 9
ENDMDL
MODEL 2
REMARK VINA RESULT:      -9.0      1.779      2.238
REMARK  9 active torsions:
REMARK  status: ('A' for Active; 'I' for Inactive)
REMARK    1  A    between atoms: O_3  and  C_27 
REMARK    2  A    between atoms: C_4  and  C_5 
REMARK    3  A    between atoms: C_5  and  C_23 
REMARK    4  A    between atoms: N_7  and  C_8 
REMARK    5  A    between atoms: C_8  and  C_32 
REMARK    6  A    between atoms: C_8  and  C_25 
REMARK    7  A    between atoms: C_10  and  C_25 
REMARK    8  A    between atoms: C_21  and  C_23 
REMARK    9  A    between atoms: C_23  and  N_26 
REMARK       I    between atoms: N_26  and  C_32 
ROOT
HETATM    1  H           1     -19.953  -7.473  -7.402  0.00  0.00     0.163 HD
HETATM    2  N           1     -20.435  -6.836  -6.781  0.00  0.00    -0.344 N 
HETATM    3  O           1     -19.465  -4.850  -6.460  0.00  0.00    -0.271 OA
HETATM    4  C           1     -20.349  -5.485  -6.985  0.00  0.00     0.249 C 
ENDROOT
BRANCH   2   5
HETATM    5  C           1     -21.217  -7.353  -5.675  0.00  0.00     0.190 C 
BRANCH   5   6
HETATM    6  C           1     -20.292  -8.032  -4.674  0.00  0.00     0.077 C 
BRANCH   6   7
HETATM    7  C           1     -21.079  -8.986  -3.831  0.00  0.00    -0.028 A 
HETATM    8  C           1     -21.583 -10.201  -4.238  0.00  0.00     0.096 A 
HETATM    9  N           1     -22.237 -10.760  -3.173  0.00  0.00    -0.365 N 
HETATM   10  H           1     -22.724 -11.691  -3.188  0.00  0.00     0.165 HD
HETATM   11  C           1     -22.166  -9.927  -2.078  0.00  0.00     0.042 A 
HETATM   12  C           1     -22.683 -10.084  -0.788  0.00  0.00     0.030 A 
HETATM   13  C           1     -21.440  -8.801  -2.469  0.00  0.00    -0.002 A 
HETATM   14  C           1     -22.449  -9.056   0.131  0.00  0.00     0.002 A 
HETATM   15  C           1     -21.727  -7.920  -0.230  0.00  0.00     0.001 A 
HETATM   16  C           1     -21.218  -7.780  -1.526  0.00  0.00     0.014 A 
ENDBRANCH   6   7
ENDBRANCH   5   6
BRANCH   5  17
HETATM   17  C           1     -21.944  -6.217  -5.000  0.00  0.00     0.197 C 
HETATM   18  O           1     -21.388  -5.579  -4.079  0.00  0.00    -0.646 OA
HETATM   19  O           1     -23.101  -5.912  -5.361  0.00  0.00    -0.646 OA
ENDBRANCH   5  17
ENDBRANCH   2   5
BRANCH   4  20
HETATM   20  C           1     -21.357  -4.789  -7.868  0.00  0.00     0.278 C 
BRANCH  20  21
HETATM   21  N           1     -21.794  -3.511  -7.214  0.00  0.00    -0.066 N 
HETATM   22  H           1     -22.445  -3.729  -6.426  0.00  0.00     0.275 HD
HETATM   23  H           1     -20.957  -3.006  -6.846  0.00  0.00     0.275 HD
HETATM   24  H           1     -22.285  -2.911  -7.915  0.00  0.00     0.275 HD
ENDBRANCH  20  21
BRANCH  20  25
HETATM   25  C           1     -20.720  -4.476  -9.216  0.00  0.00     0.081 C 
BRANCH  25  26
HETATM   26  C           1     -21.787  -4.086 -10.192  0.00  0.00    -0.056 A 
HETATM   27  C           1     -21.513  -3.142 -11.182  0.00  0.00     0.010 A 
HETATM   28  C           1     -22.507  -2.778 -12.092  0.00  0.00     0.037 A 
HETATM   29  C           1     -23.772  -3.358 -12.011  0.00  0.00     0.065 A 
HETATM   30  C           1     -24.046  -4.302 -11.021  0.00  0.00     0.037 A 
HETATM   31  C           1     -23.052  -4.666 -10.111  0.00  0.00     0.010 A 
BRANCH  29  32
HETATM   32  O           1     -24.738  -3.005 -12.894  0.00  0.00    -0.361 OA
HETATM   33  H           1     -25.420  -2.510 -12.412  0.00  0.00     0.217 HD
ENDBRANCH  29  32
ENDBRANCH  25  26
ENDBRANCH  20  25
ENDBRANCH   4  20
TORSDOF 9
ENDMDL
MODEL 3
REMARK VINA RESULT:      -8.9      1.441      1.980
REMARK  9 active torsions:
REMARK  status: ('A' for Active; 'I' for Inactive)
REMARK    1  A    between atoms: O_3  and  C_27 
REMARK    2  A    between atoms: C_4  and  C_5 
REMARK    3  A    between atoms: C_5  and  C_23 
REMARK    4  A    between atoms: N_7  and  C_8 
REMARK    5  A    between atoms: C_8  and  C_32 
REMARK    6  A    between atoms: C_8  and  C_25 
REMARK    7  A    between atoms: C_10  and  C_25 
REMARK    8  A    between atoms: C_21  and  C_23 
REMARK    9  A    between atoms: C_23  and  N_26 
REMARK       I    between atoms: N_26  and  C_32 
ROOT
HETATM    1  H           1     -21.498  -7.930  -6.705  0.00  0.00     0.163 HD
HETATM    2  N           1     -20.782  -7.432  -6.192  0.00  0.00    -0.344 N 
HETATM    3  O           1     -19.154  -6.512  -7.413  0.00  0.00    -0.271 OA
HETATM    4  C           1     -20.158  -6.354  -6.760  0.00  0.00     0.249 C 
ENDROOT
BRANCH   2   5
HETATM    5  C           1     -20.417  -7.858  -4.855  0.00  0.00     0.190 C 
BRANCH   5   6
HETATM    6  C           1     -21.634  -8.462  -4.166  0.00  0.00     0.077 C 
BRANCH   6   7
HETATM    7  C           1     -21.781  -7.869  -2.799  0.00  0.00    -0.028 A 
HETATM    8  C           1     -22.190  -6.586  -2.512  0.00  0.00     0.096 A 
HETATM    9  N           1     -22.191  -6.443  -1.150  0.00  0.00    -0.365 N 
HETATM   10  H           1     -22.460  -5.566  -0.638  0.00  0.00     0.165 HD
HETATM   11  C           1     -21.790  -7.614  -0.547  0.00  0.00     0.042 A 
HETATM   12  C           1     -21.643  -7.929   0.809  0.00  0.00     0.030 A 
HETATM   13  C           1     -21.525  -8.530  -1.566  0.00  0.00    -0.002 A 
HETATM   14  C           1     -21.212  -9.220   1.129  0.00  0.00     0.002 A 
HETATM   15  C           1     -20.941 -10.156   0.132  0.00  0.00     0.001 A 
HETATM   16  C           1     -21.093  -9.823  -1.219  0.00  0.00     0.014 A 
ENDBRANCH   6   7
ENDBRANCH   5   6
BRANCH   5  17
HETATM   17  C           1     -19.321  -8.892  -4.939  0.00  0.00     0.197 C 
HETATM   18  O           1     -18.504  -9.013  -4.001  0.00  0.00    -0.646 OA
HETATM   19  O           1     -19.231  -9.627  -5.946  0.00  0.00    -0.646 OA
ENDBRANCH   5  17
ENDBRANCH   2   5
BRANCH   4  20
HETATM   20  C           1     -20.726  -4.968  -6.572  0.00  0.00     0.278 C 
BRANCH  20  21
HETATM   21  N           1     -20.301  -4.432  -5.237  0.00  0.00    -0.066 N 
HETATM   22  H           1     -19.685  -3.599  -5.376  0.00  0.00     0.275 HD
HETATM   23  H           1     -21.146  -4.153  -4.690  0.00  0.00     0.275 HD
HETATM   24  H           1     -19.776  -5.170  -4.716  0.00  0.00     0.275 HD
ENDBRANCH  20  21
BRANCH  20  25
HETATM   25  C           1     -20.206  -4.053  -7.674  0.00  0.00     0.081 C 
BRANCH  25  26
HETATM   26  C           1     -21.064  -4.201  -8.892  0.00  0.00    -0.056 A 
HETATM   27  C           1     -20.476  -4.272 -10.154  0.00  0.00     0.010 A 
HETATM   28  C           1     -21.276  -4.409 -11.289  0.00  0.00     0.037 A 
HETATM   29  C           1     -22.662  -4.475 -11.161  0.00  0.00     0.065 A 
HETATM   30  C           1     -23.251  -4.404  -9.898  0.00  0.00     0.037 A 
HETATM   31  C           1     -22.451  -4.267  -8.763  0.00  0.00     0.010 A 
BRANCH  29  32
HETATM   32  O           1     -23.440  -4.609 -12.263  0.00  0.00    -0.361 OA
HETATM   33  H           1     -22.894  -4.412 -13.042  0.00  0.00     0.217 HD
ENDBRANCH  29  32
ENDBRANCH  25  26
ENDBRANCH  20  25
ENDBRANCH   4  20
TORSDOF 9
ENDMDL
MODEL 4
REMARK VINA RESULT:      -8.8      1.714      2.507
REMARK  9 active torsions:
REMARK  status: ('A' for Active; 'I' for Inactive)
REMARK    1  A    between atoms: O_3  and  C_27 
REMARK    2  A    between atoms: C_4  and  C_5 
REMARK    3  A    between atoms: C_5  and  C_23 
REMARK    4  A    between atoms: N_7  and  C_8 
REMARK    5  A    between atoms: C_8  and  C_32 
REMARK    6  A    between atoms: C_8  and  C_25 
REMARK    7  A    between atoms: C_10  and  C_25 
REMARK    8  A    between atoms: C_21  and  C_23 
REMARK    9  A    between atoms: C_23  and  N_26 
REMARK       I    between atoms: N_26  and  C_32 
ROOT
HETATM    1  H           1     -19.617  -7.380  -5.615  0.00  0.00     0.163 HD
HETATM    2  N           1     -20.404  -6.901  -5.194  0.00  0.00    -0.344 N 
HETATM    3  O           1     -20.173  -4.701  -4.893  0.00  0.00    -0.271 OA
HETATM    4  C           1     -20.672  -5.601  -5.527  0.00  0.00     0.249 C 
ENDROOT
BRANCH   2   5
HETATM    5  C           1     -21.247  -7.593  -4.239  0.00  0.00     0.190 C 
BRANCH   5   6
HETATM    6  C           1     -20.499  -8.796  -3.680  0.00  0.00     0.077 C 
BRANCH   6   7
HETATM    7  C           1     -21.467  -9.905  -3.405  0.00  0.00    -0.028 A 
HETATM    8  C           1     -21.789 -10.931  -4.263  0.00  0.00     0.096 A 
HETATM    9  N           1     -22.708 -11.729  -3.634  0.00  0.00    -0.365 N 
HETATM   10  H           1     -23.138 -12.593  -4.049  0.00  0.00     0.165 HD
HETATM   11  C           1     -22.988 -11.236  -2.378  0.00  0.00     0.042 A 
HETATM   12  C           1     -23.854 -11.717  -1.391  0.00  0.00     0.030 A 
HETATM   13  C           1     -22.217 -10.085  -2.210  0.00  0.00    -0.002 A 
HETATM   14  C           1     -23.933 -10.996  -0.195  0.00  0.00     0.002 A 
HETATM   15  C           1     -23.175  -9.844   0.002  0.00  0.00     0.001 A 
HETATM   16  C           1     -22.314  -9.377  -0.997  0.00  0.00     0.014 A 
ENDBRANCH   6   7
ENDBRANCH   5   6
BRANCH   5  17
HETATM   17  C           1     -21.605  -6.655  -3.113  0.00  0.00     0.197 C 
HETATM   18  O           1     -20.810  -6.487  -2.164  0.00  0.00    -0.646 OA
HETATM   19  O           1     -22.696  -6.045  -3.131  0.00  0.00    -0.646 OA
ENDBRANCH   5  17
ENDBRANCH   2   5
BRANCH   4  20
HETATM   20  C           1     -21.588  -5.291  -6.685  0.00  0.00     0.278 C 
BRANCH  20  21
HETATM   21  N           1     -23.013  -5.326  -6.217  0.00  0.00    -0.066 N 
HETATM   22  H           1     -23.209  -6.249  -5.767  0.00  0.00     0.275 HD
HETATM   23  H           1     -23.169  -4.560  -5.524  0.00  0.00     0.275 HD
HETATM   24  H           1     -23.652  -5.194  -7.033  0.00  0.00     0.275 HD
ENDBRANCH  20  21
BRANCH  20  25
HETATM   25  C           1     -21.268  -3.905  -7.230  0.00  0.00     0.081 C 
BRANCH  25  26
HETATM   26  C           1     -21.418  -3.907  -8.720  0.00  0.00    -0.056 A 
HETATM   27  C           1     -22.654  -3.615  -9.296  0.00  0.00     0.010 A 
HETATM   28  C           1     -22.794  -3.618 -10.684  0.00  0.00     0.037 A 
HETATM   29  C           1     -21.698  -3.912 -11.495  0.00  0.00     0.065 A 
HETATM   30  C           1     -20.462  -4.204 -10.918  0.00  0.00     0.037 A 
HETATM   31  C           1     -20.322  -4.201  -9.530  0.00  0.00     0.010 A 
BRANCH  29  32
HETATM   32  O           1     -21.834  -3.914 -12.843  0.00  0.00    -0.361 OA
HETATM   33  H           1     -22.505  -4.576 -13.077  0.00  0.00     0.217 HD
ENDBRANCH  29  32
ENDBRANCH  25  26
ENDBRANCH  20  25
ENDBRANCH   4  20
TORSDOF 9
ENDMDL
MODEL 5
REMARK VINA RESULT:      -8.4      2.610      4.324
REMARK  9 active torsions:
REMARK  status: ('A' for Active; 'I' for Inactive)
REMARK    1  A    between atoms: O_3  and  C_27 
REMARK    2  A    between atoms: C_4  and  C_5 
REMARK    3  A    between atoms: C_5  and  C_23 
REMARK    4  A    between atoms: N_7  and  C_8 
REMARK    5  A    between atoms: C_8  and  C_32 
REMARK    6  A    between atoms: C_8  and  C_25 
REMARK    7  A    between atoms: C_10  and  C_25 
REMARK    8  A    between atoms: C_21  and  C_23 
REMARK    9  A    between atoms: C_23  and  N_26 
REMARK       I    between atoms: N_26  and  C_32 
ROOT
HETATM    1  H           1     -21.341  -5.652  -2.441  0.00  0.00     0.163 HD
HETATM    2  N           1     -21.473  -6.452  -3.047  0.00  0.00    -0.344 N 
HETATM    3  O           1     -22.852  -6.158  -4.779  0.00  0.00    -0.271 OA
HETATM    4  C           1     -21.717  -6.266  -4.382  0.00  0.00     0.249 C 
ENDROOT
BRANCH   2   5
HETATM    5  C           1     -21.405  -7.794  -2.503  0.00  0.00     0.190 C 
BRANCH   5   6
HETATM    6  C           1     -19.950  -8.167  -2.254  0.00  0.00     0.077 C 
BRANCH   6   7
HETATM    7  C           1     -19.494  -9.135  -3.301  0.00  0.00    -0.028 A 
HETATM    8  C           1     -20.285  -9.719  -4.263  0.00  0.00     0.096 A 
HETATM    9  N           1     -19.488 -10.536  -5.020  0.00  0.00    -0.365 N 
HETATM   10  H           1     -19.820 -11.115  -5.833  0.00  0.00     0.165 HD
HETATM   11  C           1     -18.189 -10.492  -4.564  0.00  0.00     0.042 A 
HETATM   12  C           1     -17.046 -11.154  -5.025  0.00  0.00     0.030 A 
HETATM   13  C           1     -18.167  -9.614  -3.480  0.00  0.00    -0.002 A 
HETATM   14  C           1     -15.844 -10.909  -4.353  0.00  0.00     0.002 A 
HETATM   15  C           1     -15.791 -10.037  -3.268  0.00  0.00     0.001 A 
HETATM   16  C           1     -16.945  -9.383  -2.821  0.00  0.00     0.014 A 
ENDBRANCH   6   7
ENDBRANCH   5   6
BRANCH   5  17
HETATM   17  C           1     -22.169  -7.848  -1.203  0.00  0.00     0.197 C 
HETATM   18  O           1     -22.265  -8.928  -0.580  0.00  0.00    -0.646 OA
HETATM   19  O           1     -22.705  -6.814  -0.749  0.00  0.00    -0.646 OA
ENDBRANCH   5  17
ENDBRANCH   2   5
BRANCH   4  20
HETATM   20  C           1     -20.566  -6.195  -5.356  0.00  0.00     0.278 C 
BRANCH  20  21
HETATM   21  N           1     -20.918  -6.955  -6.600  0.00  0.00    -0.066 N 
HETATM   22  H           1     -21.636  -6.422  -7.142  0.00  0.00     0.275 HD
HETATM   23  H           1     -20.062  -7.080  -7.185  0.00  0.00     0.275 HD
HETATM   24  H           1     -21.303  -7.891  -6.340  0.00  0.00     0.275 HD
ENDBRANCH  20  21
BRANCH  20  25
HETATM   25  C           1     -20.292  -4.739  -5.712  0.00  0.00     0.081 C 
BRANCH  25  26
HETATM   26  C           1     -20.717  -4.483  -7.125  0.00  0.00    -0.056 A 
HETATM   27  C           1     -22.029  -4.095  -7.398  0.00  0.00     0.010 A 
HETATM   28  C           1     -22.425  -3.857  -8.715  0.00  0.00     0.037 A 
HETATM   29  C           1     -21.510  -4.006  -9.756  0.00  0.00     0.065 A 
HETATM   30  C           1     -20.199  -4.393  -9.482  0.00  0.00     0.037 A 
HETATM   31  C           1     -19.802  -4.632  -8.166  0.00  0.00     0.010 A 
BRANCH  29  32
HETATM   32  O           1     -21.895  -3.774 -11.035  0.00  0.00    -0.361 OA
HETATM   33  H           1     -21.299  -4.268 -11.622  0.00  0.00     0.217 HD
ENDBRANCH  29  32
ENDBRANCH  25  26
ENDBRANCH  20  25
ENDBRANCH   4  20
TORSDOF 9
ENDMDL
MODEL 6
REMARK VINA RESULT:      -8.4      2.410      8.797
REMARK  9 active torsions:
REMARK  status: ('A' for Active; 'I' for Inactive)
REMARK    1  A    between atoms: O_3  and  C_27 
REMARK    2  A    between atoms: C_4  and  C_5 
REMARK    3  A    between atoms: C_5  and  C_23 
REMARK    4  A    between atoms: N_7  and  C_8 
REMARK    5  A    between atoms: C_8  and  C_32 
REMARK    6  A    between atoms: C_8  and  C_25 
REMARK    7  A    between atoms: C_10  and  C_25 
REMARK    8  A    between atoms: C_21  and  C_23 
REMARK    9  A    between atoms: C_23  and  N_26 
REMARK       I    between atoms: N_26  and  C_32 
ROOT
HETATM    1  H           1     -23.455  -6.492  -4.151  0.00  0.00     0.163 HD
HETATM    2  N           1     -22.462  -6.648  -4.277  0.00  0.00    -0.344 N 
HETATM    3  O           1     -21.119  -5.728  -2.749  0.00  0.00    -0.271 OA
HETATM    4  C           1     -21.639  -6.727  -3.186  0.00  0.00     0.249 C 
ENDROOT
BRANCH   2   5
HETATM    5  C           1     -21.913  -6.790  -5.611  0.00  0.00     0.190 C 
BRANCH   5   6
HETATM    6  C           1     -21.245  -5.485  -6.025  0.00  0.00     0.077 C 
BRANCH   6   7
HETATM    7  C           1     -22.007  -4.869  -7.157  0.00  0.00    -0.028 A 
HETATM    8  C           1     -23.319  -4.456  -7.121  0.00  0.00     0.096 A 
HETATM    9  N           1     -23.632  -3.952  -8.356  0.00  0.00    -0.365 N 
HETATM   10  H           1     -24.570  -3.561  -8.625  0.00  0.00     0.165 HD
HETATM   11  C           1     -22.543  -4.031  -9.194  0.00  0.00     0.042 A 
HETATM   12  C           1     -22.400  -3.641 -10.530  0.00  0.00     0.030 A 
HETATM   13  C           1     -21.504  -4.607  -8.461  0.00  0.00    -0.002 A 
HETATM   14  C           1     -21.155  -3.848 -11.133  0.00  0.00     0.002 A 
HETATM   15  C           1     -20.099  -4.419 -10.426  0.00  0.00     0.001 A 
HETATM   16  C           1     -20.260  -4.803  -9.090  0.00  0.00     0.014 A 
ENDBRANCH   6   7
ENDBRANCH   5   6
BRANCH   5  17
HETATM   17  C           1     -20.894  -7.902  -5.619  0.00  0.00     0.197 C 
HETATM   18  O           1     -19.674  -7.631  -5.655  0.00  0.00    -0.646 OA
HETATM   19  O           1     -21.269  -9.094  -5.589  0.00  0.00    -0.646 OA
ENDBRANCH   5  17
ENDBRANCH   2   5
BRANCH   4  20
HETATM   20  C           1     -21.382  -8.061  -2.529  0.00  0.00     0.278 C 
BRANCH  20  21
HETATM   21  N           1     -19.939  -8.435  -2.705  0.00  0.00    -0.066 N 
HETATM   22  H           1     -19.834  -9.017  -3.567  0.00  0.00     0.275 HD
HETATM   23  H           1     -19.365  -7.567  -2.799  0.00  0.00     0.275 HD
HETATM   24  H           1     -19.616  -8.979  -1.875  0.00  0.00     0.275 HD
ENDBRANCH  20  21
BRANCH  20  25
HETATM   25  C           1     -21.702  -7.965  -1.043  0.00  0.00     0.081 C 
BRANCH  25  26
HETATM   26  C           1     -21.921  -9.339  -0.489  0.00  0.00    -0.056 A 
HETATM   27  C           1     -20.907  -9.970   0.233  0.00  0.00     0.010 A 
HETATM   28  C           1     -21.111 -11.250   0.748  0.00  0.00     0.037 A 
HETATM   29  C           1     -22.328 -11.899   0.541  0.00  0.00     0.065 A 
HETATM   30  C           1     -23.341 -11.269  -0.181  0.00  0.00     0.037 A 
HETATM   31  C           1     -23.137  -9.988  -0.696  0.00  0.00     0.010 A 
BRANCH  29  32
HETATM   32  O           1     -22.526 -13.143   1.041  0.00  0.00    -0.361 OA
HETATM   33  H           1     -22.796 -13.722   0.309  0.00  0.00     0.217 HD
ENDBRANCH  29  32
ENDBRANCH  25  26
ENDBRANCH  20  25
ENDBRANCH   4  20
TORSDOF 9
ENDMDL
MODEL 7
REMARK VINA RESULT:      -8.3      1.688      2.290
REMARK  9 active torsions:
REMARK  status: ('A' for Active; 'I' for Inactive)
REMARK    1  A    between atoms: O_3  and  C_27 
REMARK    2  A    between atoms: C_4  and  C_5 
REMARK    3  A    between atoms: C_5  and  C_23 
REMARK    4  A    between atoms: N_7  and  C_8 
REMARK    5  A    between atoms: C_8  and  C_32 
REMARK    6  A    between atoms: C_8  and  C_25 
REMARK    7  A    between atoms: C_10  and  C_25 
REMARK    8  A    between atoms: C_21  and  C_23 
REMARK    9  A    between atoms: C_23  and  N_26 
REMARK       I    between atoms: N_26  and  C_32 
ROOT
HETATM    1  H           1     -21.439  -8.989  -3.720  0.00  0.00     0.163 HD
HETATM    2  N           1     -20.802  -8.492  -4.330  0.00  0.00    -0.344 N 
HETATM    3  O           1     -21.531  -8.093  -6.402  0.00  0.00    -0.271 OA
HETATM    4  C           1     -21.293  -7.660  -5.300  0.00  0.00     0.249 C 
ENDROOT
BRANCH   2   5
HETATM    5  C           1     -19.370  -8.659  -4.175  0.00  0.00     0.190 C 
BRANCH   5   6
HETATM    6  C           1     -19.079  -9.321  -2.835  0.00  0.00     0.077 C 
BRANCH   6   7
HETATM    7  C           1     -20.345  -9.882  -2.267  0.00  0.00    -0.028 A 
HETATM    8  C           1     -20.886 -11.115  -2.553  0.00  0.00     0.096 A 
HETATM    9  N           1     -22.042 -11.243  -1.830  0.00  0.00    -0.365 N 
HETATM   10  H           1     -22.671 -12.084  -1.847  0.00  0.00     0.165 HD
HETATM   11  C           1     -22.261 -10.111  -1.077  0.00  0.00     0.042 A 
HETATM   12  C           1     -23.303  -9.798  -0.197  0.00  0.00     0.030 A 
HETATM   13  C           1     -21.204  -9.237  -1.335  0.00  0.00    -0.002 A 
HETATM   14  C           1     -23.260  -8.552   0.437  0.00  0.00     0.002 A 
HETATM   15  C           1     -22.217  -7.660   0.200  0.00  0.00     0.001 A 
HETATM   16  C           1     -21.184  -7.989  -0.684  0.00  0.00     0.014 A 
ENDBRANCH   6   7
ENDBRANCH   5   6
BRANCH   5  17
HETATM   17  C           1     -18.843  -9.528  -5.291  0.00  0.00     0.197 C 
HETATM   18  O           1     -19.026 -10.764  -5.259  0.00  0.00    -0.646 OA
HETATM   19  O           1     -18.225  -9.012  -6.247  0.00  0.00    -0.646 OA
ENDBRANCH   5  17
ENDBRANCH   2   5
BRANCH   4  20
HETATM   20  C           1     -21.538  -6.203  -4.991  0.00  0.00     0.278 C 
BRANCH  20  21
HETATM   21  N           1     -21.575  -6.008  -3.504  0.00  0.00    -0.066 N 
HETATM   22  H           1     -22.503  -5.615  -3.227  0.00  0.00     0.275 HD
HETATM   23  H           1     -21.430  -6.927  -3.030  0.00  0.00     0.275 HD
HETATM   24  H           1     -20.818  -5.346  -3.220  0.00  0.00     0.275 HD
ENDBRANCH  20  21
BRANCH  20  25
HETATM   25  C           1     -20.415  -5.362  -5.585  0.00  0.00     0.081 C 
BRANCH  25  26
HETATM   26  C           1     -20.819  -4.877  -6.943  0.00  0.00    -0.056 A 
HETATM   27  C           1     -22.131  -4.462  -7.173  0.00  0.00     0.010 A 
HETATM   28  C           1     -22.507  -4.011  -8.439  0.00  0.00     0.037 A 
HETATM   29  C           1     -21.572  -3.976  -9.472  0.00  0.00     0.065 A 
HETATM   30  C           1     -20.260  -4.391  -9.242  0.00  0.00     0.037 A 
HETATM   31  C           1     -19.884  -4.842  -7.976  0.00  0.00     0.010 A 
BRANCH  29  32
HETATM   32  O           1     -21.936  -3.537 -10.702  0.00  0.00    -0.361 OA
HETATM   33  H           1     -21.778  -2.580 -10.739  0.00  0.00     0.217 HD
ENDBRANCH  29  32
ENDBRANCH  25  26
ENDBRANCH  20  25
ENDBRANCH   4  20
TORSDOF 9
ENDMDL
MODEL 8
REMARK VINA RESULT:      -8.0      4.246      7.902
REMARK  9 active torsions:
REMARK  status: ('A' for Active; 'I' for Inactive)
REMARK    1  A    between atoms: O_3  and  C_27 
REMARK    2  A    between atoms: C_4  and  C_5 
REMARK    3  A    between atoms: C_5  and  C_23 
REMARK    4  A    between atoms: N_7  and  C_8 
REMARK    5  A    between atoms: C_8  and  C_32 
REMARK    6  A    between atoms: C_8  and  C_25 
REMARK    7  A    between atoms: C_10  and  C_25 
REMARK    8  A    between atoms: C_21  and  C_23 
REMARK    9  A    between atoms: C_23  and  N_26 
REMARK       I    between atoms: N_26  and  C_32 
ROOT
HETATM    1  H           1     -19.268  -7.597  -4.628  0.00  0.00     0.163 HD
HETATM    2  N           1     -19.985  -8.264  -4.375  0.00  0.00    -0.344 N 
HETATM    3  O           1     -20.535  -9.760  -5.940  0.00  0.00    -0.271 OA
HETATM    4  C           1     -19.961  -9.528  -4.902  0.00  0.00     0.249 C 
ENDROOT
BRANCH   2   5
HETATM    5  C           1     -21.039  -7.884  -3.455  0.00  0.00     0.190 C 
BRANCH   5   6
HETATM    6  C           1     -20.522  -7.979  -2.025  0.00  0.00     0.077 C 
BRANCH   6   7
HETATM    7  C           1     -21.623  -8.445  -1.124  0.00  0.00    -0.028 A 
HETATM    8  C           1     -22.153  -7.745  -0.064  0.00  0.00     0.096 A 
HETATM    9  N           1     -23.135  -8.518   0.497  0.00  0.00    -0.365 N 
HETATM   10  H           1     -23.717  -8.241   1.327  0.00  0.00     0.165 HD
HETATM   11  C           1     -23.252  -9.709  -0.183  0.00  0.00     0.042 A 
HETATM   12  C           1     -24.112 -10.792   0.031  0.00  0.00     0.030 A 
HETATM   13  C           1     -22.308  -9.688  -1.211  0.00  0.00    -0.002 A 
HETATM   14  C           1     -24.001 -11.886  -0.835  0.00  0.00     0.002 A 
HETATM   15  C           1     -23.069 -11.892  -1.870  0.00  0.00     0.001 A 
HETATM   16  C           1     -22.217 -10.800  -2.069  0.00  0.00     0.014 A 
ENDBRANCH   6   7
ENDBRANCH   5   6
BRANCH   5  17
HETATM   17  C           1     -21.468  -6.466  -3.741  0.00  0.00     0.197 C 
HETATM   18  O           1     -20.883  -5.803  -4.624  0.00  0.00    -0.646 OA
HETATM   19  O           1     -22.410  -5.956  -3.098  0.00  0.00    -0.646 OA
ENDBRANCH   5  17
ENDBRANCH   2   5
BRANCH   4  20
HETATM   20  C           1     -19.215 -10.629  -4.189  0.00  0.00     0.278 C 
BRANCH  20  21
HETATM   21  N           1     -18.910 -11.733  -5.158  0.00  0.00    -0.066 N 
HETATM   22  H           1     -19.269 -12.638  -4.779  0.00  0.00     0.275 HD
HETATM   23  H           1     -19.372 -11.530  -6.073  0.00  0.00     0.275 HD
HETATM   24  H           1     -17.876 -11.800  -5.297  0.00  0.00     0.275 HD
ENDBRANCH  20  21
BRANCH  20  25
HETATM   25  C           1     -17.913 -10.077  -3.624  0.00  0.00     0.081 C 
BRANCH  25  26
HETATM   26  C           1     -17.613 -10.746  -2.318  0.00  0.00    -0.056 A 
HETATM   27  C           1     -16.289 -10.936  -1.921  0.00  0.00     0.010 A 
HETATM   28  C           1     -16.010 -11.560  -0.704  0.00  0.00     0.037 A 
HETATM   29  C           1     -17.053 -11.991   0.114  0.00  0.00     0.065 A 
HETATM   30  C           1     -18.377 -11.801  -0.283  0.00  0.00     0.037 A 
HETATM   31  C           1     -18.656 -11.177  -1.500  0.00  0.00     0.010 A 
BRANCH  29  32
HETATM   32  O           1     -16.782 -12.597   1.296  0.00  0.00    -0.361 OA
HETATM   33  H           1     -16.881 -13.555   1.172  0.00  0.00     0.217 HD
ENDBRANCH  29  32
ENDBRANCH  25  26
ENDBRANCH  20  25
ENDBRANCH   4  20
TORSDOF 9
ENDMDL
MODEL 9
REMARK VINA RESULT:      -7.9      4.959      7.081
REMARK  9 active torsions:
REMARK  status: ('A' for Active; 'I' for Inactive)
REMARK    1  A    between atoms: O_3  and  C_27 
REMARK    2  A    between atoms: C_4  and  C_5 
REMARK    3  A    between atoms: C_5  and  C_23 
REMARK    4  A    between atoms: N_7  and  C_8 
REMARK    5  A    between atoms: C_8  and  C_32 
REMARK    6  A    between atoms: C_8  and  C_25 
REMARK    7  A    between atoms: C_10  and  C_25 
REMARK    8  A    between atoms: C_21  and  C_23 
REMARK    9  A    between atoms: C_23  and  N_26 
REMARK       I    between atoms: N_26  and  C_32 
ROOT
HETATM    1  H           1     -17.796 -11.857  -4.435  0.00  0.00     0.163 HD
HETATM    2  N           1     -18.258 -10.988  -4.669  0.00  0.00    -0.344 N 
HETATM    3  O           1     -18.788 -10.702  -6.820  0.00  0.00    -0.271 OA
HETATM    4  C           1     -19.162 -10.949  -5.698  0.00  0.00     0.249 C 
ENDROOT
BRANCH   2   5
HETATM    5  C           1     -17.966  -9.785  -3.916  0.00  0.00     0.190 C 
BRANCH   5   6
HETATM    6  C           1     -18.630  -9.869  -2.548  0.00  0.00     0.077 C 
BRANCH   6   7
HETATM    7  C           1     -19.770  -8.901  -2.484  0.00  0.00    -0.028 A 
HETATM    8  C           1     -20.204  -8.090  -3.509  0.00  0.00     0.096 A 
HETATM    9  N           1     -21.265  -7.361  -3.044  0.00  0.00    -0.365 N 
HETATM   10  H           1     -21.802  -6.655  -3.608  0.00  0.00     0.165 HD
HETATM   11  C           1     -21.529  -7.685  -1.732  0.00  0.00     0.042 A 
HETATM   12  C           1     -22.510  -7.199  -0.860  0.00  0.00     0.030 A 
HETATM   13  C           1     -20.599  -8.655  -1.356  0.00  0.00    -0.002 A 
HETATM   14  C           1     -22.537  -7.722   0.437  0.00  0.00     0.002 A 
HETATM   15  C           1     -21.622  -8.692   0.840  0.00  0.00     0.001 A 
HETATM   16  C           1     -20.648  -9.166  -0.045  0.00  0.00     0.014 A 
ENDBRANCH   6   7
ENDBRANCH   5   6
BRANCH   5  17
HETATM   17  C           1     -16.473  -9.650  -3.744  0.00  0.00     0.197 C 
HETATM   18  O           1     -15.713  -9.829  -4.721  0.00  0.00    -0.646 OA
HETATM   19  O           1     -15.996  -9.360  -2.626  0.00  0.00    -0.646 OA
ENDBRANCH   5  17
ENDBRANCH   2   5
BRANCH   4  20
HETATM   20  C           1     -20.623 -11.217  -5.430  0.00  0.00     0.278 C 
BRANCH  20  21
HETATM   21  N           1     -21.328 -11.475  -6.728  0.00  0.00    -0.066 N 
HETATM   22  H           1     -20.709 -12.036  -7.356  0.00  0.00     0.275 HD
HETATM   23  H           1     -22.211 -12.003  -6.545  0.00  0.00     0.275 HD
HETATM   24  H           1     -21.556 -10.564  -7.188  0.00  0.00     0.275 HD
ENDBRANCH  20  21
BRANCH  20  25
HETATM   25  C           1     -20.758 -12.437  -4.528  0.00  0.00     0.081 C 
BRANCH  25  26
HETATM   26  C           1     -21.608 -12.091  -3.345  0.00  0.00    -0.056 A 
HETATM   27  C           1     -21.398 -12.734  -2.125  0.00  0.00     0.010 A 
HETATM   28  C           1     -22.189 -12.412  -1.022  0.00  0.00     0.037 A 
HETATM   29  C           1     -23.190 -11.448  -1.140  0.00  0.00     0.065 A 
HETATM   30  C           1     -23.400 -10.805  -2.360  0.00  0.00     0.037 A 
HETATM   31  C           1     -22.608 -11.127  -3.463  0.00  0.00     0.010 A 
BRANCH  29  32
HETATM   32  O           1     -23.959 -11.134  -0.069  0.00  0.00    -0.361 OA
HETATM   33  H           1     -23.499 -10.449   0.442  0.00  0.00     0.217 HD
ENDBRANCH  29  32
ENDBRANCH  25  26
ENDBRANCH  20  25
ENDBRANCH   4  20
TORSDOF 9
ENDMDL
