MODEL 1
REMARK VINA RESULT:      -7.9      0.000      0.000
REMARK  10 active torsions:
REMARK  status: ('A' for Active; 'I' for Inactive)
REMARK    1  A    between atoms: O_3  and  P_4 
REMARK    2  A    between atoms: P_4  and  O_5 
REMARK    3  A    between atoms: O_5  and  C_6 
REMARK    4  A    between atoms: N_8  and  C_16 
REMARK    5  A    between atoms: C_9  and  C_17 
REMARK    6  A    between atoms: C_9  and  C_26 
REMARK    7  A    between atoms: C_9  and  N_28 
REMARK    8  A    between atoms: C_16  and  C_23 
REMARK    9  A    between atoms: C_16  and  C_24 
REMARK       I    between atoms: C_23  and  N_28 
REMARK   10  A    between atoms: C_25  and  C_26 
ROOT
HETATM    1  C           1     -21.579  -5.531  -6.658  0.00  0.00     0.189 C 
ENDROOT
BRANCH   1   2
HETATM    2  C           1     -20.092  -5.592  -6.410  0.00  0.00     0.197 C 
HETATM    3  O           1     -19.451  -6.624  -6.707  0.00  0.00    -0.646 OA
HETATM    4  O           1     -19.501  -4.612  -5.908  0.00  0.00    -0.646 OA
ENDBRANCH   1   2
BRANCH   1   5
HETATM    5  C           1     -21.959  -4.134  -7.131  0.00  0.00     0.074 C 
BRANCH   5   6
HETATM    6  C           1     -22.416  -4.195  -8.555  0.00  0.00    -0.056 A 
HETATM    7  C           1     -21.483  -4.354  -9.580  0.00  0.00     0.010 A 
HETATM    8  C           1     -21.907  -4.409 -10.907  0.00  0.00     0.038 A 
HETATM    9  C           1     -23.265  -4.307 -11.210  0.00  0.00     0.081 A 
HETATM   10  C           1     -24.198  -4.147 -10.185  0.00  0.00     0.038 A 
HETATM   11  C           1     -23.773  -4.092  -8.858  0.00  0.00     0.010 A 
BRANCH   9  12
HETATM   12  O           1     -23.678  -4.361 -12.499  0.00  0.00    -0.247 OA
BRANCH  12  13
HETATM   13  P           1     -23.966  -2.968 -13.264  0.00  0.00     0.411 P 
HETATM   14  O           1     -25.382  -2.583 -13.070  0.00  0.00    -0.624 OA
HETATM   15  O           1     -23.693  -3.134 -14.708  0.00  0.00    -0.624 OA
BRANCH  13  16
HETATM   16  O           1     -23.008  -1.816 -12.662  0.00  0.00    -0.300 OA
HETATM   17  H           1     -23.549  -1.048 -12.617  0.00  0.00     0.223 HD
ENDBRANCH  13  16
ENDBRANCH  12  13
ENDBRANCH   9  12
ENDBRANCH   5   6
ENDBRANCH   1   5
BRANCH   1  18
HETATM   18  N           1     -22.286  -5.834  -5.429  0.00  0.00    -0.344 N 
HETATM   19  H           1     -23.243  -5.527  -5.307  0.00  0.00     0.163 HD
HETATM   20  C           1     -21.660  -6.536  -4.433  0.00  0.00     0.249 C 
HETATM   21  O           1     -21.043  -5.947  -3.577  0.00  0.00    -0.271 OA
BRANCH  20  22
HETATM   22  C           1     -21.740  -8.042  -4.405  0.00  0.00     0.278 C 
BRANCH  22  23
HETATM   23  N           1     -21.212  -8.594  -5.695  0.00  0.00    -0.066 N 
HETATM   24  H           1     -21.399  -7.915  -6.468  0.00  0.00     0.275 HD
HETATM   25  H           1     -20.182  -8.752  -5.612  0.00  0.00     0.275 HD
HETATM   26  H           1     -21.687  -9.501  -5.907  0.00  0.00     0.275 HD
ENDBRANCH  22  23
BRANCH  22  27
HETATM   27  C           1     -20.907  -8.574  -3.247  0.00  0.00     0.017 C 
HETATM   28  C           1     -19.600  -9.143  -3.782  0.00  0.00     0.012 C 
HETATM   29  C           1     -21.680  -9.672  -2.528  0.00  0.00     0.012 C 
ENDBRANCH  22  27
ENDBRANCH  20  22
ENDBRANCH   1  18
TORSDOF 10
ENDMDL
MODEL 2
REMARK VINA RESULT:      -7.8      1.784      2.434
REMARK  10 active torsions:
REMARK  status: ('A' for Active; 'I' for Inactive)
REMARK    1  A    between atoms: O_3  and  P_4 
REMARK    2  A    between atoms: P_4  and  O_5 
REMARK    3  A    between atoms: O_5  and  C_6 
REMARK    4  A    between atoms: N_8  and  C_16 
REMARK    5  A    between atoms: C_9  and  C_17 
REMARK    6  A    between atoms: C_9  and  C_26 
REMARK    7  A    between atoms: C_9  and  N_28 
REMARK    8  A    between atoms: C_16  and  C_23 
REMARK    9  A    between atoms: C_16  and  C_24 
REMARK       I    between atoms: C_23  and  N_28 
REMARK   10  A    between atoms: C_25  and  C_26 
ROOT
HETATM    1  C           1     -21.761  -6.571  -5.572  0.00  0.00     0.189 C 
ENDROOT
BRANCH   1   2
HETATM    2  C           1     -20.938  -7.832  -5.668  0.00  0.00     0.197 C 
HETATM    3  O           1     -19.694  -7.759  -5.759  0.00  0.00    -0.646 OA
HETATM    4  O           1     -21.500  -8.948  -5.657  0.00  0.00    -0.646 OA
ENDBRANCH   1   2
BRANCH   1   5
HETATM    5  C           1     -20.879  -5.364  -5.859  0.00  0.00     0.074 C 
BRANCH   5   6
HETATM    6  C           1     -21.210  -4.811  -7.210  0.00  0.00    -0.056 A 
HETATM    7  C           1     -20.281  -4.900  -8.247  0.00  0.00     0.010 A 
HETATM    8  C           1     -20.589  -4.385  -9.506  0.00  0.00     0.038 A 
HETATM    9  C           1     -21.826  -3.781  -9.729  0.00  0.00     0.081 A 
HETATM   10  C           1     -22.756  -3.691  -8.691  0.00  0.00     0.038 A 
HETATM   11  C           1     -22.448  -4.207  -7.433  0.00  0.00     0.010 A 
BRANCH   9  12
HETATM   12  O           1     -22.127  -3.280 -10.951  0.00  0.00    -0.247 OA
BRANCH  12  13
HETATM   13  P           1     -23.445  -3.841 -11.698  0.00  0.00     0.411 P 
HETATM   14  O           1     -24.611  -3.004 -11.336  0.00  0.00    -0.624 OA
HETATM   15  O           1     -23.691  -5.238 -11.279  0.00  0.00    -0.624 OA
BRANCH  13  16
HETATM   16  O           1     -23.221  -3.788 -13.297  0.00  0.00    -0.300 OA
HETATM   17  H           1     -22.669  -4.526 -13.490  0.00  0.00     0.223 HD
ENDBRANCH  13  16
ENDBRANCH  12  13
ENDBRANCH   9  12
ENDBRANCH   5   6
ENDBRANCH   1   5
BRANCH   1  18
HETATM   18  N           1     -22.316  -6.457  -4.238  0.00  0.00    -0.344 N 
HETATM   19  H           1     -23.305  -6.281  -4.114  0.00  0.00     0.163 HD
HETATM   20  C           1     -21.502  -6.589  -3.144  0.00  0.00     0.249 C 
HETATM   21  O           1     -20.961  -5.616  -2.674  0.00  0.00    -0.271 OA
BRANCH  20  22
HETATM   22  C           1     -21.280  -7.947  -2.526  0.00  0.00     0.278 C 
BRANCH  22  23
HETATM   23  N           1     -19.947  -8.481  -2.958  0.00  0.00    -0.066 N 
HETATM   24  H           1     -20.042  -9.490  -3.213  0.00  0.00     0.275 HD
HETATM   25  H           1     -19.608  -7.942  -3.787  0.00  0.00     0.275 HD
HETATM   26  H           1     -19.262  -8.382  -2.175  0.00  0.00     0.275 HD
ENDBRANCH  22  23
BRANCH  22  27
HETATM   27  C           1     -21.311  -7.827  -1.008  0.00  0.00     0.017 C 
HETATM   28  C           1     -21.011  -9.184  -0.386  0.00  0.00     0.012 C 
HETATM   29  C           1     -22.691  -7.360  -0.564  0.00  0.00     0.012 C 
ENDBRANCH  22  27
ENDBRANCH  20  22
ENDBRANCH   1  18
TORSDOF 10
ENDMDL
MODEL 3
REMARK VINA RESULT:      -7.6     12.854     16.161
REMARK  10 active torsions:
REMARK  status: ('A' for Active; 'I' for Inactive)
REMARK    1  A    between atoms: O_3  and  P_4 
REMARK    2  A    between atoms: P_4  and  O_5 
REMARK    3  A    between atoms: O_5  and  C_6 
REMARK    4  A    between atoms: N_8  and  C_16 
REMARK    5  A    between atoms: C_9  and  C_17 
REMARK    6  A    between atoms: C_9  and  C_26 
REMARK    7  A    between atoms: C_9  and  N_28 
REMARK    8  A    between atoms: C_16  and  C_23 
REMARK    9  A    between atoms: C_16  and  C_24 
REMARK       I    between atoms: C_23  and  N_28 
REMARK   10  A    between atoms: C_25  and  C_26 
ROOT
HETATM    1  C           1     -36.597  -0.761 -10.920  0.00  0.00     0.189 C 
ENDROOT
BRANCH   1   2
HETATM    2  C           1     -36.946  -0.211  -9.559  0.00  0.00     0.197 C 
HETATM    3  O           1     -38.075   0.286  -9.358  0.00  0.00    -0.646 OA
HETATM    4  O           1     -36.107  -0.253  -8.634  0.00  0.00    -0.646 OA
ENDBRANCH   1   2
BRANCH   1   5
HETATM    5  C           1     -35.082  -0.812 -11.075  0.00  0.00     0.074 C 
BRANCH   5   6
HETATM    6  C           1     -34.624  -2.237 -11.054  0.00  0.00    -0.056 A 
HETATM    7  C           1     -35.555  -3.266 -10.907  0.00  0.00     0.010 A 
HETATM    8  C           1     -35.129  -4.594 -10.886  0.00  0.00     0.038 A 
HETATM    9  C           1     -33.773  -4.893 -11.013  0.00  0.00     0.081 A 
HETATM   10  C           1     -32.842  -3.864 -11.159  0.00  0.00     0.038 A 
HETATM   11  C           1     -33.268  -2.537 -11.181  0.00  0.00     0.010 A 
BRANCH   9  12
HETATM   12  O           1     -33.358  -6.183 -10.994  0.00  0.00    -0.247 OA
BRANCH  12  13
HETATM   13  P           1     -34.420  -7.316 -10.548  0.00  0.00     0.411 P 
HETATM   14  O           1     -35.265  -6.795  -9.451  0.00  0.00    -0.624 OA
HETATM   15  O           1     -33.693  -8.517 -10.084  0.00  0.00    -0.624 OA
BRANCH  13  16
HETATM   16  O           1     -35.353  -7.704 -11.808  0.00  0.00    -0.300 OA
HETATM   17  H           1     -35.353  -6.938 -12.357  0.00  0.00     0.223 HD
ENDBRANCH  13  16
ENDBRANCH  12  13
ENDBRANCH   9  12
ENDBRANCH   5   6
ENDBRANCH   1   5
BRANCH   1  18
HETATM   18  N           1     -37.158   0.096 -11.945  0.00  0.00    -0.344 N 
HETATM   19  H           1     -37.559   0.991 -11.693  0.00  0.00     0.163 HD
HETATM   20  C           1     -37.146  -0.304 -13.255  0.00  0.00     0.249 C 
HETATM   21  O           1     -38.075  -0.935 -13.701  0.00  0.00    -0.271 OA
BRANCH  20  22
HETATM   22  C           1     -35.975   0.043 -14.140  0.00  0.00     0.278 C 
BRANCH  22  23
HETATM   23  N           1     -35.113  -1.171 -14.326  0.00  0.00    -0.066 N 
HETATM   24  H           1     -34.597  -1.096 -15.232  0.00  0.00     0.275 HD
HETATM   25  H           1     -34.429  -1.237 -13.539  0.00  0.00     0.275 HD
HETATM   26  H           1     -35.715  -2.026 -14.337  0.00  0.00     0.275 HD
ENDBRANCH  22  23
BRANCH  22  27
HETATM   27  C           1     -36.483   0.517 -15.495  0.00  0.00     0.017 C 
HETATM   28  C           1     -36.186  -0.544 -16.547  0.00  0.00     0.012 C 
HETATM   29  C           1     -35.785   1.816 -15.873  0.00  0.00     0.012 C 
ENDBRANCH  22  27
ENDBRANCH  20  22
ENDBRANCH   1  18
TORSDOF 10
ENDMDL
MODEL 4
REMARK VINA RESULT:      -7.0      3.235      4.926
REMARK  10 active torsions:
REMARK  status: ('A' for Active; 'I' for Inactive)
REMARK    1  A    between atoms: O_3  and  P_4 
REMARK    2  A    between atoms: P_4  and  O_5 
REMARK    3  A    between atoms: O_5  and  C_6 
REMARK    4  A    between atoms: N_8  and  C_16 
REMARK    5  A    between atoms: C_9  and  C_17 
REMARK    6  A    between atoms: C_9  and  C_26 
REMARK    7  A    between atoms: C_9  and  N_28 
REMARK    8  A    between atoms: C_16  and  C_23 
REMARK    9  A    between atoms: C_16  and  C_24 
REMARK       I    between atoms: C_23  and  N_28 
REMARK   10  A    between atoms: C_25  and  C_26 
ROOT
HETATM    1  C           1     -20.752  -9.165  -4.271  0.00  0.00     0.189 C 
ENDROOT
BRANCH   1   2
HETATM    2  C           1     -21.056 -10.319  -5.192  0.00  0.00     0.197 C 
HETATM    3  O           1     -20.326 -10.535  -6.184  0.00  0.00    -0.646 OA
HETATM    4  O           1     -22.037 -11.059  -4.965  0.00  0.00    -0.646 OA
ENDBRANCH   1   2
BRANCH   1   5
HETATM    5  C           1     -19.649  -8.307  -4.876  0.00  0.00     0.074 C 
BRANCH   5   6
HETATM    6  C           1     -20.254  -7.117  -5.553  0.00  0.00    -0.056 A 
HETATM    7  C           1     -21.553  -6.718  -5.233  0.00  0.00     0.010 A 
HETATM    8  C           1     -22.118  -5.611  -5.864  0.00  0.00     0.038 A 
HETATM    9  C           1     -21.385  -4.900  -6.814  0.00  0.00     0.081 A 
HETATM   10  C           1     -20.087  -5.299  -7.135  0.00  0.00     0.038 A 
HETATM   11  C           1     -19.521  -6.406  -6.503  0.00  0.00     0.010 A 
BRANCH   9  12
HETATM   12  O           1     -21.933  -3.823  -7.427  0.00  0.00    -0.247 OA
BRANCH  12  13
HETATM   13  P           1     -22.765  -4.067  -8.789  0.00  0.00     0.411 P 
HETATM   14  O           1     -22.612  -5.476  -9.216  0.00  0.00    -0.624 OA
HETATM   15  O           1     -22.250  -3.172  -9.849  0.00  0.00    -0.624 OA
BRANCH  13  16
HETATM   16  O           1     -24.328  -3.751  -8.529  0.00  0.00    -0.300 OA
HETATM   17  H           1     -24.559  -3.113  -9.182  0.00  0.00     0.223 HD
ENDBRANCH  13  16
ENDBRANCH  12  13
ENDBRANCH   9  12
ENDBRANCH   5   6
ENDBRANCH   1   5
BRANCH   1  18
HETATM   18  N           1     -20.316  -9.675  -2.985  0.00  0.00    -0.344 N 
HETATM   19  H           1     -19.378 -10.039  -2.878  0.00  0.00     0.163 HD
HETATM   20  C           1     -21.173  -9.665  -1.917  0.00  0.00     0.249 C 
HETATM   21  O           1     -21.890 -10.615  -1.710  0.00  0.00    -0.271 OA
BRANCH  20  22
HETATM   22  C           1     -21.222  -8.468  -1.000  0.00  0.00     0.278 C 
BRANCH  22  23
HETATM   23  N           1     -21.974  -7.357  -1.668  0.00  0.00    -0.066 N 
HETATM   24  H           1     -21.412  -6.477  -1.620  0.00  0.00     0.275 HD
HETATM   25  H           1     -22.148  -7.605  -2.669  0.00  0.00     0.275 HD
HETATM   26  H           1     -22.889  -7.214  -1.182  0.00  0.00     0.275 HD
ENDBRANCH  22  23
BRANCH  22  27
HETATM   27  C           1     -21.925  -8.849   0.296  0.00  0.00     0.017 C 
HETATM   28  C           1     -23.141  -7.954   0.495  0.00  0.00     0.012 C 
HETATM   29  C           1     -20.966  -8.670   1.466  0.00  0.00     0.012 C 
ENDBRANCH  22  27
ENDBRANCH  20  22
ENDBRANCH   1  18
TORSDOF 10
ENDMDL
MODEL 5
REMARK VINA RESULT:      -6.7      5.977      9.001
REMARK  10 active torsions:
REMARK  status: ('A' for Active; 'I' for Inactive)
REMARK    1  A    between atoms: O_3  and  P_4 
REMARK    2  A    between atoms: P_4  and  O_5 
REMARK    3  A    between atoms: O_5  and  C_6 
REMARK    4  A    between atoms: N_8  and  C_16 
REMARK    5  A    between atoms: C_9  and  C_17 
REMARK    6  A    between atoms: C_9  and  C_26 
REMARK    7  A    between atoms: C_9  and  N_28 
REMARK    8  A    between atoms: C_16  and  C_23 
REMARK    9  A    between atoms: C_16  and  C_24 
REMARK       I    between atoms: C_23  and  N_28 
REMARK   10  A    between atoms: C_25  and  C_26 
ROOT
HETATM    1  C           1     -21.024  -7.410  -3.683  0.00  0.00     0.189 C 
ENDROOT
BRANCH   1   2
HETATM    2  C           1     -21.424  -6.233  -4.537  0.00  0.00     0.197 C 
HETATM    3  O           1     -20.549  -5.460  -4.985  0.00  0.00    -0.646 OA
HETATM    4  O           1     -22.629  -6.030  -4.798  0.00  0.00    -0.646 OA
ENDBRANCH   1   2
BRANCH   1   5
HETATM    5  C           1     -20.755  -8.616  -4.573  0.00  0.00     0.074 C 
BRANCH   5   6
HETATM    6  C           1     -19.354  -9.096  -4.355  0.00  0.00    -0.056 A 
HETATM    7  C           1     -18.538  -9.384  -5.450  0.00  0.00     0.010 A 
HETATM    8  C           1     -17.233  -9.833  -5.248  0.00  0.00     0.038 A 
HETATM    9  C           1     -16.743  -9.992  -3.952  0.00  0.00     0.081 A 
HETATM   10  C           1     -17.559  -9.705  -2.857  0.00  0.00     0.038 A 
HETATM   11  C           1     -18.864  -9.256  -3.059  0.00  0.00     0.010 A 
BRANCH   9  12
HETATM   12  O           1     -15.475 -10.427  -3.754  0.00  0.00    -0.247 OA
BRANCH  12  13
HETATM   13  P           1     -15.119 -11.945  -4.175  0.00  0.00     0.411 P 
HETATM   14  O           1     -16.321 -12.794  -4.023  0.00  0.00    -0.624 OA
HETATM   15  O           1     -14.040 -12.458  -3.302  0.00  0.00    -0.624 OA
BRANCH  13  16
HETATM   16  O           1     -14.628 -11.977  -5.713  0.00  0.00    -0.300 OA
HETATM   17  H           1     -14.941 -12.798  -6.052  0.00  0.00     0.223 HD
ENDBRANCH  13  16
ENDBRANCH  12  13
ENDBRANCH   9  12
ENDBRANCH   5   6
ENDBRANCH   1   5
BRANCH   1  18
HETATM   18  N           1     -22.096  -7.721  -2.759  0.00  0.00    -0.344 N 
HETATM   19  H           1     -22.915  -8.220  -3.083  0.00  0.00     0.163 HD
HETATM   20  C           1     -22.002  -7.343  -1.446  0.00  0.00     0.249 C 
HETATM   21  O           1     -22.423  -6.265  -1.097  0.00  0.00    -0.271 OA
BRANCH  20  22
HETATM   22  C           1     -21.371  -8.269  -0.436  0.00  0.00     0.278 C 
BRANCH  22  23
HETATM   23  N           1     -21.855  -7.915   0.938  0.00  0.00    -0.066 N 
HETATM   24  H           1     -21.864  -6.875   1.047  0.00  0.00     0.275 HD
HETATM   25  H           1     -22.822  -8.288   1.074  0.00  0.00     0.275 HD
HETATM   26  H           1     -21.217  -8.335   1.652  0.00  0.00     0.275 HD
ENDBRANCH  22  23
BRANCH  22  27
HETATM   27  C           1     -21.757  -9.708  -0.755  0.00  0.00     0.017 C 
HETATM   28  C           1     -23.151  -9.991  -0.210  0.00  0.00     0.012 C 
HETATM   29  C           1     -20.757 -10.657  -0.107  0.00  0.00     0.012 C 
ENDBRANCH  22  27
ENDBRANCH  20  22
ENDBRANCH   1  18
TORSDOF 10
ENDMDL
MODEL 6
REMARK VINA RESULT:      -6.7      5.026      7.204
REMARK  10 active torsions:
REMARK  status: ('A' for Active; 'I' for Inactive)
REMARK    1  A    between atoms: O_3  and  P_4 
REMARK    2  A    between atoms: P_4  and  O_5 
REMARK    3  A    between atoms: O_5  and  C_6 
REMARK    4  A    between atoms: N_8  and  C_16 
REMARK    5  A    between atoms: C_9  and  C_17 
REMARK    6  A    between atoms: C_9  and  C_26 
REMARK    7  A    between atoms: C_9  and  N_28 
REMARK    8  A    between atoms: C_16  and  C_23 
REMARK    9  A    between atoms: C_16  and  C_24 
REMARK       I    between atoms: C_23  and  N_28 
REMARK   10  A    between atoms: C_25  and  C_26 
ROOT
HETATM    1  C           1     -19.871 -10.679  -2.034  0.00  0.00     0.189 C 
ENDROOT
BRANCH   1   2
HETATM    2  C           1     -18.364 -10.663  -2.060  0.00  0.00     0.197 C 
HETATM    3  O           1     -17.760  -9.863  -2.808  0.00  0.00    -0.646 OA
HETATM    4  O           1     -17.717 -11.448  -1.334  0.00  0.00    -0.646 OA
ENDBRANCH   1   2
BRANCH   1   5
HETATM    5  C           1     -20.383  -9.413  -1.360  0.00  0.00     0.074 C 
BRANCH   5   6
HETATM    6  C           1     -20.929  -8.480  -2.395  0.00  0.00    -0.056 A 
HETATM    7  C           1     -21.180  -8.943  -3.688  0.00  0.00     0.010 A 
HETATM    8  C           1     -21.687  -8.074  -4.653  0.00  0.00     0.038 A 
HETATM    9  C           1     -21.945  -6.742  -4.327  0.00  0.00     0.081 A 
HETATM   10  C           1     -21.694  -6.280  -3.035  0.00  0.00     0.038 A 
HETATM   11  C           1     -21.186  -7.149  -2.070  0.00  0.00     0.010 A 
BRANCH   9  12
HETATM   12  O           1     -22.439  -5.897  -5.264  0.00  0.00    -0.247 OA
BRANCH  12  13
HETATM   13  P           1     -21.409  -5.270  -6.339  0.00  0.00     0.411 P 
HETATM   14  O           1     -20.300  -4.599  -5.625  0.00  0.00    -0.624 OA
HETATM   15  O           1     -22.120  -4.285  -7.184  0.00  0.00    -0.624 OA
BRANCH  13  16
HETATM   16  O           1     -20.816  -6.450  -7.268  0.00  0.00    -0.300 OA
HETATM   17  H           1     -20.038  -6.087  -7.656  0.00  0.00     0.223 HD
ENDBRANCH  13  16
ENDBRANCH  12  13
ENDBRANCH   9  12
ENDBRANCH   5   6
ENDBRANCH   1   5
BRANCH   1  18
HETATM   18  N           1     -20.329 -11.839  -1.294  0.00  0.00    -0.344 N 
HETATM   19  H           1     -19.926 -12.054  -0.391  0.00  0.00     0.163 HD
HETATM   20  C           1     -21.307 -12.643  -1.815  0.00  0.00     0.249 C 
HETATM   21  O           1     -21.007 -13.584  -2.511  0.00  0.00    -0.271 OA
BRANCH  20  22
HETATM   22  C           1     -22.759 -12.354  -1.521  0.00  0.00     0.278 C 
BRANCH  22  23
HETATM   23  N           1     -23.547 -13.627  -1.603  0.00  0.00    -0.066 N 
HETATM   24  H           1     -24.043 -13.672  -2.522  0.00  0.00     0.275 HD
HETATM   25  H           1     -22.902 -14.444  -1.514  0.00  0.00     0.275 HD
HETATM   26  H           1     -24.249 -13.652  -0.828  0.00  0.00     0.275 HD
ENDBRANCH  22  23
BRANCH  22  27
HETATM   27  C           1     -22.887 -11.766  -0.122  0.00  0.00     0.017 C 
HETATM   28  C           1     -23.364 -12.847   0.839  0.00  0.00     0.012 C 
HETATM   29  C           1     -23.896 -10.625  -0.143  0.00  0.00     0.012 C 
ENDBRANCH  22  27
ENDBRANCH  20  22
ENDBRANCH   1  18
TORSDOF 10
ENDMDL
MODEL 7
REMARK VINA RESULT:      -6.7      6.905      8.970
REMARK  10 active torsions:
REMARK  status: ('A' for Active; 'I' for Inactive)
REMARK    1  A    between atoms: O_3  and  P_4 
REMARK    2  A    between atoms: P_4  and  O_5 
REMARK    3  A    between atoms: O_5  and  C_6 
REMARK    4  A    between atoms: N_8  and  C_16 
REMARK    5  A    between atoms: C_9  and  C_17 
REMARK    6  A    between atoms: C_9  and  C_26 
REMARK    7  A    between atoms: C_9  and  N_28 
REMARK    8  A    between atoms: C_16  and  C_23 
REMARK    9  A    between atoms: C_16  and  C_24 
REMARK       I    between atoms: C_23  and  N_28 
REMARK   10  A    between atoms: C_25  and  C_26 
ROOT
HETATM    1  C           1     -21.193  -7.819  -2.132  0.00  0.00     0.189 C 
ENDROOT
BRANCH   1   2
HETATM    2  C           1     -21.652  -6.473  -2.635  0.00  0.00     0.197 C 
HETATM    3  O           1     -22.586  -5.876  -2.057  0.00  0.00    -0.646 OA
HETATM    4  O           1     -21.100  -5.955  -3.629  0.00  0.00    -0.646 OA
ENDBRANCH   1   2
BRANCH   1   5
HETATM    5  C           1     -21.183  -8.816  -3.283  0.00  0.00     0.074 C 
BRANCH   5   6
HETATM    6  C           1     -19.769  -9.149  -3.644  0.00  0.00    -0.056 A 
HETATM    7  C           1     -18.818  -9.335  -2.640  0.00  0.00     0.010 A 
HETATM    8  C           1     -17.500  -9.644  -2.975  0.00  0.00     0.038 A 
HETATM    9  C           1     -17.133  -9.769  -4.315  0.00  0.00     0.081 A 
HETATM   10  C           1     -18.083  -9.583  -5.319  0.00  0.00     0.038 A 
HETATM   11  C           1     -19.401  -9.274  -4.984  0.00  0.00     0.010 A 
BRANCH   9  12
HETATM   12  O           1     -15.853 -10.070  -4.642  0.00  0.00    -0.247 OA
BRANCH  12  13
HETATM   13  P           1     -15.532 -11.570  -5.150  0.00  0.00     0.411 P 
HETATM   14  O           1     -15.588 -11.613  -6.628  0.00  0.00    -0.624 OA
HETATM   15  O           1     -16.534 -12.504  -4.590  0.00  0.00    -0.624 OA
BRANCH  13  16
HETATM   16  O           1     -14.057 -12.001  -4.654  0.00  0.00    -0.300 OA
HETATM   17  H           1     -13.465 -11.571  -5.247  0.00  0.00     0.223 HD
ENDBRANCH  13  16
ENDBRANCH  12  13
ENDBRANCH   9  12
ENDBRANCH   5   6
ENDBRANCH   1   5
BRANCH   1  18
HETATM   18  N           1     -22.099  -8.283  -1.099  0.00  0.00    -0.344 N 
HETATM   19  H           1     -23.070  -7.999  -1.113  0.00  0.00     0.163 HD
HETATM   20  C           1     -21.641  -9.106  -0.105  0.00  0.00     0.249 C 
HETATM   21  O           1     -21.203  -8.632   0.916  0.00  0.00    -0.271 OA
BRANCH  20  22
HETATM   22  C           1     -21.683 -10.603  -0.286  0.00  0.00     0.278 C 
BRANCH  22  23
HETATM   23  N           1     -20.779 -11.253   0.719  0.00  0.00    -0.066 N 
HETATM   24  H           1     -19.783 -11.101   0.440  0.00  0.00     0.275 HD
HETATM   25  H           1     -20.945 -10.833   1.661  0.00  0.00     0.275 HD
HETATM   26  H           1     -20.978 -12.279   0.755  0.00  0.00     0.275 HD
ENDBRANCH  22  23
BRANCH  22  27
HETATM   27  C           1     -23.108 -11.101  -0.081  0.00  0.00     0.017 C 
HETATM   28  C           1     -23.080 -12.420   0.679  0.00  0.00     0.012 C 
HETATM   29  C           1     -23.771 -11.310  -1.436  0.00  0.00     0.012 C 
ENDBRANCH  22  27
ENDBRANCH  20  22
ENDBRANCH   1  18
TORSDOF 10
ENDMDL
MODEL 8
REMARK VINA RESULT:      -6.3      6.037      9.940
REMARK  10 active torsions:
REMARK  status: ('A' for Active; 'I' for Inactive)
REMARK    1  A    between atoms: O_3  and  P_4 
REMARK    2  A    between atoms: P_4  and  O_5 
REMARK    3  A    between atoms: O_5  and  C_6 
REMARK    4  A    between atoms: N_8  and  C_16 
REMARK    5  A    between atoms: C_9  and  C_17 
REMARK    6  A    between atoms: C_9  and  C_26 
REMARK    7  A    between atoms: C_9  and  N_28 
REMARK    8  A    between atoms: C_16  and  C_23 
REMARK    9  A    between atoms: C_16  and  C_24 
REMARK       I    between atoms: C_23  and  N_28 
REMARK   10  A    between atoms: C_25  and  C_26 
ROOT
HETATM    1  C           1     -20.696  -7.856  -4.093  0.00  0.00     0.189 C 
ENDROOT
BRANCH   1   2
HETATM    2  C           1     -20.894  -6.893  -5.238  0.00  0.00     0.197 C 
HETATM    3  O           1     -21.204  -5.704  -5.007  0.00  0.00    -0.646 OA
HETATM    4  O           1     -20.748  -7.284  -6.416  0.00  0.00    -0.646 OA
ENDBRANCH   1   2
BRANCH   1   5
HETATM    5  C           1     -20.538  -9.269  -4.638  0.00  0.00     0.074 C 
BRANCH   5   6
HETATM    6  C           1     -19.378  -9.937  -3.968  0.00  0.00    -0.056 A 
HETATM    7  C           1     -19.197 -11.315  -4.098  0.00  0.00     0.010 A 
HETATM    8  C           1     -18.118 -11.938  -3.474  0.00  0.00     0.038 A 
HETATM    9  C           1     -17.218 -11.184  -2.720  0.00  0.00     0.081 A 
HETATM   10  C           1     -17.399  -9.807  -2.590  0.00  0.00     0.038 A 
HETATM   11  C           1     -18.478  -9.184  -3.215  0.00  0.00     0.010 A 
BRANCH   9  12
HETATM   12  O           1     -16.167 -11.789  -2.113  0.00  0.00    -0.247 OA
BRANCH  12  13
HETATM   13  P           1     -16.386 -12.378  -0.625  0.00  0.00     0.411 P 
HETATM   14  O           1     -15.932 -13.785  -0.580  0.00  0.00    -0.624 OA
HETATM   15  O           1     -17.822 -12.311  -0.276  0.00  0.00    -0.624 OA
BRANCH  13  16
HETATM   16  O           1     -15.534 -11.502   0.430  0.00  0.00    -0.300 OA
HETATM   17  H           1     -14.927 -11.009  -0.095  0.00  0.00     0.223 HD
ENDBRANCH  13  16
ENDBRANCH  12  13
ENDBRANCH   9  12
ENDBRANCH   5   6
ENDBRANCH   1   5
BRANCH   1  18
HETATM   18  N           1     -21.848  -7.803  -3.214  0.00  0.00    -0.344 N 
HETATM   19  H           1     -22.744  -8.148  -3.534  0.00  0.00     0.163 HD
HETATM   20  C           1     -21.724  -7.288  -1.952  0.00  0.00     0.249 C 
HETATM   21  O           1     -21.905  -6.109  -1.761  0.00  0.00    -0.271 OA
BRANCH  20  22
HETATM   22  C           1     -21.361  -8.192  -0.799  0.00  0.00     0.278 C 
BRANCH  22  23
HETATM   23  N           1     -21.987  -7.672   0.460  0.00  0.00    -0.066 N 
HETATM   24  H           1     -22.239  -8.474   1.081  0.00  0.00     0.275 HD
HETATM   25  H           1     -21.310  -7.048   0.955  0.00  0.00     0.275 HD
HETATM   26  H           1     -22.849  -7.131   0.222  0.00  0.00     0.275 HD
ENDBRANCH  22  23
BRANCH  22  27
HETATM   27  C           1     -21.872  -9.600  -1.076  0.00  0.00     0.017 C 
HETATM   28  C           1     -23.177  -9.822  -0.324  0.00  0.00     0.012 C 
HETATM   29  C           1     -20.838 -10.616  -0.609  0.00  0.00     0.012 C 
ENDBRANCH  22  27
ENDBRANCH  20  22
ENDBRANCH   1  18
TORSDOF 10
ENDMDL
MODEL 9
REMARK VINA RESULT:      -6.2     14.923     16.612
REMARK  10 active torsions:
REMARK  status: ('A' for Active; 'I' for Inactive)
REMARK    1  A    between atoms: O_3  and  P_4 
REMARK    2  A    between atoms: P_4  and  O_5 
REMARK    3  A    between atoms: O_5  and  C_6 
REMARK    4  A    between atoms: N_8  and  C_16 
REMARK    5  A    between atoms: C_9  and  C_17 
REMARK    6  A    between atoms: C_9  and  C_26 
REMARK    7  A    between atoms: C_9  and  N_28 
REMARK    8  A    between atoms: C_16  and  C_23 
REMARK    9  A    between atoms: C_16  and  C_24 
REMARK       I    between atoms: C_23  and  N_28 
REMARK   10  A    between atoms: C_25  and  C_26 
ROOT
HETATM    1  C           1     -23.183  10.194   0.797  0.00  0.00     0.189 C 
ENDROOT
BRANCH   1   2
HETATM    2  C           1     -23.061  10.957   2.092  0.00  0.00     0.197 C 
HETATM    3  O           1     -22.935  12.201   2.074  0.00  0.00    -0.646 OA
HETATM    4  O           1     -23.086  10.348   3.183  0.00  0.00    -0.646 OA
ENDBRANCH   1   2
BRANCH   1   5
HETATM    5  C           1     -23.327   8.707   1.095  0.00  0.00     0.074 C 
BRANCH   5   6
HETATM    6  C           1     -23.878   8.006  -0.108  0.00  0.00    -0.056 A 
HETATM    7  C           1     -23.075   7.120  -0.827  0.00  0.00     0.010 A 
HETATM    8  C           1     -23.588   6.468  -1.948  0.00  0.00     0.038 A 
HETATM    9  C           1     -24.903   6.701  -2.350  0.00  0.00     0.081 A 
HETATM   10  C           1     -25.705   7.588  -1.631  0.00  0.00     0.038 A 
HETATM   11  C           1     -25.193   8.239  -0.510  0.00  0.00     0.010 A 
BRANCH   9  12
HETATM   12  O           1     -25.402   6.067  -3.439  0.00  0.00    -0.247 OA
BRANCH  12  13
HETATM   13  P           1     -25.601   6.926  -4.792  0.00  0.00     0.411 P 
HETATM   14  O           1     -26.993   7.423  -4.861  0.00  0.00    -0.624 OA
HETATM   15  O           1     -25.325   6.067  -5.965  0.00  0.00    -0.624 OA
BRANCH  13  16
HETATM   16  O           1     -24.582   8.178  -4.789  0.00  0.00    -0.300 OA
HETATM   17  H           1     -24.071   8.079  -5.574  0.00  0.00     0.223 HD
ENDBRANCH  13  16
ENDBRANCH  12  13
ENDBRANCH   9  12
ENDBRANCH   5   6
ENDBRANCH   1   5
BRANCH   1  18
HETATM   18  N           1     -21.996  10.412  -0.006  0.00  0.00    -0.344 N 
HETATM   19  H           1     -21.092  10.111   0.334  0.00  0.00     0.163 HD
HETATM   20  C           1     -22.098  11.027  -1.226  0.00  0.00     0.249 C 
HETATM   21  O           1     -22.004  12.229  -1.306  0.00  0.00    -0.271 OA
BRANCH  20  22
HETATM   22  C           1     -22.327  10.203  -2.469  0.00  0.00     0.278 C 
BRANCH  22  23
HETATM   23  N           1     -23.740  10.388  -2.937  0.00  0.00    -0.066 N 
HETATM   24  H           1     -23.900   9.815  -3.797  0.00  0.00     0.275 HD
HETATM   25  H           1     -24.399  10.080  -2.186  0.00  0.00     0.275 HD
HETATM   26  H           1     -23.906  11.397  -3.154  0.00  0.00     0.275 HD
ENDBRANCH  22  23
BRANCH  22  27
HETATM   27  C           1     -21.368  10.655  -3.563  0.00  0.00     0.017 C 
HETATM   28  C           1     -22.149  11.365  -4.661  0.00  0.00     0.012 C 
HETATM   29  C           1     -20.658   9.442  -4.149  0.00  0.00     0.012 C 
ENDBRANCH  22  27
ENDBRANCH  20  22
ENDBRANCH   1  18
TORSDOF 10
ENDMDL
