MODEL 1
REMARK VINA RESULT:      -7.5      0.000      0.000
REMARK  13 active torsions:
REMARK  status: ('A' for Active; 'I' for Inactive)
REMARK    1  A    between atoms: C_2  and  C_28 
REMARK    2  A    between atoms: C_2  and  C_3 
REMARK    3  A    between atoms: C_3  and  C_4 
REMARK    4  A    between atoms: C_4  and  C_5 
REMARK    5  A    between atoms: C_5  and  N_27 
REMARK    6  A    between atoms: N_6  and  C_12 
REMARK       I    between atoms: N_6  and  C_7 
REMARK    7  A    between atoms: C_7  and  C_28 
REMARK       I    between atoms: C_9  and  N_17 
REMARK       I    between atoms: C_9  and  N_24 
REMARK    8  A    between atoms: C_12  and  C_14 
REMARK    9  A    between atoms: C_12  and  C_29 
REMARK   10  A    between atoms: C_14  and  C_30 
REMARK   11  A    between atoms: C_23  and  N_26 
REMARK   12  A    between atoms: C_23  and  C_30 
REMARK   13  A    between atoms: C_28  and  N_32 
ROOT
HETATM    1  H           1     -36.216  -2.472 -12.834  0.00  0.00     0.163 HD
HETATM    2  N           1     -35.513  -2.030 -12.255  0.00  0.00    -0.345 N 
HETATM    3  C           1     -34.370  -2.708 -11.928  0.00  0.00     0.249 C 
HETATM    4  O           1     -33.531  -2.182 -11.237  0.00  0.00    -0.271 OA
ENDROOT
BRANCH   2   5
HETATM    5  C           1     -35.717  -0.679 -11.771  0.00  0.00     0.185 C 
BRANCH   5   6
HETATM    6  C           1     -36.324   0.171 -12.880  0.00  0.00     0.038 C 
BRANCH   6   7
HETATM    7  C           1     -35.211   0.855 -13.663  0.00  0.00     0.023 C 
BRANCH   7   8
HETATM    8  C           1     -35.418   0.619 -15.153  0.00  0.00     0.138 C 
BRANCH   8   9
HETATM    9  N           1     -34.868  -0.692 -15.524  0.00  0.00    -0.227 N 
HETATM   10  C           1     -35.338  -1.316 -16.520  0.00  0.00     0.665 C 
HETATM   11  N           1     -34.851  -2.476 -16.849  0.00  0.00    -0.235 N 
HETATM   12  N           1     -36.281  -0.811 -17.197  0.00  0.00    -0.235 N 
HETATM   13  H           1     -34.073  -2.893 -16.290  0.00  0.00     0.174 HD
HETATM   14  H           1     -35.239  -2.991 -17.671  0.00  0.00     0.174 HD
HETATM   15  H           1     -36.674   0.126 -16.932  0.00  0.00     0.174 HD
HETATM   16  H           1     -36.670  -1.328 -18.023  0.00  0.00     0.174 HD
HETATM   17  H           1     -34.086  -1.112 -14.964  0.00  0.00     0.177 HD
ENDBRANCH   8   9
ENDBRANCH   7   8
ENDBRANCH   6   7
ENDBRANCH   5   6
BRANCH   5  18
HETATM   18  C           1     -36.655  -0.705 -10.588  0.00  0.00     0.196 C 
HETATM   19  O           1     -36.214  -0.503  -9.436  0.00  0.00    -0.646 OA
HETATM   20  O           1     -37.872  -0.929 -10.762  0.00  0.00    -0.646 OA
ENDBRANCH   5  18
ENDBRANCH   2   5
BRANCH   3  21
HETATM   21  C           1     -34.157  -4.116 -12.432  0.00  0.00     0.274 C 
BRANCH  21  22
HETATM   22  C           1     -33.200  -4.849 -11.502  0.00  0.00     0.042 C 
BRANCH  22  23
HETATM   23  C           1     -33.994  -5.563 -10.415  0.00  0.00     0.004 C 
BRANCH  23  24
HETATM   24  C           1     -34.661  -6.800 -11.004  0.00  0.00     0.027 C 
BRANCH  24  25
HETATM   25  C           1     -34.660  -7.917  -9.969  0.00  0.00     0.229 C 
BRANCH  25  26
HETATM   26  N           1     -33.549  -8.878 -10.271  0.00  0.00    -0.079 N 
HETATM   27  H           1     -32.967  -8.504 -11.054  0.00  0.00     0.274 HD
HETATM   28  H           1     -32.952  -8.999  -9.421  0.00  0.00     0.274 HD
HETATM   29  H           1     -33.953  -9.802 -10.547  0.00  0.00     0.274 HD
ENDBRANCH  25  26
ENDBRANCH  24  25
ENDBRANCH  23  24
ENDBRANCH  22  23
ENDBRANCH  21  22
BRANCH  21  30
HETATM   30  N           1     -33.574  -4.068 -13.813  0.00  0.00    -0.067 N 
HETATM   31  H           1     -34.159  -3.447 -14.417  0.00  0.00     0.275 HD
HETATM   32  H           1     -32.600  -3.693 -13.767  0.00  0.00     0.275 HD
HETATM   33  H           1     -33.558  -5.032 -14.218  0.00  0.00     0.275 HD
ENDBRANCH  21  30
ENDBRANCH   3  21
TORSDOF 13
ENDMDL
MODEL 2
REMARK VINA RESULT:      -7.3     11.867     13.452
REMARK  13 active torsions:
REMARK  status: ('A' for Active; 'I' for Inactive)
REMARK    1  A    between atoms: C_2  and  C_28 
REMARK    2  A    between atoms: C_2  and  C_3 
REMARK    3  A    between atoms: C_3  and  C_4 
REMARK    4  A    between atoms: C_4  and  C_5 
REMARK    5  A    between atoms: C_5  and  N_27 
REMARK    6  A    between atoms: N_6  and  C_12 
REMARK       I    between atoms: N_6  and  C_7 
REMARK    7  A    between atoms: C_7  and  C_28 
REMARK       I    between atoms: C_9  and  N_17 
REMARK       I    between atoms: C_9  and  N_24 
REMARK    8  A    between atoms: C_12  and  C_14 
REMARK    9  A    between atoms: C_12  and  C_29 
REMARK   10  A    between atoms: C_14  and  C_30 
REMARK   11  A    between atoms: C_23  and  N_26 
REMARK   12  A    between atoms: C_23  and  C_30 
REMARK   13  A    between atoms: C_28  and  N_32 
ROOT
HETATM    1  H           1     -22.122  -5.858  -9.432  0.00  0.00     0.163 HD
HETATM    2  N           1     -22.112  -4.931  -9.025  0.00  0.00    -0.345 N 
HETATM    3  C           1     -21.637  -4.745  -7.755  0.00  0.00     0.249 C 
HETATM    4  O           1     -21.626  -3.639  -7.270  0.00  0.00    -0.271 OA
ENDROOT
BRANCH   2   5
HETATM    5  C           1     -22.602  -3.800  -9.789  0.00  0.00     0.185 C 
BRANCH   5   6
HETATM    6  C           1     -22.079  -3.887 -11.217  0.00  0.00     0.038 C 
BRANCH   6   7
HETATM    7  C           1     -22.419  -2.603 -11.962  0.00  0.00     0.023 C 
BRANCH   7   8
HETATM    8  C           1     -23.177  -2.943 -13.239  0.00  0.00     0.138 C 
BRANCH   8   9
HETATM    9  N           1     -23.988  -1.788 -13.651  0.00  0.00    -0.227 N 
HETATM   10  C           1     -23.774  -1.230 -14.766  0.00  0.00     0.665 C 
HETATM   11  N           1     -24.491  -0.208 -15.131  0.00  0.00    -0.235 N 
HETATM   12  N           1     -22.861  -1.666 -15.528  0.00  0.00    -0.235 N 
HETATM   13  H           1     -25.244   0.152 -14.502  0.00  0.00     0.174 HD
HETATM   14  H           1     -24.314   0.252 -16.052  0.00  0.00     0.174 HD
HETATM   15  H           1     -22.282  -2.491 -15.234  0.00  0.00     0.174 HD
HETATM   16  H           1     -22.684  -1.204 -16.454  0.00  0.00     0.174 HD
HETATM   17  H           1     -24.744  -1.426 -13.019  0.00  0.00     0.177 HD
ENDBRANCH   8   9
ENDBRANCH   7   8
ENDBRANCH   6   7
ENDBRANCH   5   6
BRANCH   5  18
HETATM   18  C           1     -24.111  -3.820  -9.804  0.00  0.00     0.196 C 
HETATM   19  O           1     -24.721  -4.872 -10.096  0.00  0.00    -0.646 OA
HETATM   20  O           1     -24.751  -2.783  -9.526  0.00  0.00    -0.646 OA
ENDBRANCH   5  18
ENDBRANCH   2   5
BRANCH   3  21
HETATM   21  C           1     -21.128  -5.923  -6.960  0.00  0.00     0.274 C 
BRANCH  21  22
HETATM   22  C           1     -21.321  -5.654  -5.473  0.00  0.00     0.042 C 
BRANCH  22  23
HETATM   23  C           1     -22.286  -6.680  -4.893  0.00  0.00     0.004 C 
BRANCH  23  24
HETATM   24  C           1     -21.608  -7.427  -3.752  0.00  0.00     0.027 C 
BRANCH  24  25
HETATM   25  C           1     -21.211  -6.439  -2.664  0.00  0.00     0.229 C 
BRANCH  25  26
HETATM   26  N           1     -22.445  -5.879  -2.021  0.00  0.00    -0.079 N 
HETATM   27  H           1     -23.183  -5.738  -2.747  0.00  0.00     0.274 HD
HETATM   28  H           1     -22.794  -6.545  -1.296  0.00  0.00     0.274 HD
HETATM   29  H           1     -22.219  -4.963  -1.571  0.00  0.00     0.274 HD
ENDBRANCH  25  26
ENDBRANCH  24  25
ENDBRANCH  23  24
ENDBRANCH  22  23
ENDBRANCH  21  22
BRANCH  21  30
HETATM   30  N           1     -19.669  -6.123  -7.246  0.00  0.00    -0.067 N 
HETATM   31  H           1     -19.303  -6.907  -6.659  0.00  0.00     0.275 HD
HETATM   32  H           1     -19.540  -6.356  -8.256  0.00  0.00     0.275 HD
HETATM   33  H           1     -19.146  -5.247  -7.020  0.00  0.00     0.275 HD
ENDBRANCH  21  30
ENDBRANCH   3  21
TORSDOF 13
ENDMDL
MODEL 3
REMARK VINA RESULT:      -6.6      2.659      6.804
REMARK  13 active torsions:
REMARK  status: ('A' for Active; 'I' for Inactive)
REMARK    1  A    between atoms: C_2  and  C_28 
REMARK    2  A    between atoms: C_2  and  C_3 
REMARK    3  A    between atoms: C_3  and  C_4 
REMARK    4  A    between atoms: C_4  and  C_5 
REMARK    5  A    between atoms: C_5  and  N_27 
REMARK    6  A    between atoms: N_6  and  C_12 
REMARK       I    between atoms: N_6  and  C_7 
REMARK    7  A    between atoms: C_7  and  C_28 
REMARK       I    between atoms: C_9  and  N_17 
REMARK       I    between atoms: C_9  and  N_24 
REMARK    8  A    between atoms: C_12  and  C_14 
REMARK    9  A    between atoms: C_12  and  C_29 
REMARK   10  A    between atoms: C_14  and  C_30 
REMARK   11  A    between atoms: C_23  and  N_26 
REMARK   12  A    between atoms: C_23  and  C_30 
REMARK   13  A    between atoms: C_28  and  N_32 
ROOT
HETATM    1  H           1     -35.293  -2.784 -11.338  0.00  0.00     0.163 HD
HETATM    2  N           1     -34.827  -2.424 -12.161  0.00  0.00    -0.345 N 
HETATM    3  C           1     -35.174  -1.200 -12.665  0.00  0.00     0.249 C 
HETATM    4  O           1     -34.618  -0.770 -13.647  0.00  0.00    -0.271 OA
ENDROOT
BRANCH   2   5
HETATM    5  C           1     -33.790  -3.205 -12.806  0.00  0.00     0.185 C 
BRANCH   5   6
HETATM    6  C           1     -33.092  -4.076 -11.769  0.00  0.00     0.038 C 
BRANCH   6   7
HETATM    7  C           1     -33.926  -4.118 -10.495  0.00  0.00     0.023 C 
BRANCH   7   8
HETATM    8  C           1     -34.784  -5.377 -10.491  0.00  0.00     0.138 C 
BRANCH   8   9
HETATM    9  N           1     -33.937  -6.550 -10.748  0.00  0.00    -0.227 N 
HETATM   10  C           1     -34.198  -7.655 -10.189  0.00  0.00     0.665 C 
HETATM   11  N           1     -33.449  -8.692 -10.417  0.00  0.00    -0.235 N 
HETATM   12  N           1     -35.190  -7.749  -9.407  0.00  0.00    -0.235 N 
HETATM   13  H           1     -32.631  -8.614 -11.062  0.00  0.00     0.174 HD
HETATM   14  H           1     -33.665  -9.604  -9.955  0.00  0.00     0.174 HD
HETATM   15  H           1     -35.795  -6.911  -9.223  0.00  0.00     0.174 HD
HETATM   16  H           1     -35.406  -8.666  -8.943  0.00  0.00     0.174 HD
HETATM   17  H           1     -33.115  -6.472 -11.397  0.00  0.00     0.177 HD
ENDBRANCH   8   9
ENDBRANCH   7   8
ENDBRANCH   6   7
ENDBRANCH   5   6
BRANCH   5  18
HETATM   18  C           1     -34.408  -4.084 -13.866  0.00  0.00     0.196 C 
HETATM   19  O           1     -35.006  -5.132 -13.539  0.00  0.00    -0.646 OA
HETATM   20  O           1     -34.321  -3.763 -15.070  0.00  0.00    -0.646 OA
ENDBRANCH   5  18
ENDBRANCH   2   5
BRANCH   3  21
HETATM   21  C           1     -36.255  -0.386 -11.994  0.00  0.00     0.274 C 
BRANCH  21  22
HETATM   22  C           1     -36.706  -1.091 -10.722  0.00  0.00     0.042 C 
BRANCH  22  23
HETATM   23  C           1     -37.848  -0.309 -10.085  0.00  0.00     0.004 C 
BRANCH  23  24
HETATM   24  C           1     -37.705  -0.347  -8.569  0.00  0.00     0.027 C 
BRANCH  24  25
HETATM   25  C           1     -37.522   1.070  -8.042  0.00  0.00     0.229 C 
BRANCH  25  26
HETATM   26  N           1     -36.093   1.490  -8.220  0.00  0.00    -0.079 N 
HETATM   27  H           1     -35.698   1.030  -9.072  0.00  0.00     0.274 HD
HETATM   28  H           1     -36.046   2.528  -8.332  0.00  0.00     0.274 HD
HETATM   29  H           1     -35.539   1.205  -7.381  0.00  0.00     0.274 HD
ENDBRANCH  25  26
ENDBRANCH  24  25
ENDBRANCH  23  24
ENDBRANCH  22  23
ENDBRANCH  21  22
BRANCH  21  30
HETATM   30  N           1     -37.421  -0.241 -12.926  0.00  0.00    -0.067 N 
HETATM   31  H           1     -38.303  -0.489 -12.422  0.00  0.00     0.275 HD
HETATM   32  H           1     -37.478   0.747 -13.262  0.00  0.00     0.275 HD
HETATM   33  H           1     -37.296  -0.881 -13.743  0.00  0.00     0.275 HD
ENDBRANCH  21  30
ENDBRANCH   3  21
TORSDOF 13
ENDMDL
MODEL 4
REMARK VINA RESULT:      -6.4     12.785     14.753
REMARK  13 active torsions:
REMARK  status: ('A' for Active; 'I' for Inactive)
REMARK    1  A    between atoms: C_2  and  C_28 
REMARK    2  A    between atoms: C_2  and  C_3 
REMARK    3  A    between atoms: C_3  and  C_4 
REMARK    4  A    between atoms: C_4  and  C_5 
REMARK    5  A    between atoms: C_5  and  N_27 
REMARK    6  A    between atoms: N_6  and  C_12 
REMARK       I    between atoms: N_6  and  C_7 
REMARK    7  A    between atoms: C_7  and  C_28 
REMARK       I    between atoms: C_9  and  N_17 
REMARK       I    between atoms: C_9  and  N_24 
REMARK    8  A    between atoms: C_12  and  C_14 
REMARK    9  A    between atoms: C_12  and  C_29 
REMARK   10  A    between atoms: C_14  and  C_30 
REMARK   11  A    between atoms: C_23  and  N_26 
REMARK   12  A    between atoms: C_23  and  C_30 
REMARK   13  A    between atoms: C_28  and  N_32 
ROOT
HETATM    1  H           1     -22.103  -3.986  -6.531  0.00  0.00     0.163 HD
HETATM    2  N           1     -21.791  -4.768  -7.093  0.00  0.00    -0.345 N 
HETATM    3  C           1     -21.350  -5.914  -6.488  0.00  0.00     0.249 C 
HETATM    4  O           1     -20.978  -6.847  -7.158  0.00  0.00    -0.271 OA
ENDROOT
BRANCH   2   5
HETATM    5  C           1     -21.811  -4.675  -8.539  0.00  0.00     0.185 C 
BRANCH   5   6
HETATM    6  C           1     -22.978  -3.796  -8.974  0.00  0.00     0.038 C 
BRANCH   6   7
HETATM    7  C           1     -24.000  -4.641  -9.722  0.00  0.00     0.023 C 
BRANCH   7   8
HETATM    8  C           1     -23.574  -4.785 -11.177  0.00  0.00     0.138 C 
BRANCH   8   9
HETATM    9  N           1     -24.044  -3.622 -11.944  0.00  0.00    -0.227 N 
HETATM   10  C           1     -23.259  -3.027 -12.738  0.00  0.00     0.665 C 
HETATM   11  N           1     -23.675  -1.999 -13.416  0.00  0.00    -0.235 N 
HETATM   12  N           1     -22.067  -3.434 -12.873  0.00  0.00    -0.235 N 
HETATM   13  H           1     -24.658  -1.663 -13.304  0.00  0.00     0.174 HD
HETATM   14  H           1     -23.026  -1.508 -14.071  0.00  0.00     0.174 HD
HETATM   15  H           1     -21.731  -4.265 -12.326  0.00  0.00     0.174 HD
HETATM   16  H           1     -21.415  -2.942 -13.532  0.00  0.00     0.174 HD
HETATM   17  H           1     -25.032  -3.284 -11.832  0.00  0.00     0.177 HD
ENDBRANCH   8   9
ENDBRANCH   7   8
ENDBRANCH   6   7
ENDBRANCH   5   6
BRANCH   5  18
HETATM   18  C           1     -20.517  -4.067  -9.022  0.00  0.00     0.196 C 
HETATM   19  O           1     -20.330  -3.883 -10.245  0.00  0.00    -0.646 OA
HETATM   20  O           1     -19.632  -3.749  -8.199  0.00  0.00    -0.646 OA
ENDBRANCH   5  18
ENDBRANCH   2   5
BRANCH   3  21
HETATM   21  C           1     -21.328  -6.012  -4.981  0.00  0.00     0.274 C 
BRANCH  21  22
HETATM   22  C           1     -20.525  -7.236  -4.562  0.00  0.00     0.042 C 
BRANCH  22  23
HETATM   23  C           1     -21.308  -8.024  -3.520  0.00  0.00     0.004 C 
BRANCH  23  24
HETATM   24  C           1     -20.583  -7.955  -2.182  0.00  0.00     0.027 C 
BRANCH  24  25
HETATM   25  C           1     -21.601  -8.000  -1.050  0.00  0.00     0.229 C 
BRANCH  25  26
HETATM   26  N           1     -22.357  -6.706  -1.005  0.00  0.00    -0.079 N 
HETATM   27  H           1     -23.364  -6.883  -1.217  0.00  0.00     0.274 HD
HETATM   28  H           1     -22.271  -6.285  -0.052  0.00  0.00     0.274 HD
HETATM   29  H           1     -21.962  -6.046  -1.713  0.00  0.00     0.274 HD
ENDBRANCH  25  26
ENDBRANCH  24  25
ENDBRANCH  23  24
ENDBRANCH  22  23
ENDBRANCH  21  22
BRANCH  21  30
HETATM   30  N           1     -22.732  -6.135  -4.469  0.00  0.00    -0.067 N 
HETATM   31  H           1     -23.369  -6.396  -5.256  0.00  0.00     0.275 HD
HETATM   32  H           1     -22.771  -6.875  -3.731  0.00  0.00     0.275 HD
HETATM   33  H           1     -23.037  -5.222  -4.064  0.00  0.00     0.275 HD
ENDBRANCH  21  30
ENDBRANCH   3  21
TORSDOF 13
ENDMDL
MODEL 5
REMARK VINA RESULT:      -6.4     13.947     17.426
REMARK  13 active torsions:
REMARK  status: ('A' for Active; 'I' for Inactive)
REMARK    1  A    between atoms: C_2  and  C_28 
REMARK    2  A    between atoms: C_2  and  C_3 
REMARK    3  A    between atoms: C_3  and  C_4 
REMARK    4  A    between atoms: C_4  and  C_5 
REMARK    5  A    between atoms: C_5  and  N_27 
REMARK    6  A    between atoms: N_6  and  C_12 
REMARK       I    between atoms: N_6  and  C_7 
REMARK    7  A    between atoms: C_7  and  C_28 
REMARK       I    between atoms: C_9  and  N_17 
REMARK       I    between atoms: C_9  and  N_24 
REMARK    8  A    between atoms: C_12  and  C_14 
REMARK    9  A    between atoms: C_12  and  C_29 
REMARK   10  A    between atoms: C_14  and  C_30 
REMARK   11  A    between atoms: C_23  and  N_26 
REMARK   12  A    between atoms: C_23  and  C_30 
REMARK   13  A    between atoms: C_28  and  N_32 
ROOT
HETATM    1  H           1     -21.848  -7.071  -6.762  0.00  0.00     0.163 HD
HETATM    2  N           1     -21.313  -6.427  -6.193  0.00  0.00    -0.345 N 
HETATM    3  C           1     -20.999  -5.185  -6.676  0.00  0.00     0.249 C 
HETATM    4  O           1     -20.360  -4.417  -5.998  0.00  0.00    -0.271 OA
ENDROOT
BRANCH   2   5
HETATM    5  C           1     -20.879  -6.820  -4.867  0.00  0.00     0.185 C 
BRANCH   5   6
HETATM    6  C           1     -22.021  -6.617  -3.879  0.00  0.00     0.038 C 
BRANCH   6   7
HETATM    7  C           1     -21.472  -6.048  -2.577  0.00  0.00     0.023 C 
BRANCH   7   8
HETATM    8  C           1     -22.296  -6.570  -1.407  0.00  0.00     0.138 C 
BRANCH   8   9
HETATM    9  N           1     -22.031  -8.004  -1.222  0.00  0.00    -0.227 N 
HETATM   10  C           1     -22.610  -8.639  -0.292  0.00  0.00     0.665 C 
HETATM   11  N           1     -22.376  -9.908  -0.128  0.00  0.00    -0.235 N 
HETATM   12  N           1     -23.416  -8.039   0.478  0.00  0.00    -0.235 N 
HETATM   13  H           1     -21.711 -10.402  -0.764  0.00  0.00     0.174 HD
HETATM   14  H           1     -22.854 -10.431   0.640  0.00  0.00     0.174 HD
HETATM   15  H           1     -23.605  -7.015   0.346  0.00  0.00     0.174 HD
HETATM   16  H           1     -23.896  -8.566   1.249  0.00  0.00     0.174 HD
HETATM   17  H           1     -21.363  -8.502  -1.860  0.00  0.00     0.177 HD
ENDBRANCH   8   9
ENDBRANCH   7   8
ENDBRANCH   6   7
ENDBRANCH   5   6
BRANCH   5  18
HETATM   18  C           1     -20.478  -8.274  -4.879  0.00  0.00     0.196 C 
HETATM   19  O           1     -21.058  -9.090  -4.131  0.00  0.00    -0.646 OA
HETATM   20  O           1     -19.564  -8.663  -5.638  0.00  0.00    -0.646 OA
ENDBRANCH   5  18
ENDBRANCH   2   5
BRANCH   3  21
HETATM   21  C           1     -21.450  -4.776  -8.058  0.00  0.00     0.274 C 
BRANCH  21  22
HETATM   22  C           1     -20.256  -4.260  -8.851  0.00  0.00     0.042 C 
BRANCH  22  23
HETATM   23  C           1     -20.463  -4.557 -10.330  0.00  0.00     0.004 C 
BRANCH  23  24
HETATM   24  C           1     -20.563  -3.247 -11.101  0.00  0.00     0.027 C 
BRANCH  24  25
HETATM   25  C           1     -21.978  -3.081 -11.638  0.00  0.00     0.229 C 
BRANCH  25  26
HETATM   26  N           1     -22.032  -3.547 -13.062  0.00  0.00    -0.079 N 
HETATM   27  H           1     -22.136  -4.587 -13.085  0.00  0.00     0.274 HD
HETATM   28  H           1     -22.849  -3.106 -13.543  0.00  0.00     0.274 HD
HETATM   29  H           1     -21.150  -3.274 -13.552  0.00  0.00     0.274 HD
ENDBRANCH  25  26
ENDBRANCH  24  25
ENDBRANCH  23  24
ENDBRANCH  22  23
ENDBRANCH  21  22
BRANCH  21  30
HETATM   30  N           1     -22.481  -3.693  -7.945  0.00  0.00    -0.067 N 
HETATM   31  H           1     -23.412  -4.066  -8.239  0.00  0.00     0.275 HD
HETATM   32  H           1     -22.535  -3.365  -6.954  0.00  0.00     0.275 HD
HETATM   33  H           1     -22.215  -2.893  -8.563  0.00  0.00     0.275 HD
ENDBRANCH  21  30
ENDBRANCH   3  21
TORSDOF 13
ENDMDL
MODEL 6
REMARK VINA RESULT:      -6.3     12.537     15.786
REMARK  13 active torsions:
REMARK  status: ('A' for Active; 'I' for Inactive)
REMARK    1  A    between atoms: C_2  and  C_28 
REMARK    2  A    between atoms: C_2  and  C_3 
REMARK    3  A    between atoms: C_3  and  C_4 
REMARK    4  A    between atoms: C_4  and  C_5 
REMARK    5  A    between atoms: C_5  and  N_27 
REMARK    6  A    between atoms: N_6  and  C_12 
REMARK       I    between atoms: N_6  and  C_7 
REMARK    7  A    between atoms: C_7  and  C_28 
REMARK       I    between atoms: C_9  and  N_17 
REMARK       I    between atoms: C_9  and  N_24 
REMARK    8  A    between atoms: C_12  and  C_14 
REMARK    9  A    between atoms: C_12  and  C_29 
REMARK   10  A    between atoms: C_14  and  C_30 
REMARK   11  A    between atoms: C_23  and  N_26 
REMARK   12  A    between atoms: C_23  and  C_30 
REMARK   13  A    between atoms: C_28  and  N_32 
ROOT
HETATM    1  H           1     -22.319  -5.842  -8.035  0.00  0.00     0.163 HD
HETATM    2  N           1     -22.146  -4.847  -8.100  0.00  0.00    -0.345 N 
HETATM    3  C           1     -22.945  -4.062  -8.887  0.00  0.00     0.249 C 
HETATM    4  O           1     -22.737  -2.874  -8.965  0.00  0.00    -0.271 OA
ENDROOT
BRANCH   2   5
HETATM    5  C           1     -21.051  -4.253  -7.359  0.00  0.00     0.185 C 
BRANCH   5   6
HETATM    6  C           1     -20.994  -4.861  -5.963  0.00  0.00     0.038 C 
BRANCH   6   7
HETATM    7  C           1     -21.393  -6.329  -6.031  0.00  0.00     0.023 C 
BRANCH   7   8
HETATM    8  C           1     -22.313  -6.660  -4.863  0.00  0.00     0.138 C 
BRANCH   8   9
HETATM    9  N           1     -21.540  -7.325  -3.804  0.00  0.00    -0.227 N 
HETATM   10  C           1     -21.623  -6.916  -2.609  0.00  0.00     0.665 C 
HETATM   11  N           1     -20.940  -7.504  -1.672  0.00  0.00    -0.235 N 
HETATM   12  N           1     -22.371  -5.934  -2.326  0.00  0.00    -0.235 N 
HETATM   13  H           1     -20.323  -8.314  -1.905  0.00  0.00     0.174 HD
HETATM   14  H           1     -21.009  -7.166  -0.685  0.00  0.00     0.174 HD
HETATM   15  H           1     -22.923  -5.459  -3.083  0.00  0.00     0.174 HD
HETATM   16  H           1     -22.440  -5.595  -1.335  0.00  0.00     0.174 HD
HETATM   17  H           1     -20.920  -8.139  -4.038  0.00  0.00     0.177 HD
ENDBRANCH   8   9
ENDBRANCH   7   8
ENDBRANCH   6   7
ENDBRANCH   5   6
BRANCH   5  18
HETATM   18  C           1     -19.752  -4.522  -8.078  0.00  0.00     0.196 C 
HETATM   19  O           1     -18.667  -4.444  -7.461  0.00  0.00    -0.646 OA
HETATM   20  O           1     -19.762  -4.823  -9.291  0.00  0.00    -0.646 OA
ENDBRANCH   5  18
ENDBRANCH   2   5
BRANCH   3  21
HETATM   21  C           1     -24.085  -4.681  -9.660  0.00  0.00     0.274 C 
BRANCH  21  22
HETATM   22  C           1     -23.698  -4.800 -11.128  0.00  0.00     0.042 C 
BRANCH  22  23
HETATM   23  C           1     -24.170  -3.563 -11.880  0.00  0.00     0.004 C 
BRANCH  23  24
HETATM   24  C           1     -22.963  -2.811 -12.428  0.00  0.00     0.027 C 
BRANCH  24  25
HETATM   25  C           1     -21.718  -3.676 -12.284  0.00  0.00     0.229 C 
BRANCH  25  26
HETATM   26  N           1     -20.682  -2.935 -11.493  0.00  0.00    -0.079 N 
HETATM   27  H           1     -19.882  -2.682 -12.116  0.00  0.00     0.274 HD
HETATM   28  H           1     -21.103  -2.064 -11.096  0.00  0.00     0.274 HD
HETATM   29  H           1     -20.339  -3.542 -10.714  0.00  0.00     0.274 HD
ENDBRANCH  25  26
ENDBRANCH  24  25
ENDBRANCH  23  24
ENDBRANCH  22  23
ENDBRANCH  21  22
BRANCH  21  30
HETATM   30  N           1     -25.302  -3.813  -9.533  0.00  0.00    -0.067 N 
HETATM   31  H           1     -25.973  -4.250  -8.861  0.00  0.00     0.275 HD
HETATM   32  H           1     -25.022  -2.870  -9.181  0.00  0.00     0.275 HD
HETATM   33  H           1     -25.759  -3.715 -10.467  0.00  0.00     0.275 HD
ENDBRANCH  21  30
ENDBRANCH   3  21
TORSDOF 13
ENDMDL
MODEL 7
REMARK VINA RESULT:      -6.2     13.732     15.811
REMARK  13 active torsions:
REMARK  status: ('A' for Active; 'I' for Inactive)
REMARK    1  A    between atoms: C_2  and  C_28 
REMARK    2  A    between atoms: C_2  and  C_3 
REMARK    3  A    between atoms: C_3  and  C_4 
REMARK    4  A    between atoms: C_4  and  C_5 
REMARK    5  A    between atoms: C_5  and  N_27 
REMARK    6  A    between atoms: N_6  and  C_12 
REMARK       I    between atoms: N_6  and  C_7 
REMARK    7  A    between atoms: C_7  and  C_28 
REMARK       I    between atoms: C_9  and  N_17 
REMARK       I    between atoms: C_9  and  N_24 
REMARK    8  A    between atoms: C_12  and  C_14 
REMARK    9  A    between atoms: C_12  and  C_29 
REMARK   10  A    between atoms: C_14  and  C_30 
REMARK   11  A    between atoms: C_23  and  N_26 
REMARK   12  A    between atoms: C_23  and  C_30 
REMARK   13  A    between atoms: C_28  and  N_32 
ROOT
HETATM    1  H           1     -20.475  -4.485  -4.653  0.00  0.00     0.163 HD
HETATM    2  N           1     -20.942  -5.269  -5.090  0.00  0.00    -0.345 N 
HETATM    3  C           1     -21.424  -6.295  -4.322  0.00  0.00     0.249 C 
HETATM    4  O           1     -21.980  -7.231  -4.844  0.00  0.00    -0.271 OA
ENDROOT
BRANCH   2   5
HETATM    5  C           1     -21.099  -5.307  -6.531  0.00  0.00     0.185 C 
BRANCH   5   6
HETATM    6  C           1     -21.611  -3.958  -7.021  0.00  0.00     0.038 C 
BRANCH   6   7
HETATM    7  C           1     -22.701  -4.175  -8.062  0.00  0.00     0.023 C 
BRANCH   7   8
HETATM    8  C           1     -22.077  -4.221  -9.450  0.00  0.00     0.138 C 
BRANCH   8   9
HETATM    9  N           1     -22.954  -3.531 -10.406  0.00  0.00    -0.227 N 
HETATM   10  C           1     -22.459  -2.970 -11.428  0.00  0.00     0.665 C 
HETATM   11  N           1     -23.235  -2.360 -12.274  0.00  0.00    -0.235 N 
HETATM   12  N           1     -21.209  -3.005 -11.626  0.00  0.00    -0.235 N 
HETATM   13  H           1     -24.266  -2.332 -12.110  0.00  0.00     0.174 HD
HETATM   14  H           1     -22.827  -1.897 -13.117  0.00  0.00     0.174 HD
HETATM   15  H           1     -20.583  -3.498 -10.943  0.00  0.00     0.174 HD
HETATM   16  H           1     -20.799  -2.540 -12.474  0.00  0.00     0.174 HD
HETATM   17  H           1     -23.990  -3.502 -10.242  0.00  0.00     0.177 HD
ENDBRANCH   8   9
ENDBRANCH   7   8
ENDBRANCH   6   7
ENDBRANCH   5   6
BRANCH   5  18
HETATM   18  C           1     -19.767  -5.603  -7.175  0.00  0.00     0.196 C 
HETATM   19  O           1     -19.083  -4.673  -7.655  0.00  0.00    -0.646 OA
HETATM   20  O           1     -19.349  -6.780  -7.229  0.00  0.00    -0.646 OA
ENDBRANCH   5  18
ENDBRANCH   2   5
BRANCH   3  21
HETATM   21  C           1     -21.259  -6.256  -2.822  0.00  0.00     0.274 C 
BRANCH  21  22
HETATM   22  C           1     -20.867  -7.638  -2.317  0.00  0.00     0.042 C 
BRANCH  22  23
HETATM   23  C           1     -21.452  -7.857  -0.928  0.00  0.00     0.004 C 
BRANCH  23  24
HETATM   24  C           1     -21.850  -9.319  -0.770  0.00  0.00     0.027 C 
BRANCH  24  25
HETATM   25  C           1     -23.176  -9.406  -0.025  0.00  0.00     0.229 C 
BRANCH  25  26
HETATM   26  N           1     -23.531  -8.057   0.525  0.00  0.00    -0.079 N 
HETATM   27  H           1     -24.521  -7.831   0.283  0.00  0.00     0.274 HD
HETATM   28  H           1     -23.421  -8.064   1.565  0.00  0.00     0.274 HD
HETATM   29  H           1     -22.897  -7.335   0.114  0.00  0.00     0.274 HD
ENDBRANCH  25  26
ENDBRANCH  24  25
ENDBRANCH  23  24
ENDBRANCH  22  23
ENDBRANCH  21  22
BRANCH  21  30
HETATM   30  N           1     -22.554  -5.842  -2.189  0.00  0.00    -0.067 N 
HETATM   31  H           1     -22.404  -5.668  -1.169  0.00  0.00     0.275 HD
HETATM   32  H           1     -22.900  -4.967  -2.643  0.00  0.00     0.275 HD
HETATM   33  H           1     -23.261  -6.602  -2.312  0.00  0.00     0.275 HD
ENDBRANCH  21  30
ENDBRANCH   3  21
TORSDOF 13
ENDMDL
MODEL 8
REMARK VINA RESULT:      -5.9      2.177      7.653
REMARK  13 active torsions:
REMARK  status: ('A' for Active; 'I' for Inactive)
REMARK    1  A    between atoms: C_2  and  C_28 
REMARK    2  A    between atoms: C_2  and  C_3 
REMARK    3  A    between atoms: C_3  and  C_4 
REMARK    4  A    between atoms: C_4  and  C_5 
REMARK    5  A    between atoms: C_5  and  N_27 
REMARK    6  A    between atoms: N_6  and  C_12 
REMARK       I    between atoms: N_6  and  C_7 
REMARK    7  A    between atoms: C_7  and  C_28 
REMARK       I    between atoms: C_9  and  N_17 
REMARK       I    between atoms: C_9  and  N_24 
REMARK    8  A    between atoms: C_12  and  C_14 
REMARK    9  A    between atoms: C_12  and  C_29 
REMARK   10  A    between atoms: C_14  and  C_30 
REMARK   11  A    between atoms: C_23  and  N_26 
REMARK   12  A    between atoms: C_23  and  C_30 
REMARK   13  A    between atoms: C_28  and  N_32 
ROOT
HETATM    1  H           1     -35.919  -2.590 -12.562  0.00  0.00     0.163 HD
HETATM    2  N           1     -35.319  -2.534 -11.750  0.00  0.00    -0.345 N 
HETATM    3  C           1     -35.362  -1.431 -10.940  0.00  0.00     0.249 C 
HETATM    4  O           1     -34.644  -1.365  -9.970  0.00  0.00    -0.271 OA
ENDROOT
BRANCH   2   5
HETATM    5  C           1     -34.411  -3.623 -11.443  0.00  0.00     0.185 C 
BRANCH   5   6
HETATM    6  C           1     -35.214  -4.855 -11.045  0.00  0.00     0.038 C 
BRANCH   6   7
HETATM    7  C           1     -34.351  -5.766 -10.182  0.00  0.00     0.023 C 
BRANCH   7   8
HETATM    8  C           1     -35.089  -7.074  -9.929  0.00  0.00     0.138 C 
BRANCH   8   9
HETATM    9  N           1     -34.463  -8.151 -10.711  0.00  0.00    -0.227 N 
HETATM   10  C           1     -33.994  -9.169 -10.124  0.00  0.00     0.665 C 
HETATM   11  N           1     -33.441 -10.120 -10.815  0.00  0.00    -0.235 N 
HETATM   12  N           1     -34.064  -9.261  -8.863  0.00  0.00    -0.235 N 
HETATM   13  H           1     -33.383 -10.044 -11.856  0.00  0.00     0.174 HD
HETATM   14  H           1     -33.053 -10.961 -10.330  0.00  0.00     0.174 HD
HETATM   15  H           1     -34.511  -8.492  -8.304  0.00  0.00     0.174 HD
HETATM   16  H           1     -33.674 -10.105  -8.376  0.00  0.00     0.174 HD
HETATM   17  H           1     -34.406  -8.075 -11.756  0.00  0.00     0.177 HD
ENDBRANCH   8   9
ENDBRANCH   7   8
ENDBRANCH   6   7
ENDBRANCH   5   6
BRANCH   5  18
HETATM   18  C           1     -33.576  -3.938 -12.660  0.00  0.00     0.196 C 
HETATM   19  O           1     -32.402  -4.346 -12.524  0.00  0.00    -0.646 OA
HETATM   20  O           1     -34.058  -3.791 -13.803  0.00  0.00    -0.646 OA
ENDBRANCH   5  18
ENDBRANCH   2   5
BRANCH   3  21
HETATM   21  C           1     -36.306  -0.298 -11.259  0.00  0.00     0.274 C 
BRANCH  21  22
HETATM   22  C           1     -35.702   0.575 -12.351  0.00  0.00     0.042 C 
BRANCH  22  23
HETATM   23  C           1     -36.215   0.117 -13.710  0.00  0.00     0.004 C 
BRANCH  23  24
HETATM   24  C           1     -35.400   0.782 -14.811  0.00  0.00     0.027 C 
BRANCH  24  25
HETATM   25  C           1     -36.316   1.146 -15.972  0.00  0.00     0.229 C 
BRANCH  25  26
HETATM   26  N           1     -36.207   2.615 -16.254  0.00  0.00    -0.079 N 
HETATM   27  H           1     -36.805   2.858 -17.076  0.00  0.00     0.274 HD
HETATM   28  H           1     -36.527   3.156 -15.419  0.00  0.00     0.274 HD
HETATM   29  H           1     -35.211   2.856 -16.463  0.00  0.00     0.274 HD
ENDBRANCH  25  26
ENDBRANCH  24  25
ENDBRANCH  23  24
ENDBRANCH  22  23
ENDBRANCH  21  22
BRANCH  21  30
HETATM   30  N           1     -36.529   0.527 -10.026  0.00  0.00    -0.067 N 
HETATM   31  H           1     -37.390   1.108 -10.146  0.00  0.00     0.275 HD
HETATM   32  H           1     -36.647  -0.103  -9.201  0.00  0.00     0.275 HD
HETATM   33  H           1     -35.706   1.153  -9.872  0.00  0.00     0.275 HD
ENDBRANCH  21  30
ENDBRANCH   3  21
TORSDOF 13
ENDMDL
MODEL 9
REMARK VINA RESULT:      -5.8     12.426     14.228
REMARK  13 active torsions:
REMARK  status: ('A' for Active; 'I' for Inactive)
REMARK    1  A    between atoms: C_2  and  C_28 
REMARK    2  A    between atoms: C_2  and  C_3 
REMARK    3  A    between atoms: C_3  and  C_4 
REMARK    4  A    between atoms: C_4  and  C_5 
REMARK    5  A    between atoms: C_5  and  N_27 
REMARK    6  A    between atoms: N_6  and  C_12 
REMARK       I    between atoms: N_6  and  C_7 
REMARK    7  A    between atoms: C_7  and  C_28 
REMARK       I    between atoms: C_9  and  N_17 
REMARK       I    between atoms: C_9  and  N_24 
REMARK    8  A    between atoms: C_12  and  C_14 
REMARK    9  A    between atoms: C_12  and  C_29 
REMARK   10  A    between atoms: C_14  and  C_30 
REMARK   11  A    between atoms: C_23  and  N_26 
REMARK   12  A    between atoms: C_23  and  C_30 
REMARK   13  A    between atoms: C_28  and  N_32 
ROOT
HETATM    1  H           1     -21.088  -6.089  -8.618  0.00  0.00     0.163 HD
HETATM    2  N           1     -21.234  -5.113  -8.397  0.00  0.00    -0.345 N 
HETATM    3  C           1     -20.899  -4.632  -7.160  0.00  0.00     0.249 C 
HETATM    4  O           1     -21.074  -3.466  -6.896  0.00  0.00    -0.271 OA
ENDROOT
BRANCH   2   5
HETATM    5  C           1     -21.798  -4.222  -9.392  0.00  0.00     0.185 C 
BRANCH   5   6
HETATM    6  C           1     -21.108  -4.453 -10.730  0.00  0.00     0.038 C 
BRANCH   6   7
HETATM    7  C           1     -20.677  -3.116 -11.318  0.00  0.00     0.023 C 
BRANCH   7   8
HETATM    8  C           1     -21.863  -2.461 -12.014  0.00  0.00     0.138 C 
BRANCH   8   9
HETATM    9  N           1     -22.402  -3.375 -13.031  0.00  0.00    -0.227 N 
HETATM   10  C           1     -23.653  -3.460 -13.207  0.00  0.00     0.665 C 
HETATM   11  N           1     -24.130  -4.269 -14.106  0.00  0.00    -0.235 N 
HETATM   12  N           1     -24.440  -2.757 -12.507  0.00  0.00    -0.235 N 
HETATM   13  H           1     -23.481  -4.849 -14.684  0.00  0.00     0.174 HD
HETATM   14  H           1     -25.162  -4.338 -14.251  0.00  0.00     0.174 HD
HETATM   15  H           1     -24.054  -2.104 -11.780  0.00  0.00     0.174 HD
HETATM   16  H           1     -25.477  -2.827 -12.652  0.00  0.00     0.174 HD
HETATM   17  H           1     -21.751  -3.959 -13.612  0.00  0.00     0.177 HD
ENDBRANCH   8   9
ENDBRANCH   7   8
ENDBRANCH   6   7
ENDBRANCH   5   6
BRANCH   5  18
HETATM   18  C           1     -23.275  -4.497  -9.534  0.00  0.00     0.196 C 
HETATM   19  O           1     -24.082  -4.032  -8.699  0.00  0.00    -0.646 OA
HETATM   20  O           1     -23.692  -5.191 -10.486  0.00  0.00    -0.646 OA
ENDBRANCH   5  18
ENDBRANCH   2   5
BRANCH   3  21
HETATM   21  C           1     -20.312  -5.560  -6.124  0.00  0.00     0.274 C 
BRANCH  21  22
HETATM   22  C           1     -21.136  -6.840  -6.062  0.00  0.00     0.042 C 
BRANCH  22  23
HETATM   23  C           1     -21.888  -6.896  -4.738  0.00  0.00     0.004 C 
BRANCH  23  24
HETATM   24  C           1     -21.483  -8.152  -3.977  0.00  0.00     0.027 C 
BRANCH  24  25
HETATM   25  C           1     -20.505  -8.962  -4.819  0.00  0.00     0.229 C 
BRANCH  25  26
HETATM   26  N           1     -19.190  -9.058  -4.105  0.00  0.00    -0.079 N 
HETATM   27  H           1     -18.897  -8.108  -3.783  0.00  0.00     0.274 HD
HETATM   28  H           1     -19.287  -9.691  -3.278  0.00  0.00     0.274 HD
HETATM   29  H           1     -18.468  -9.444  -4.755  0.00  0.00     0.274 HD
ENDBRANCH  25  26
ENDBRANCH  24  25
ENDBRANCH  23  24
ENDBRANCH  22  23
ENDBRANCH  21  22
BRANCH  21  30
HETATM   30  N           1     -20.332  -4.887  -4.784  0.00  0.00    -0.067 N 
HETATM   31  H           1     -21.278  -4.996  -4.353  0.00  0.00     0.275 HD
HETATM   32  H           1     -19.615  -5.325  -4.163  0.00  0.00     0.275 HD
HETATM   33  H           1     -20.118  -3.871  -4.901  0.00  0.00     0.275 HD
ENDBRANCH  21  30
ENDBRANCH   3  21
TORSDOF 13
ENDMDL
