MODEL 1
REMARK VINA RESULT:      -6.3      0.000      0.000
REMARK  6 active torsions:
REMARK  status: ('A' for Active; 'I' for Inactive)
REMARK    1  A    between atoms: C_5  and  C_12 
REMARK       I    between atoms: C_8  and  N_11 
REMARK    2  A    between atoms: C_8  and  C_13 
REMARK    3  A    between atoms: N_11  and  C_16 
REMARK    4  A    between atoms: C_12  and  C_16 
REMARK    5  A    between atoms: C_13  and  N_14 
REMARK    6  A    between atoms: C_15  and  C_16 
ROOT
HETATM    1  O           1     -35.696  -1.094 -14.037  0.00  0.00    -0.272 OA
HETATM    2  H           1     -34.076   0.202 -11.683  0.00  0.00     0.163 HD
HETATM    3  C           1     -35.080  -0.246 -13.437  0.00  0.00     0.243 C 
HETATM    4  N           1     -34.593  -0.510 -12.185  0.00  0.00    -0.345 N 
ENDROOT
BRANCH   4   5
HETATM    5  C           1     -34.817  -1.807 -11.578  0.00  0.00     0.185 C 
BRANCH   5   6
HETATM    6  C           1     -33.537  -2.279 -10.903  0.00  0.00     0.040 C 
BRANCH   6   7
HETATM    7  C           1     -33.200  -3.686 -11.378  0.00  0.00    -0.020 C 
HETATM    8  C           1     -33.907  -4.703 -10.493  0.00  0.00     0.009 C 
HETATM    9  C           1     -33.662  -3.859 -12.819  0.00  0.00     0.009 C 
ENDBRANCH   6   7
ENDBRANCH   5   6
BRANCH   5  10
HETATM   10  C           1     -35.917  -1.697 -10.551  0.00  0.00     0.196 C 
HETATM   11  O           1     -35.935  -0.735  -9.754  0.00  0.00    -0.646 OA
HETATM   12  O           1     -36.812  -2.569 -10.499  0.00  0.00    -0.646 OA
ENDBRANCH   5  10
ENDBRANCH   4   5
BRANCH   3  13
HETATM   13  C           1     -34.846   1.105 -14.068  0.00  0.00     0.332 C 
BRANCH  13  14
HETATM   14  N           1     -35.877   1.346 -15.130  0.00  0.00    -0.071 N 
HETATM   15  H           1     -36.710   0.739 -14.951  0.00  0.00     0.274 HD
HETATM   16  H           1     -36.168   2.349 -15.113  0.00  0.00     0.274 HD
HETATM   17  H           1     -35.474   1.117 -16.066  0.00  0.00     0.274 HD
ENDBRANCH  13  14
ENDBRANCH   3  13
TORSDOF 6
ENDMDL
MODEL 2
REMARK VINA RESULT:      -6.1     11.076     11.855
REMARK  6 active torsions:
REMARK  status: ('A' for Active; 'I' for Inactive)
REMARK    1  A    between atoms: C_5  and  C_12 
REMARK       I    between atoms: C_8  and  N_11 
REMARK    2  A    between atoms: C_8  and  C_13 
REMARK    3  A    between atoms: N_11  and  C_16 
REMARK    4  A    between atoms: C_12  and  C_16 
REMARK    5  A    between atoms: C_13  and  N_14 
REMARK    6  A    between atoms: C_15  and  C_16 
ROOT
HETATM    1  O           1     -23.449  -3.322 -14.979  0.00  0.00    -0.272 OA
HETATM    2  H           1     -22.974  -1.086 -12.830  0.00  0.00     0.163 HD
HETATM    3  C           1     -23.230  -2.216 -14.545  0.00  0.00     0.243 C 
HETATM    4  N           1     -23.157  -2.013 -13.193  0.00  0.00    -0.345 N 
ENDROOT
BRANCH   4   5
HETATM    5  C           1     -23.341  -3.125 -12.282  0.00  0.00     0.185 C 
BRANCH   5   6
HETATM    6  C           1     -22.392  -2.976 -11.100  0.00  0.00     0.040 C 
BRANCH   6   7
HETATM    7  C           1     -21.794  -4.333 -10.754  0.00  0.00    -0.020 C 
HETATM    8  C           1     -20.297  -4.313 -11.033  0.00  0.00     0.009 C 
HETATM    9  C           1     -22.032  -4.630  -9.279  0.00  0.00     0.009 C 
ENDBRANCH   6   7
ENDBRANCH   5   6
BRANCH   5  10
HETATM   10  C           1     -24.766  -3.136 -11.785  0.00  0.00     0.196 C 
HETATM   11  O           1     -25.003  -3.294 -10.568  0.00  0.00    -0.646 OA
HETATM   12  O           1     -25.710  -2.985 -12.591  0.00  0.00    -0.646 OA
ENDBRANCH   5  10
ENDBRANCH   4   5
BRANCH   3  13
HETATM   13  C           1     -23.038  -1.058 -15.493  0.00  0.00     0.332 C 
BRANCH  13  14
HETATM   14  N           1     -24.157  -0.076 -15.317  0.00  0.00    -0.071 N 
HETATM   15  H           1     -24.976  -0.555 -14.877  0.00  0.00     0.274 HD
HETATM   16  H           1     -23.841   0.707 -14.701  0.00  0.00     0.274 HD
HETATM   17  H           1     -24.436   0.306 -16.248  0.00  0.00     0.274 HD
ENDBRANCH  13  14
ENDBRANCH   3  13
TORSDOF 6
ENDMDL
MODEL 3
REMARK VINA RESULT:      -5.6     10.991     11.852
REMARK  6 active torsions:
REMARK  status: ('A' for Active; 'I' for Inactive)
REMARK    1  A    between atoms: C_5  and  C_12 
REMARK       I    between atoms: C_8  and  N_11 
REMARK    2  A    between atoms: C_8  and  C_13 
REMARK    3  A    between atoms: N_11  and  C_16 
REMARK    4  A    between atoms: C_12  and  C_16 
REMARK    5  A    between atoms: C_13  and  N_14 
REMARK    6  A    between atoms: C_15  and  C_16 
ROOT
HETATM    1  O           1     -24.496  -3.855 -13.599  0.00  0.00    -0.272 OA
HETATM    2  H           1     -22.797  -2.289 -11.476  0.00  0.00     0.163 HD
HETATM    3  C           1     -23.792  -2.979 -13.155  0.00  0.00     0.243 C 
HETATM    4  N           1     -23.387  -3.023 -11.848  0.00  0.00    -0.345 N 
ENDROOT
BRANCH   4   5
HETATM    5  C           1     -23.802  -4.121 -10.997  0.00  0.00     0.185 C 
BRANCH   5   6
HETATM    6  C           1     -22.572  -4.828 -10.444  0.00  0.00     0.040 C 
BRANCH   6   7
HETATM    7  C           1     -21.438  -3.825 -10.284  0.00  0.00    -0.020 C 
HETATM    8  C           1     -20.844  -3.950  -8.887  0.00  0.00     0.009 C 
HETATM    9  C           1     -20.359  -4.109 -11.321  0.00  0.00     0.009 C 
ENDBRANCH   6   7
ENDBRANCH   5   6
BRANCH   5  10
HETATM   10  C           1     -24.631  -3.584  -9.855  0.00  0.00     0.196 C 
HETATM   11  O           1     -25.741  -3.057 -10.081  0.00  0.00    -0.646 OA
HETATM   12  O           1     -24.205  -3.668  -8.682  0.00  0.00    -0.646 OA
ENDBRANCH   5  10
ENDBRANCH   4   5
BRANCH   3  13
HETATM   13  C           1     -23.359  -1.836 -14.041  0.00  0.00     0.332 C 
BRANCH  13  14
HETATM   14  N           1     -24.543  -0.971 -14.355  0.00  0.00    -0.071 N 
HETATM   15  H           1     -25.133  -1.438 -15.080  0.00  0.00     0.274 HD
HETATM   16  H           1     -25.108  -0.824 -13.488  0.00  0.00     0.274 HD
HETATM   17  H           1     -24.213  -0.047 -14.716  0.00  0.00     0.274 HD
ENDBRANCH  13  14
ENDBRANCH   3  13
TORSDOF 6
ENDMDL
MODEL 4
REMARK VINA RESULT:      -5.5     11.808     13.261
REMARK  6 active torsions:
REMARK  status: ('A' for Active; 'I' for Inactive)
REMARK    1  A    between atoms: C_5  and  C_12 
REMARK       I    between atoms: C_8  and  N_11 
REMARK    2  A    between atoms: C_8  and  C_13 
REMARK    3  A    between atoms: N_11  and  C_16 
REMARK    4  A    between atoms: C_12  and  C_16 
REMARK    5  A    between atoms: C_13  and  N_14 
REMARK    6  A    between atoms: C_15  and  C_16 
ROOT
HETATM    1  O           1     -21.716  -3.326  -7.767  0.00  0.00    -0.272 OA
HETATM    2  H           1     -23.848  -5.371  -8.823  0.00  0.00     0.163 HD
HETATM    3  C           1     -22.463  -4.275  -7.744  0.00  0.00     0.243 C 
HETATM    4  N           1     -23.223  -4.575  -8.843  0.00  0.00    -0.345 N 
ENDROOT
BRANCH   4   5
HETATM    5  C           1     -23.132  -3.754 -10.034  0.00  0.00     0.185 C 
BRANCH   5   6
HETATM    6  C           1     -22.579  -4.586 -11.183  0.00  0.00     0.040 C 
BRANCH   6   7
HETATM    7  C           1     -21.182  -4.096 -11.539  0.00  0.00    -0.020 C 
HETATM    8  C           1     -21.122  -2.582 -11.389  0.00  0.00     0.009 C 
HETATM    9  C           1     -20.165  -4.740 -10.606  0.00  0.00     0.009 C 
ENDBRANCH   6   7
ENDBRANCH   5   6
BRANCH   5  10
HETATM   10  C           1     -24.505  -3.243 -10.397  0.00  0.00     0.196 C 
HETATM   11  O           1     -24.853  -3.183 -11.596  0.00  0.00    -0.646 OA
HETATM   12  O           1     -25.295  -2.881  -9.497  0.00  0.00    -0.646 OA
ENDBRANCH   5  10
ENDBRANCH   4   5
BRANCH   3  13
HETATM   13  C           1     -22.557  -5.131  -6.505  0.00  0.00     0.332 C 
BRANCH  13  14
HETATM   14  N           1     -23.988  -5.221  -6.067  0.00  0.00    -0.071 N 
HETATM   15  H           1     -24.329  -6.202  -6.190  0.00  0.00     0.274 HD
HETATM   16  H           1     -24.064  -4.950  -5.061  0.00  0.00     0.274 HD
HETATM   17  H           1     -24.571  -4.575  -6.646  0.00  0.00     0.274 HD
ENDBRANCH  13  14
ENDBRANCH   3  13
TORSDOF 6
ENDMDL
MODEL 5
REMARK VINA RESULT:      -5.2      1.806      2.409
REMARK  6 active torsions:
REMARK  status: ('A' for Active; 'I' for Inactive)
REMARK    1  A    between atoms: C_5  and  C_12 
REMARK       I    between atoms: C_8  and  N_11 
REMARK    2  A    between atoms: C_8  and  C_13 
REMARK    3  A    between atoms: N_11  and  C_16 
REMARK    4  A    between atoms: C_12  and  C_16 
REMARK    5  A    between atoms: C_13  and  N_14 
REMARK    6  A    between atoms: C_15  and  C_16 
ROOT
HETATM    1  O           1     -37.878  -1.020 -14.831  0.00  0.00    -0.272 OA
HETATM    2  H           1     -35.939   1.106 -13.580  0.00  0.00     0.163 HD
HETATM    3  C           1     -37.273   0.021 -14.732  0.00  0.00     0.243 C 
HETATM    4  N           1     -36.446   0.234 -13.662  0.00  0.00    -0.345 N 
ENDROOT
BRANCH   4   5
HETATM    5  C           1     -36.296  -0.790 -12.646  0.00  0.00     0.185 C 
BRANCH   5   6
HETATM    6  C           1     -34.816  -1.072 -12.426  0.00  0.00     0.040 C 
BRANCH   6   7
HETATM    7  C           1     -34.653  -2.420 -11.737  0.00  0.00    -0.020 C 
HETATM    8  C           1     -34.210  -3.461 -12.757  0.00  0.00     0.009 C 
HETATM    9  C           1     -33.602  -2.305 -10.640  0.00  0.00     0.009 C 
ENDBRANCH   6   7
ENDBRANCH   5   6
BRANCH   5  10
HETATM   10  C           1     -36.916  -0.312 -11.356  0.00  0.00     0.196 C 
HETATM   11  O           1     -38.075  -0.666 -11.050  0.00  0.00    -0.646 OA
HETATM   12  O           1     -36.269   0.439 -10.593  0.00  0.00    -0.646 OA
ENDBRANCH   5  10
ENDBRANCH   4   5
BRANCH   3  13
HETATM   13  C           1     -37.429   1.087 -15.789  0.00  0.00     0.332 C 
BRANCH  13  14
HETATM   14  N           1     -36.158   1.875 -15.894  0.00  0.00    -0.071 N 
HETATM   15  H           1     -36.283   2.649 -16.587  0.00  0.00     0.274 HD
HETATM   16  H           1     -35.920   2.281 -14.961  0.00  0.00     0.274 HD
HETATM   17  H           1     -35.383   1.248 -16.209  0.00  0.00     0.274 HD
ENDBRANCH  13  14
ENDBRANCH   3  13
TORSDOF 6
ENDMDL
MODEL 6
REMARK VINA RESULT:      -5.2     12.077     13.021
REMARK  6 active torsions:
REMARK  status: ('A' for Active; 'I' for Inactive)
REMARK    1  A    between atoms: C_5  and  C_12 
REMARK       I    between atoms: C_8  and  N_11 
REMARK    2  A    between atoms: C_8  and  C_13 
REMARK    3  A    between atoms: N_11  and  C_16 
REMARK    4  A    between atoms: C_12  and  C_16 
REMARK    5  A    between atoms: C_13  and  N_14 
REMARK    6  A    between atoms: C_15  and  C_16 
ROOT
HETATM    1  O           1     -23.528  -2.074 -12.655  0.00  0.00    -0.272 OA
HETATM    2  H           1     -21.255  -4.206 -13.020  0.00  0.00     0.163 HD
HETATM    3  C           1     -22.778  -2.821 -13.237  0.00  0.00     0.243 C 
HETATM    4  N           1     -21.882  -3.580 -12.531  0.00  0.00    -0.345 N 
ENDROOT
BRANCH   4   5
HETATM    5  C           1     -21.834  -3.486 -11.086  0.00  0.00     0.185 C 
BRANCH   5   6
HETATM    6  C           1     -22.943  -4.339 -10.485  0.00  0.00     0.040 C 
BRANCH   6   7
HETATM    7  C           1     -23.635  -3.563  -9.371  0.00  0.00    -0.020 C 
HETATM    8  C           1     -25.120  -3.443  -9.685  0.00  0.00     0.009 C 
HETATM    9  C           1     -23.452  -4.300  -8.051  0.00  0.00     0.009 C 
ENDBRANCH   6   7
ENDBRANCH   5   6
BRANCH   5  10
HETATM   10  C           1     -20.495  -3.982 -10.596  0.00  0.00     0.196 C 
HETATM   11  O           1     -19.671  -4.460 -11.405  0.00  0.00    -0.646 OA
HETATM   12  O           1     -20.211  -3.912  -9.380  0.00  0.00    -0.646 OA
ENDBRANCH   5  10
ENDBRANCH   4   5
BRANCH   3  13
HETATM   13  C           1     -22.829  -2.920 -14.742  0.00  0.00     0.332 C 
BRANCH  13  14
HETATM   14  N           1     -23.185  -1.582 -15.319  0.00  0.00    -0.071 N 
HETATM   15  H           1     -24.190  -1.583 -15.608  0.00  0.00     0.274 HD
HETATM   16  H           1     -23.031  -0.839 -14.600  0.00  0.00     0.274 HD
HETATM   17  H           1     -22.583  -1.390 -16.151  0.00  0.00     0.274 HD
ENDBRANCH  13  14
ENDBRANCH   3  13
TORSDOF 6
ENDMDL
MODEL 7
REMARK VINA RESULT:      -5.0     13.459     14.978
REMARK  6 active torsions:
REMARK  status: ('A' for Active; 'I' for Inactive)
REMARK    1  A    between atoms: C_5  and  C_12 
REMARK       I    between atoms: C_8  and  N_11 
REMARK    2  A    between atoms: C_8  and  C_13 
REMARK    3  A    between atoms: N_11  and  C_16 
REMARK    4  A    between atoms: C_12  and  C_16 
REMARK    5  A    between atoms: C_13  and  N_14 
REMARK    6  A    between atoms: C_15  and  C_16 
ROOT
HETATM    1  O           1     -21.066  -6.915  -6.873  0.00  0.00    -0.272 OA
HETATM    2  H           1     -21.635  -3.863  -6.419  0.00  0.00     0.163 HD
HETATM    3  C           1     -21.225  -5.886  -6.261  0.00  0.00     0.243 C 
HETATM    4  N           1     -21.500  -4.725  -6.933  0.00  0.00    -0.345 N 
ENDROOT
BRANCH   4   5
HETATM    5  C           1     -21.600  -4.731  -8.379  0.00  0.00     0.185 C 
BRANCH   5   6
HETATM    6  C           1     -22.593  -3.665  -8.823  0.00  0.00     0.040 C 
BRANCH   6   7
HETATM    7  C           1     -23.786  -4.329  -9.497  0.00  0.00    -0.020 C 
HETATM    8  C           1     -24.916  -3.318  -9.638  0.00  0.00     0.009 C 
HETATM    9  C           1     -23.376  -4.829 -10.876  0.00  0.00     0.009 C 
ENDBRANCH   6   7
ENDBRANCH   5   6
BRANCH   5  10
HETATM   10  C           1     -20.246  -4.438  -8.977  0.00  0.00     0.196 C 
HETATM   11  O           1     -19.952  -4.883 -10.107  0.00  0.00    -0.646 OA
HETATM   12  O           1     -19.418  -3.750  -8.340  0.00  0.00    -0.646 OA
ENDBRANCH   5  10
ENDBRANCH   4   5
BRANCH   3  13
HETATM   13  C           1     -21.122  -5.880  -4.755  0.00  0.00     0.332 C 
BRANCH  13  14
HETATM   14  N           1     -22.450  -6.244  -4.162  0.00  0.00    -0.071 N 
HETATM   15  H           1     -23.062  -5.397  -4.132  0.00  0.00     0.274 HD
HETATM   16  H           1     -22.904  -6.981  -4.747  0.00  0.00     0.274 HD
HETATM   17  H           1     -22.310  -6.608  -3.192  0.00  0.00     0.274 HD
ENDBRANCH  13  14
ENDBRANCH   3  13
TORSDOF 6
ENDMDL
MODEL 8
REMARK VINA RESULT:      -4.8     12.305     13.284
REMARK  6 active torsions:
REMARK  status: ('A' for Active; 'I' for Inactive)
REMARK    1  A    between atoms: C_5  and  C_12 
REMARK       I    between atoms: C_8  and  N_11 
REMARK    2  A    between atoms: C_8  and  C_13 
REMARK    3  A    between atoms: N_11  and  C_16 
REMARK    4  A    between atoms: C_12  and  C_16 
REMARK    5  A    between atoms: C_13  and  N_14 
REMARK    6  A    between atoms: C_15  and  C_16 
ROOT
HETATM    1  O           1     -22.972  -5.035 -11.734  0.00  0.00    -0.272 OA
HETATM    2  H           1     -21.840  -2.431 -10.400  0.00  0.00     0.163 HD
HETATM    3  C           1     -22.572  -3.897 -11.664  0.00  0.00     0.243 C 
HETATM    4  N           1     -22.175  -3.384 -10.458  0.00  0.00    -0.345 N 
ENDROOT
BRANCH   4   5
HETATM    5  C           1     -22.234  -4.206  -9.266  0.00  0.00     0.185 C 
BRANCH   5   6
HETATM    6  C           1     -21.104  -3.814  -8.323  0.00  0.00     0.040 C 
BRANCH   6   7
HETATM    7  C           1     -20.144  -4.985  -8.164  0.00  0.00    -0.020 C 
HETATM    8  C           1     -18.831  -4.487  -7.575  0.00  0.00     0.009 C 
HETATM    9  C           1     -20.759  -6.022  -7.232  0.00  0.00     0.009 C 
ENDBRANCH   6   7
ENDBRANCH   5   6
BRANCH   5  10
HETATM   10  C           1     -23.560  -3.997  -8.578  0.00  0.00     0.196 C 
HETATM   11  O           1     -24.508  -3.464  -9.194  0.00  0.00    -0.646 OA
HETATM   12  O           1     -23.712  -4.360  -7.390  0.00  0.00    -0.646 OA
ENDBRANCH   5  10
ENDBRANCH   4   5
BRANCH   3  13
HETATM   13  C           1     -22.510  -3.041 -12.905  0.00  0.00     0.332 C 
BRANCH  13  14
HETATM   14  N           1     -23.776  -2.247 -13.029  0.00  0.00    -0.071 N 
HETATM   15  H           1     -24.032  -2.152 -14.038  0.00  0.00     0.274 HD
HETATM   16  H           1     -24.547  -2.737 -12.520  0.00  0.00     0.274 HD
HETATM   17  H           1     -23.635  -1.298 -12.615  0.00  0.00     0.274 HD
ENDBRANCH  13  14
ENDBRANCH   3  13
TORSDOF 6
ENDMDL
MODEL 9
REMARK VINA RESULT:      -4.6     15.469     17.090
REMARK  6 active torsions:
REMARK  status: ('A' for Active; 'I' for Inactive)
REMARK    1  A    between atoms: C_5  and  C_12 
REMARK       I    between atoms: C_8  and  N_11 
REMARK    2  A    between atoms: C_8  and  C_13 
REMARK    3  A    between atoms: N_11  and  C_16 
REMARK    4  A    between atoms: C_12  and  C_16 
REMARK    5  A    between atoms: C_13  and  N_14 
REMARK    6  A    between atoms: C_15  and  C_16 
ROOT
HETATM    1  O           1     -19.285  -8.662  -4.376  0.00  0.00    -0.272 OA
HETATM    2  H           1     -21.736  -8.534  -6.331  0.00  0.00     0.163 HD
HETATM    3  C           1     -20.159  -9.071  -5.102  0.00  0.00     0.243 C 
HETATM    4  N           1     -21.004  -8.190  -5.722  0.00  0.00    -0.345 N 
ENDROOT
BRANCH   4   5
HETATM    5  C           1     -20.849  -6.764  -5.507  0.00  0.00     0.185 C 
BRANCH   5   6
HETATM    6  C           1     -20.899  -6.041  -6.846  0.00  0.00     0.040 C 
BRANCH   6   7
HETATM    7  C           1     -20.338  -4.635  -6.686  0.00  0.00    -0.020 C 
HETATM    8  C           1     -19.039  -4.514  -7.472  0.00  0.00     0.009 C 
HETATM    9  C           1     -21.347  -3.623  -7.214  0.00  0.00     0.009 C 
ENDBRANCH   6   7
ENDBRANCH   5   6
BRANCH   5  10
HETATM   10  C           1     -21.966  -6.267  -4.623  0.00  0.00     0.196 C 
HETATM   11  O           1     -21.740  -5.994  -3.424  0.00  0.00    -0.646 OA
HETATM   12  O           1     -23.117  -6.126  -5.091  0.00  0.00    -0.646 OA
ENDBRANCH   5  10
ENDBRANCH   4   5
BRANCH   3  13
HETATM   13  C           1     -20.320 -10.555  -5.327  0.00  0.00     0.332 C 
BRANCH  13  14
HETATM   14  N           1     -19.389 -11.000  -6.414  0.00  0.00    -0.071 N 
HETATM   15  H           1     -18.964 -10.162  -6.874  0.00  0.00     0.274 HD
HETATM   16  H           1     -18.631 -11.593  -6.005  0.00  0.00     0.274 HD
HETATM   17  H           1     -19.920 -11.555  -7.123  0.00  0.00     0.274 HD
ENDBRANCH  13  14
ENDBRANCH   3  13
TORSDOF 6
ENDMDL
