MODEL 1
REMARK VINA RESULT:      -7.8      0.000      0.000
REMARK  11 active torsions:
REMARK  status: ('A' for Active; 'I' for Inactive)
REMARK    1  A    between atoms: C_1  and  C_6 
REMARK       I    between atoms: C_2  and  N_9 
REMARK    2  A    between atoms: C_2  and  C_3 
REMARK    3  A    between atoms: C_3  and  C_4 
REMARK    4  A    between atoms: C_3  and  N_25 
REMARK    5  A    between atoms: C_4  and  C_5 
REMARK       I    between atoms: C_5  and  N_13 
REMARK    6  A    between atoms: C_6  and  C_16 
REMARK    7  A    between atoms: P_7  and  O_8 
REMARK    8  A    between atoms: P_7  and  O_22 
REMARK    9  A    between atoms: O_8  and  C_10 
REMARK   10  A    between atoms: N_9  and  C_16 
REMARK   11  A    between atoms: C_16  and  C_18 
ROOT
HETATM    1  C           1     -21.627  -6.840  -5.408  0.00  0.00     0.189 C 
ENDROOT
BRANCH   1   2
HETATM    2  C           1     -20.635  -5.757  -5.813  0.00  0.00     0.074 C 
BRANCH   2   3
HETATM    3  C           1     -21.090  -5.111  -7.084  0.00  0.00    -0.056 A 
HETATM    4  C           1     -20.262  -5.122  -8.207  0.00  0.00     0.010 A 
HETATM    5  C           1     -20.684  -4.520  -9.391  0.00  0.00     0.038 A 
HETATM    6  C           1     -21.936  -3.908  -9.454  0.00  0.00     0.081 A 
HETATM    7  C           1     -22.764  -3.896  -8.332  0.00  0.00     0.038 A 
HETATM    8  C           1     -22.341  -4.498  -7.147  0.00  0.00     0.010 A 
BRANCH   6   9
HETATM    9  O           1     -22.348  -3.322 -10.605  0.00  0.00    -0.247 OA
BRANCH   9  10
HETATM   10  P           1     -23.614  -3.964 -11.373  0.00  0.00     0.411 P 
HETATM   11  O           1     -24.832  -3.187 -11.053  0.00  0.00    -0.624 OA
HETATM   12  O           1     -23.795  -5.367 -10.937  0.00  0.00    -0.624 OA
BRANCH  10  13
HETATM   13  O           1     -23.354  -3.924 -12.966  0.00  0.00    -0.300 OA
HETATM   14  H           1     -24.135  -3.548 -13.332  0.00  0.00     0.223 HD
ENDBRANCH  10  13
ENDBRANCH   9  10
ENDBRANCH   6   9
ENDBRANCH   2   3
ENDBRANCH   1   2
BRANCH   1  15
HETATM   15  N           1     -22.364  -6.405  -4.237  0.00  0.00    -0.344 N 
HETATM   16  C           1     -21.731  -6.304  -3.028  0.00  0.00     0.249 C 
HETATM   17  O           1     -21.204  -5.265  -2.707  0.00  0.00    -0.271 OA
HETATM   18  H           1     -23.347  -6.176  -4.315  0.00  0.00     0.163 HD
BRANCH  16  19
HETATM   19  C           1     -21.691  -7.489  -2.095  0.00  0.00     0.283 C 
BRANCH  19  20
HETATM   20  C           1     -22.394  -7.134  -0.791  0.00  0.00     0.145 C 
BRANCH  20  21
HETATM   21  C           1     -22.316  -8.305   0.158  0.00  0.00     0.217 C 
HETATM   22  N           1     -23.124  -9.395  -0.032  0.00  0.00    -0.370 N 
HETATM   23  H           1     -23.072 -10.181   0.603  0.00  0.00     0.159 HD
HETATM   24  H           1     -23.772  -9.415  -0.809  0.00  0.00     0.159 HD
HETATM   25  O           1     -21.542  -8.282   1.084  0.00  0.00    -0.274 OA
ENDBRANCH  20  21
ENDBRANCH  19  20
BRANCH  19  26
HETATM   26  N           1     -20.264  -7.852  -1.811  0.00  0.00    -0.066 N 
HETATM   27  H           1     -20.098  -8.849  -2.078  0.00  0.00     0.275 HD
HETATM   28  H           1     -19.630  -7.234  -2.367  0.00  0.00     0.275 HD
HETATM   29  H           1     -20.069  -7.726  -0.792  0.00  0.00     0.275 HD
ENDBRANCH  19  26
ENDBRANCH  16  19
ENDBRANCH   1  15
BRANCH   1  30
HETATM   30  C           1     -20.882  -8.113  -5.088  0.00  0.00     0.197 C 
HETATM   31  O           1     -21.501  -9.196  -5.009  0.00  0.00    -0.646 OA
HETATM   32  O           1     -19.646  -8.083  -4.905  0.00  0.00    -0.646 OA
ENDBRANCH   1  30
TORSDOF 11
ENDMDL
MODEL 2
REMARK VINA RESULT:      -7.5      2.183      3.058
REMARK  11 active torsions:
REMARK  status: ('A' for Active; 'I' for Inactive)
REMARK    1  A    between atoms: C_1  and  C_6 
REMARK       I    between atoms: C_2  and  N_9 
REMARK    2  A    between atoms: C_2  and  C_3 
REMARK    3  A    between atoms: C_3  and  C_4 
REMARK    4  A    between atoms: C_3  and  N_25 
REMARK    5  A    between atoms: C_4  and  C_5 
REMARK       I    between atoms: C_5  and  N_13 
REMARK    6  A    between atoms: C_6  and  C_16 
REMARK    7  A    between atoms: P_7  and  O_8 
REMARK    8  A    between atoms: P_7  and  O_22 
REMARK    9  A    between atoms: O_8  and  C_10 
REMARK   10  A    between atoms: N_9  and  C_16 
REMARK   11  A    between atoms: C_16  and  C_18 
ROOT
HETATM    1  C           1     -21.570  -5.600  -6.660  0.00  0.00     0.189 C 
ENDROOT
BRANCH   1   2
HETATM    2  C           1     -22.018  -4.210  -7.092  0.00  0.00     0.074 C 
BRANCH   2   3
HETATM    3  C           1     -22.464  -4.249  -8.520  0.00  0.00    -0.056 A 
HETATM    4  C           1     -23.818  -4.115  -8.831  0.00  0.00     0.010 A 
HETATM    5  C           1     -24.235  -4.153 -10.161  0.00  0.00     0.038 A 
HETATM    6  C           1     -23.298  -4.322 -11.181  0.00  0.00     0.081 A 
HETATM    7  C           1     -21.945  -4.457 -10.871  0.00  0.00     0.038 A 
HETATM    8  C           1     -21.528  -4.420  -9.540  0.00  0.00     0.010 A 
BRANCH   6   9
HETATM    9  O           1     -23.703  -4.359 -12.474  0.00  0.00    -0.247 OA
BRANCH   9  10
HETATM   10  P           1     -23.948  -2.955 -13.233  0.00  0.00     0.411 P 
HETATM   11  O           1     -25.363  -2.551 -13.081  0.00  0.00    -0.624 OA
HETATM   12  O           1     -23.630  -3.109 -14.670  0.00  0.00    -0.624 OA
BRANCH  10  13
HETATM   13  O           1     -22.993  -1.823 -12.588  0.00  0.00    -0.300 OA
HETATM   14  H           1     -22.139  -2.217 -12.550  0.00  0.00     0.223 HD
ENDBRANCH  10  13
ENDBRANCH   9  10
ENDBRANCH   6   9
ENDBRANCH   2   3
ENDBRANCH   1   2
BRANCH   1  15
HETATM   15  N           1     -22.198  -5.938  -5.398  0.00  0.00    -0.344 N 
HETATM   16  C           1     -21.573  -6.792  -4.529  0.00  0.00     0.249 C 
HETATM   17  O           1     -20.821  -6.356  -3.690  0.00  0.00    -0.271 OA
HETATM   18  H           1     -23.099  -5.543  -5.159  0.00  0.00     0.163 HD
BRANCH  16  19
HETATM   19  C           1     -21.824  -8.278  -4.618  0.00  0.00     0.283 C 
BRANCH  19  20
HETATM   20  C           1     -21.534  -8.924  -3.270  0.00  0.00     0.145 C 
BRANCH  20  21
HETATM   21  C           1     -22.099 -10.324  -3.251  0.00  0.00     0.217 C 
HETATM   22  N           1     -22.780 -10.772  -2.150  0.00  0.00    -0.370 N 
HETATM   23  H           1     -23.159 -11.710  -2.138  0.00  0.00     0.159 HD
HETATM   24  H           1     -22.906 -10.165  -1.351  0.00  0.00     0.159 HD
HETATM   25  O           1     -21.951 -11.048  -4.206  0.00  0.00    -0.274 OA
ENDBRANCH  20  21
ENDBRANCH  19  20
BRANCH  19  26
HETATM   26  N           1     -20.926  -8.873  -5.661  0.00  0.00    -0.066 N 
HETATM   27  H           1     -20.867  -8.226  -6.480  0.00  0.00     0.275 HD
HETATM   28  H           1     -19.971  -9.013  -5.260  0.00  0.00     0.275 HD
HETATM   29  H           1     -21.314  -9.793  -5.971  0.00  0.00     0.275 HD
ENDBRANCH  19  26
ENDBRANCH  16  19
ENDBRANCH   1  15
BRANCH   1  30
HETATM   30  C           1     -20.070  -5.618  -6.496  0.00  0.00     0.197 C 
HETATM   31  O           1     -19.418  -6.632  -6.828  0.00  0.00    -0.646 OA
HETATM   32  O           1     -19.480  -4.620  -6.030  0.00  0.00    -0.646 OA
ENDBRANCH   1  30
TORSDOF 11
ENDMDL
MODEL 3
REMARK VINA RESULT:      -7.4      3.873      8.775
REMARK  11 active torsions:
REMARK  status: ('A' for Active; 'I' for Inactive)
REMARK    1  A    between atoms: C_1  and  C_6 
REMARK       I    between atoms: C_2  and  N_9 
REMARK    2  A    between atoms: C_2  and  C_3 
REMARK    3  A    between atoms: C_3  and  C_4 
REMARK    4  A    between atoms: C_3  and  N_25 
REMARK    5  A    between atoms: C_4  and  C_5 
REMARK       I    between atoms: C_5  and  N_13 
REMARK    6  A    between atoms: C_6  and  C_16 
REMARK    7  A    between atoms: P_7  and  O_8 
REMARK    8  A    between atoms: P_7  and  O_22 
REMARK    9  A    between atoms: O_8  and  C_10 
REMARK   10  A    between atoms: N_9  and  C_16 
REMARK   11  A    between atoms: C_16  and  C_18 
ROOT
HETATM    1  C           1     -20.942  -4.822  -6.477  0.00  0.00     0.189 C 
ENDROOT
BRANCH   1   2
HETATM    2  C           1     -21.887  -6.000  -6.274  0.00  0.00     0.074 C 
BRANCH   2   3
HETATM    3  C           1     -21.634  -6.619  -4.935  0.00  0.00    -0.056 A 
HETATM    4  C           1     -21.706  -8.005  -4.783  0.00  0.00     0.010 A 
HETATM    5  C           1     -21.472  -8.582  -3.536  0.00  0.00     0.038 A 
HETATM    6  C           1     -21.165  -7.775  -2.440  0.00  0.00     0.081 A 
HETATM    7  C           1     -21.094  -6.390  -2.592  0.00  0.00     0.038 A 
HETATM    8  C           1     -21.328  -5.813  -3.839  0.00  0.00     0.010 A 
BRANCH   6   9
HETATM    9  O           1     -20.938  -8.336  -1.227  0.00  0.00    -0.247 OA
BRANCH   9  10
HETATM   10  P           1     -22.151  -8.356  -0.162  0.00  0.00     0.411 P 
HETATM   11  O           1     -22.944  -9.593  -0.340  0.00  0.00    -0.624 OA
HETATM   12  O           1     -23.019  -7.178  -0.380  0.00  0.00    -0.624 OA
BRANCH  10  13
HETATM   13  O           1     -21.550  -8.313   1.337  0.00  0.00    -0.300 OA
HETATM   14  H           1     -21.008  -9.080   1.404  0.00  0.00     0.223 HD
ENDBRANCH  10  13
ENDBRANCH   9  10
ENDBRANCH   6   9
ENDBRANCH   2   3
ENDBRANCH   1   2
BRANCH   1  15
HETATM   15  N           1     -21.577  -3.836  -7.329  0.00  0.00    -0.344 N 
HETATM   16  C           1     -22.566  -4.215  -8.196  0.00  0.00     0.249 C 
HETATM   17  O           1     -23.721  -4.203  -7.837  0.00  0.00    -0.271 OA
HETATM   18  H           1     -21.288  -2.867  -7.284  0.00  0.00     0.163 HD
BRANCH  16  19
HETATM   19  C           1     -22.218  -4.648  -9.599  0.00  0.00     0.283 C 
BRANCH  19  20
HETATM   20  C           1     -21.521  -3.506 -10.326  0.00  0.00     0.145 C 
BRANCH  20  21
HETATM   21  C           1     -22.224  -3.239 -11.634  0.00  0.00     0.217 C 
HETATM   22  N           1     -21.724  -3.760 -12.798  0.00  0.00    -0.370 N 
HETATM   23  H           1     -22.196  -3.582 -13.676  0.00  0.00     0.159 HD
HETATM   24  H           1     -20.885  -4.325 -12.781  0.00  0.00     0.159 HD
HETATM   25  O           1     -23.227  -2.567 -11.655  0.00  0.00    -0.274 OA
ENDBRANCH  20  21
ENDBRANCH  19  20
BRANCH  19  26
HETATM   26  N           1     -23.473  -5.017 -10.333  0.00  0.00    -0.066 N 
HETATM   27  H           1     -23.229  -5.589 -11.174  0.00  0.00     0.275 HD
HETATM   28  H           1     -24.094  -5.572  -9.703  0.00  0.00     0.275 HD
HETATM   29  H           1     -23.967  -4.148 -10.635  0.00  0.00     0.275 HD
ENDBRANCH  19  26
ENDBRANCH  16  19
ENDBRANCH   1  15
BRANCH   1  30
HETATM   30  C           1     -19.668  -5.304  -7.127  0.00  0.00     0.197 C 
HETATM   31  O           1     -19.472  -6.528  -7.286  0.00  0.00    -0.646 OA
HETATM   32  O           1     -18.811  -4.479  -7.507  0.00  0.00    -0.646 OA
ENDBRANCH   1  30
TORSDOF 11
ENDMDL
MODEL 4
REMARK VINA RESULT:      -7.3      4.846      9.729
REMARK  11 active torsions:
REMARK  status: ('A' for Active; 'I' for Inactive)
REMARK    1  A    between atoms: C_1  and  C_6 
REMARK       I    between atoms: C_2  and  N_9 
REMARK    2  A    between atoms: C_2  and  C_3 
REMARK    3  A    between atoms: C_3  and  C_4 
REMARK    4  A    between atoms: C_3  and  N_25 
REMARK    5  A    between atoms: C_4  and  C_5 
REMARK       I    between atoms: C_5  and  N_13 
REMARK    6  A    between atoms: C_6  and  C_16 
REMARK    7  A    between atoms: P_7  and  O_8 
REMARK    8  A    between atoms: P_7  and  O_22 
REMARK    9  A    between atoms: O_8  and  C_10 
REMARK   10  A    between atoms: N_9  and  C_16 
REMARK   11  A    between atoms: C_16  and  C_18 
ROOT
HETATM    1  C           1     -23.193  -3.776 -10.177  0.00  0.00     0.189 C 
ENDROOT
BRANCH   1   2
HETATM    2  C           1     -23.031  -3.333  -8.729  0.00  0.00     0.074 C 
BRANCH   2   3
HETATM    3  C           1     -22.116  -4.279  -8.016  0.00  0.00    -0.056 A 
HETATM    4  C           1     -22.471  -4.781  -6.764  0.00  0.00     0.010 A 
HETATM    5  C           1     -21.619  -5.661  -6.098  0.00  0.00     0.038 A 
HETATM    6  C           1     -20.412  -6.041  -6.685  0.00  0.00     0.081 A 
HETATM    7  C           1     -20.056  -5.539  -7.937  0.00  0.00     0.038 A 
HETATM    8  C           1     -20.908  -4.658  -8.602  0.00  0.00     0.010 A 
BRANCH   6   9
HETATM    9  O           1     -19.582  -6.896  -6.039  0.00  0.00    -0.247 OA
BRANCH   9  10
HETATM   10  P           1     -20.246  -8.066  -5.144  0.00  0.00     0.411 P 
HETATM   11  O           1     -19.191  -8.996  -4.686  0.00  0.00    -0.624 OA
HETATM   12  O           1     -21.237  -8.805  -5.957  0.00  0.00    -0.624 OA
BRANCH  10  13
HETATM   13  O           1     -20.980  -7.411  -3.863  0.00  0.00    -0.300 OA
HETATM   14  H           1     -20.962  -8.082  -3.203  0.00  0.00     0.223 HD
ENDBRANCH  10  13
ENDBRANCH   9  10
ENDBRANCH   6   9
ENDBRANCH   2   3
ENDBRANCH   1   2
BRANCH   1  15
HETATM   15  N           1     -23.698  -2.670 -10.967  0.00  0.00    -0.344 N 
HETATM   16  C           1     -23.942  -2.838 -12.303  0.00  0.00     0.249 C 
HETATM   17  O           1     -25.031  -3.204 -12.677  0.00  0.00    -0.271 OA
HETATM   18  H           1     -23.869  -1.773 -10.530  0.00  0.00     0.163 HD
BRANCH  16  19
HETATM   19  C           1     -22.852  -2.564 -13.311  0.00  0.00     0.283 C 
BRANCH  19  20
HETATM   20  C           1     -23.437  -2.597 -14.716  0.00  0.00     0.145 C 
BRANCH  20  21
HETATM   21  C           1     -23.735  -1.189 -15.171  0.00  0.00     0.217 C 
HETATM   22  N           1     -22.858  -0.536 -15.995  0.00  0.00    -0.370 N 
HETATM   23  H           1     -23.058   0.408 -16.301  0.00  0.00     0.159 HD
HETATM   24  H           1     -22.011  -0.998 -16.300  0.00  0.00     0.159 HD
HETATM   25  O           1     -24.747  -0.639 -14.807  0.00  0.00    -0.274 OA
ENDBRANCH  20  21
ENDBRANCH  19  20
BRANCH  19  26
HETATM   26  N           1     -21.786  -3.613 -13.188  0.00  0.00    -0.066 N 
HETATM   27  H           1     -21.751  -4.178 -14.067  0.00  0.00     0.275 HD
HETATM   28  H           1     -20.861  -3.153 -13.034  0.00  0.00     0.275 HD
HETATM   29  H           1     -22.004  -4.238 -12.380  0.00  0.00     0.275 HD
ENDBRANCH  19  26
ENDBRANCH  16  19
ENDBRANCH   1  15
BRANCH   1  30
HETATM   30  C           1     -24.167  -4.927 -10.245  0.00  0.00     0.197 C 
HETATM   31  O           1     -25.235  -4.881  -9.597  0.00  0.00    -0.646 OA
HETATM   32  O           1     -23.906  -5.926 -10.949  0.00  0.00    -0.646 OA
ENDBRANCH   1  30
TORSDOF 11
ENDMDL
MODEL 5
REMARK VINA RESULT:      -7.3      2.098      2.779
REMARK  11 active torsions:
REMARK  status: ('A' for Active; 'I' for Inactive)
REMARK    1  A    between atoms: C_1  and  C_6 
REMARK       I    between atoms: C_2  and  N_9 
REMARK    2  A    between atoms: C_2  and  C_3 
REMARK    3  A    between atoms: C_3  and  C_4 
REMARK    4  A    between atoms: C_3  and  N_25 
REMARK    5  A    between atoms: C_4  and  C_5 
REMARK       I    between atoms: C_5  and  N_13 
REMARK    6  A    between atoms: C_6  and  C_16 
REMARK    7  A    between atoms: P_7  and  O_8 
REMARK    8  A    between atoms: P_7  and  O_22 
REMARK    9  A    between atoms: O_8  and  C_10 
REMARK   10  A    between atoms: N_9  and  C_16 
REMARK   11  A    between atoms: C_16  and  C_18 
ROOT
HETATM    1  C           1     -21.104  -6.084  -7.177  0.00  0.00     0.189 C 
ENDROOT
BRANCH   1   2
HETATM    2  C           1     -21.706  -4.687  -7.083  0.00  0.00     0.074 C 
BRANCH   2   3
HETATM    3  C           1     -21.986  -4.169  -8.460  0.00  0.00    -0.056 A 
HETATM    4  C           1     -23.266  -3.724  -8.790  0.00  0.00     0.010 A 
HETATM    5  C           1     -23.527  -3.242 -10.072  0.00  0.00     0.038 A 
HETATM    6  C           1     -22.508  -3.204 -11.024  0.00  0.00     0.081 A 
HETATM    7  C           1     -21.228  -3.649 -10.694  0.00  0.00     0.038 A 
HETATM    8  C           1     -20.967  -4.132  -9.412  0.00  0.00     0.010 A 
BRANCH   6   9
HETATM    9  O           1     -22.762  -2.736 -12.270  0.00  0.00    -0.247 OA
BRANCH   9  10
HETATM   10  P           1     -23.879  -3.497 -13.154  0.00  0.00     0.411 P 
HETATM   11  O           1     -25.189  -2.835 -12.970  0.00  0.00    -0.624 OA
HETATM   12  O           1     -23.973  -4.908 -12.720  0.00  0.00    -0.624 OA
BRANCH  10  13
HETATM   13  O           1     -23.461  -3.439 -14.713  0.00  0.00    -0.300 OA
HETATM   14  H           1     -24.217  -3.749 -15.180  0.00  0.00     0.223 HD
ENDBRANCH  10  13
ENDBRANCH   9  10
ENDBRANCH   6   9
ENDBRANCH   2   3
ENDBRANCH   1   2
BRANCH   1  15
HETATM   15  N           1     -21.856  -6.991  -6.333  0.00  0.00    -0.344 N 
HETATM   16  C           1     -22.328  -6.566  -5.120  0.00  0.00     0.249 C 
HETATM   17  O           1     -23.425  -6.066  -5.040  0.00  0.00    -0.271 OA
HETATM   18  H           1     -22.032  -7.939  -6.640  0.00  0.00     0.163 HD
BRANCH  16  19
HETATM   19  C           1     -21.479  -6.721  -3.882  0.00  0.00     0.283 C 
BRANCH  19  20
HETATM   20  C           1     -21.293  -8.201  -3.575  0.00  0.00     0.145 C 
BRANCH  20  21
HETATM   21  C           1     -20.231  -8.366  -2.515  0.00  0.00     0.217 C 
HETATM   22  N           1     -19.076  -9.043  -2.803  0.00  0.00    -0.370 N 
HETATM   23  H           1     -18.363  -9.153  -2.093  0.00  0.00     0.159 HD
HETATM   24  H           1     -18.934  -9.431  -3.726  0.00  0.00     0.159 HD
HETATM   25  O           1     -20.400  -7.900  -1.414  0.00  0.00    -0.274 OA
ENDBRANCH  20  21
ENDBRANCH  19  20
BRANCH  19  26
HETATM   26  N           1     -22.158  -6.052  -2.725  0.00  0.00    -0.066 N 
HETATM   27  H           1     -22.919  -5.429  -3.080  0.00  0.00     0.275 HD
HETATM   28  H           1     -22.569  -6.777  -2.095  0.00  0.00     0.275 HD
HETATM   29  H           1     -21.461  -5.482  -2.194  0.00  0.00     0.275 HD
ENDBRANCH  19  26
ENDBRANCH  16  19
ENDBRANCH   1  15
BRANCH   1  30
HETATM   30  C           1     -19.667  -6.044  -6.718  0.00  0.00     0.197 C 
HETATM   31  O           1     -19.117  -4.947  -6.481  0.00  0.00    -0.646 OA
HETATM   32  O           1     -19.028  -7.108  -6.574  0.00  0.00    -0.646 OA
ENDBRANCH   1  30
TORSDOF 11
ENDMDL
MODEL 6
REMARK VINA RESULT:      -6.9      1.461      1.938
REMARK  11 active torsions:
REMARK  status: ('A' for Active; 'I' for Inactive)
REMARK    1  A    between atoms: C_1  and  C_6 
REMARK       I    between atoms: C_2  and  N_9 
REMARK    2  A    between atoms: C_2  and  C_3 
REMARK    3  A    between atoms: C_3  and  C_4 
REMARK    4  A    between atoms: C_3  and  N_25 
REMARK    5  A    between atoms: C_4  and  C_5 
REMARK       I    between atoms: C_5  and  N_13 
REMARK    6  A    between atoms: C_6  and  C_16 
REMARK    7  A    between atoms: P_7  and  O_8 
REMARK    8  A    between atoms: P_7  and  O_22 
REMARK    9  A    between atoms: O_8  and  C_10 
REMARK   10  A    between atoms: N_9  and  C_16 
REMARK   11  A    between atoms: C_16  and  C_18 
ROOT
HETATM    1  C           1     -21.509  -7.221  -5.637  0.00  0.00     0.189 C 
ENDROOT
BRANCH   1   2
HETATM    2  C           1     -20.717  -5.930  -5.796  0.00  0.00     0.074 C 
BRANCH   2   3
HETATM    3  C           1     -21.166  -5.216  -7.033  0.00  0.00    -0.056 A 
HETATM    4  C           1     -20.327  -5.155  -8.146  0.00  0.00     0.010 A 
HETATM    5  C           1     -20.744  -4.489  -9.298  0.00  0.00     0.038 A 
HETATM    6  C           1     -22.001  -3.886  -9.338  0.00  0.00     0.081 A 
HETATM    7  C           1     -22.840  -3.946  -8.225  0.00  0.00     0.038 A 
HETATM    8  C           1     -22.423  -4.611  -7.073  0.00  0.00     0.010 A 
BRANCH   6   9
HETATM    9  O           1     -22.407  -3.238 -10.457  0.00  0.00    -0.247 OA
BRANCH   9  10
HETATM   10  P           1     -23.679  -3.831 -11.257  0.00  0.00     0.411 P 
HETATM   11  O           1     -23.723  -5.301 -11.096  0.00  0.00    -0.624 OA
HETATM   12  O           1     -23.557  -3.495 -12.693  0.00  0.00    -0.624 OA
BRANCH  10  13
HETATM   13  O           1     -25.035  -3.183 -10.665  0.00  0.00    -0.300 OA
HETATM   14  H           1     -24.986  -2.269 -10.887  0.00  0.00     0.223 HD
ENDBRANCH  10  13
ENDBRANCH   9  10
ENDBRANCH   6   9
ENDBRANCH   2   3
ENDBRANCH   1   2
BRANCH   1  15
HETATM   15  N           1     -22.176  -7.223  -4.350  0.00  0.00    -0.344 N 
HETATM   16  C           1     -21.453  -7.034  -3.204  0.00  0.00     0.249 C 
HETATM   17  O           1     -21.285  -5.917  -2.774  0.00  0.00    -0.271 OA
HETATM   18  H           1     -23.177  -7.365  -4.300  0.00  0.00     0.163 HD
BRANCH  16  19
HETATM   19  C           1     -20.866  -8.218  -2.476  0.00  0.00     0.283 C 
BRANCH  19  20
HETATM   20  C           1     -21.858  -9.373  -2.500  0.00  0.00     0.145 C 
BRANCH  20  21
HETATM   21  C           1     -21.110 -10.681  -2.423  0.00  0.00     0.217 C 
HETATM   22  N           1     -21.150 -11.556  -3.476  0.00  0.00    -0.370 N 
HETATM   23  H           1     -20.648 -12.433  -3.425  0.00  0.00     0.159 HD
HETATM   24  H           1     -21.681 -11.325  -4.306  0.00  0.00     0.159 HD
HETATM   25  O           1     -20.475 -10.956  -1.433  0.00  0.00    -0.274 OA
ENDBRANCH  20  21
ENDBRANCH  19  20
BRANCH  19  26
HETATM   26  N           1     -20.578  -7.836  -1.054  0.00  0.00    -0.066 N 
HETATM   27  H           1     -20.207  -8.666  -0.539  0.00  0.00     0.275 HD
HETATM   28  H           1     -19.868  -7.070  -1.036  0.00  0.00     0.275 HD
HETATM   29  H           1     -21.458  -7.507  -0.597  0.00  0.00     0.275 HD
ENDBRANCH  19  26
ENDBRANCH  16  19
ENDBRANCH   1  15
BRANCH   1  30
HETATM   30  C           1     -20.570  -8.400  -5.719  0.00  0.00     0.197 C 
HETATM   31  O           1     -19.334  -8.217  -5.697  0.00  0.00    -0.646 OA
HETATM   32  O           1     -21.029  -9.559  -5.807  0.00  0.00    -0.646 OA
ENDBRANCH   1  30
TORSDOF 11
ENDMDL
MODEL 7
REMARK VINA RESULT:      -6.8      1.999      3.278
REMARK  11 active torsions:
REMARK  status: ('A' for Active; 'I' for Inactive)
REMARK    1  A    between atoms: C_1  and  C_6 
REMARK       I    between atoms: C_2  and  N_9 
REMARK    2  A    between atoms: C_2  and  C_3 
REMARK    3  A    between atoms: C_3  and  C_4 
REMARK    4  A    between atoms: C_3  and  N_25 
REMARK    5  A    between atoms: C_4  and  C_5 
REMARK       I    between atoms: C_5  and  N_13 
REMARK    6  A    between atoms: C_6  and  C_16 
REMARK    7  A    between atoms: P_7  and  O_8 
REMARK    8  A    between atoms: P_7  and  O_22 
REMARK    9  A    between atoms: O_8  and  C_10 
REMARK   10  A    between atoms: N_9  and  C_16 
REMARK   11  A    between atoms: C_16  and  C_18 
ROOT
HETATM    1  C           1     -20.485  -9.234  -4.896  0.00  0.00     0.189 C 
ENDROOT
BRANCH   1   2
HETATM    2  C           1     -19.477  -8.137  -5.213  0.00  0.00     0.074 C 
BRANCH   2   3
HETATM    3  C           1     -20.183  -6.972  -5.833  0.00  0.00    -0.056 A 
HETATM    4  C           1     -21.502  -6.687  -5.478  0.00  0.00     0.010 A 
HETATM    5  C           1     -22.161  -5.603  -6.056  0.00  0.00     0.038 A 
HETATM    6  C           1     -21.501  -4.802  -6.988  0.00  0.00     0.081 A 
HETATM    7  C           1     -20.182  -5.086  -7.343  0.00  0.00     0.038 A 
HETATM    8  C           1     -19.524  -6.171  -6.766  0.00  0.00     0.010 A 
BRANCH   6   9
HETATM    9  O           1     -22.141  -3.748  -7.551  0.00  0.00    -0.247 OA
BRANCH   9  10
HETATM   10  P           1     -22.925  -3.990  -8.941  0.00  0.00     0.411 P 
HETATM   11  O           1     -22.915  -5.433  -9.269  0.00  0.00    -0.624 OA
HETATM   12  O           1     -22.255  -3.234 -10.022  0.00  0.00    -0.624 OA
BRANCH  10  13
HETATM   13  O           1     -24.451  -3.482  -8.793  0.00  0.00    -0.300 OA
HETATM   14  H           1     -24.956  -4.067  -9.330  0.00  0.00     0.223 HD
ENDBRANCH  10  13
ENDBRANCH   9  10
ENDBRANCH   6   9
ENDBRANCH   2   3
ENDBRANCH   1   2
BRANCH   1  15
HETATM   15  N           1     -20.256  -9.727  -3.552  0.00  0.00    -0.344 N 
HETATM   16  C           1     -21.299 -10.220  -2.817  0.00  0.00     0.249 C 
HETATM   17  O           1     -21.575 -11.395  -2.873  0.00  0.00    -0.271 OA
HETATM   18  H           1     -19.324  -9.705  -3.157  0.00  0.00     0.163 HD
BRANCH  16  19
HETATM   19  C           1     -22.105  -9.299  -1.934  0.00  0.00     0.283 C 
BRANCH  19  20
HETATM   20  C           1     -21.296  -8.043  -1.636  0.00  0.00     0.145 C 
BRANCH  20  21
HETATM   21  C           1     -22.230  -6.926  -1.239  0.00  0.00     0.217 C 
HETATM   22  N           1     -22.331  -5.807  -2.023  0.00  0.00    -0.370 N 
HETATM   23  H           1     -22.958  -5.058  -1.758  0.00  0.00     0.159 HD
HETATM   24  H           1     -21.782  -5.731  -2.869  0.00  0.00     0.159 HD
HETATM   25  O           1     -22.887  -7.017  -0.230  0.00  0.00    -0.274 OA
ENDBRANCH  20  21
ENDBRANCH  19  20
BRANCH  19  26
HETATM   26  N           1     -22.432 -10.000  -0.649  0.00  0.00    -0.066 N 
HETATM   27  H           1     -21.574 -10.051  -0.053  0.00  0.00     0.275 HD
HETATM   28  H           1     -23.176  -9.469  -0.142  0.00  0.00     0.275 HD
HETATM   29  H           1     -22.771 -10.966  -0.856  0.00  0.00     0.275 HD
ENDBRANCH  19  26
ENDBRANCH  16  19
ENDBRANCH   1  15
BRANCH   1  30
HETATM   30  C           1     -20.323 -10.367  -5.881  0.00  0.00     0.197 C 
HETATM   31  O           1     -19.181 -10.780  -6.175  0.00  0.00    -0.646 OA
HETATM   32  O           1     -21.331 -10.891  -6.402  0.00  0.00    -0.646 OA
ENDBRANCH   1  30
TORSDOF 11
ENDMDL
MODEL 8
REMARK VINA RESULT:      -6.7      1.404      1.837
REMARK  11 active torsions:
REMARK  status: ('A' for Active; 'I' for Inactive)
REMARK    1  A    between atoms: C_1  and  C_6 
REMARK       I    between atoms: C_2  and  N_9 
REMARK    2  A    between atoms: C_2  and  C_3 
REMARK    3  A    between atoms: C_3  and  C_4 
REMARK    4  A    between atoms: C_3  and  N_25 
REMARK    5  A    between atoms: C_4  and  C_5 
REMARK       I    between atoms: C_5  and  N_13 
REMARK    6  A    between atoms: C_6  and  C_16 
REMARK    7  A    between atoms: P_7  and  O_8 
REMARK    8  A    between atoms: P_7  and  O_22 
REMARK    9  A    between atoms: O_8  and  C_10 
REMARK   10  A    between atoms: N_9  and  C_16 
REMARK   11  A    between atoms: C_16  and  C_18 
ROOT
HETATM    1  C           1     -20.698  -7.482  -5.053  0.00  0.00     0.189 C 
ENDROOT
BRANCH   1   2
HETATM    2  C           1     -19.944  -6.899  -6.242  0.00  0.00     0.074 C 
BRANCH   2   3
HETATM    3  C           1     -20.812  -5.905  -6.947  0.00  0.00    -0.056 A 
HETATM    4  C           1     -20.402  -5.360  -8.164  0.00  0.00     0.010 A 
HETATM    5  C           1     -21.209  -4.432  -8.821  0.00  0.00     0.038 A 
HETATM    6  C           1     -22.429  -4.051  -8.262  0.00  0.00     0.081 A 
HETATM    7  C           1     -22.840  -4.595  -7.045  0.00  0.00     0.038 A 
HETATM    8  C           1     -22.032  -5.522  -6.388  0.00  0.00     0.010 A 
BRANCH   6   9
HETATM    9  O           1     -23.215  -3.149  -8.900  0.00  0.00    -0.247 OA
BRANCH   9  10
HETATM   10  P           1     -24.186  -3.685 -10.074  0.00  0.00     0.411 P 
HETATM   11  O           1     -24.054  -5.154 -10.191  0.00  0.00    -0.624 OA
HETATM   12  O           1     -23.804  -3.052 -11.356  0.00  0.00    -0.624 OA
BRANCH  10  13
HETATM   13  O           1     -25.715  -3.308  -9.720  0.00  0.00    -0.300 OA
HETATM   14  H           1     -25.835  -2.435 -10.053  0.00  0.00     0.223 HD
ENDBRANCH  10  13
ENDBRANCH   9  10
ENDBRANCH   6   9
ENDBRANCH   2   3
ENDBRANCH   1   2
BRANCH   1  15
HETATM   15  N           1     -19.990  -7.162  -3.829  0.00  0.00    -0.344 N 
HETATM   16  C           1     -20.320  -7.795  -2.662  0.00  0.00     0.249 C 
HETATM   17  O           1     -19.766  -8.824  -2.355  0.00  0.00    -0.271 OA
HETATM   18  H           1     -19.251  -6.470  -3.838  0.00  0.00     0.163 HD
BRANCH  16  19
HETATM   19  C           1     -21.376  -7.209  -1.756  0.00  0.00     0.283 C 
BRANCH  19  20
HETATM   20  C           1     -22.297  -8.318  -1.264  0.00  0.00     0.145 C 
BRANCH  20  21
HETATM   21  C           1     -22.425  -8.236   0.238  0.00  0.00     0.217 C 
HETATM   22  N           1     -23.665  -8.187   0.817  0.00  0.00    -0.370 N 
HETATM   23  H           1     -23.751  -8.132   1.824  0.00  0.00     0.159 HD
HETATM   24  H           1     -24.495  -8.206   0.239  0.00  0.00     0.159 HD
HETATM   25  O           1     -21.434  -8.215   0.928  0.00  0.00    -0.274 OA
ENDBRANCH  20  21
ENDBRANCH  19  20
BRANCH  19  26
HETATM   26  N           1     -22.177  -6.194  -2.517  0.00  0.00    -0.066 N 
HETATM   27  H           1     -22.435  -5.406  -1.880  0.00  0.00     0.275 HD
HETATM   28  H           1     -21.608  -5.826  -3.312  0.00  0.00     0.275 HD
HETATM   29  H           1     -23.045  -6.643  -2.887  0.00  0.00     0.275 HD
ENDBRANCH  19  26
ENDBRANCH  16  19
ENDBRANCH   1  15
BRANCH   1  30
HETATM   30  C           1     -20.793  -8.981  -5.203  0.00  0.00     0.197 C 
HETATM   31  O           1     -21.831  -9.579  -4.848  0.00  0.00    -0.646 OA
HETATM   32  O           1     -19.834  -9.623  -5.681  0.00  0.00    -0.646 OA
ENDBRANCH   1  30
TORSDOF 11
ENDMDL
MODEL 9
REMARK VINA RESULT:      -6.6      2.665      4.553
REMARK  11 active torsions:
REMARK  status: ('A' for Active; 'I' for Inactive)
REMARK    1  A    between atoms: C_1  and  C_6 
REMARK       I    between atoms: C_2  and  N_9 
REMARK    2  A    between atoms: C_2  and  C_3 
REMARK    3  A    between atoms: C_3  and  C_4 
REMARK    4  A    between atoms: C_3  and  N_25 
REMARK    5  A    between atoms: C_4  and  C_5 
REMARK       I    between atoms: C_5  and  N_13 
REMARK    6  A    between atoms: C_6  and  C_16 
REMARK    7  A    between atoms: P_7  and  O_8 
REMARK    8  A    between atoms: P_7  and  O_22 
REMARK    9  A    between atoms: O_8  and  C_10 
REMARK   10  A    between atoms: N_9  and  C_16 
REMARK   11  A    between atoms: C_16  and  C_18 
ROOT
HETATM    1  C           1     -20.899  -7.612  -3.858  0.00  0.00     0.189 C 
ENDROOT
BRANCH   1   2
HETATM    2  C           1     -22.025  -7.373  -4.856  0.00  0.00     0.074 C 
BRANCH   2   3
HETATM    3  C           1     -21.568  -6.408  -5.905  0.00  0.00    -0.056 A 
HETATM    4  C           1     -22.424  -5.396  -6.340  0.00  0.00     0.010 A 
HETATM    5  C           1     -21.999  -4.497  -7.318  0.00  0.00     0.038 A 
HETATM    6  C           1     -20.718  -4.608  -7.859  0.00  0.00     0.081 A 
HETATM    7  C           1     -19.863  -5.620  -7.423  0.00  0.00     0.038 A 
HETATM    8  C           1     -20.287  -6.519  -6.446  0.00  0.00     0.010 A 
BRANCH   6   9
HETATM    9  O           1     -20.305  -3.734  -8.809  0.00  0.00    -0.247 OA
BRANCH   9  10
HETATM   10  P           1     -20.581  -4.109 -10.356  0.00  0.00     0.411 P 
HETATM   11  O           1     -21.966  -4.610 -10.503  0.00  0.00    -0.624 OA
HETATM   12  O           1     -19.629  -5.156 -10.787  0.00  0.00    -0.624 OA
BRANCH  10  13
HETATM   13  O           1     -20.386  -2.792 -11.270  0.00  0.00    -0.300 OA
HETATM   14  H           1     -19.506  -2.504 -11.098  0.00  0.00     0.223 HD
ENDBRANCH  10  13
ENDBRANCH   9  10
ENDBRANCH   6   9
ENDBRANCH   2   3
ENDBRANCH   1   2
BRANCH   1  15
HETATM   15  N           1     -20.780  -9.033  -3.595  0.00  0.00    -0.344 N 
HETATM   16  C           1     -19.570  -9.656  -3.735  0.00  0.00     0.249 C 
HETATM   17  O           1     -18.815  -9.728  -2.794  0.00  0.00    -0.271 OA
HETATM   18  H           1     -21.593  -9.564  -3.308  0.00  0.00     0.163 HD
BRANCH  16  19
HETATM   19  C           1     -19.177 -10.255  -5.064  0.00  0.00     0.283 C 
BRANCH  19  20
HETATM   20  C           1     -18.084  -9.408  -5.701  0.00  0.00     0.145 C 
BRANCH  20  21
HETATM   21  C           1     -16.741 -10.055  -5.460  0.00  0.00     0.217 C 
HETATM   22  N           1     -16.016  -9.732  -4.344  0.00  0.00    -0.370 N 
HETATM   23  H           1     -15.117 -10.166  -4.182  0.00  0.00     0.159 HD
HETATM   24  H           1     -16.381  -9.061  -3.680  0.00  0.00     0.159 HD
HETATM   25  O           1     -16.307 -10.857  -6.251  0.00  0.00    -0.274 OA
ENDBRANCH  20  21
ENDBRANCH  19  20
BRANCH  19  26
HETATM   26  N           1     -20.374 -10.289  -5.968  0.00  0.00    -0.066 N 
HETATM   27  H           1     -20.614 -11.283  -6.189  0.00  0.00     0.275 HD
HETATM   28  H           1     -21.184  -9.834  -5.490  0.00  0.00     0.275 HD
HETATM   29  H           1     -20.156  -9.778  -6.852  0.00  0.00     0.275 HD
ENDBRANCH  19  26
ENDBRANCH  16  19
ENDBRANCH   1  15
BRANCH   1  30
HETATM   30  C           1     -21.205  -6.886  -2.570  0.00  0.00     0.197 C 
HETATM   31  O           1     -21.865  -5.825  -2.594  0.00  0.00    -0.646 OA
HETATM   32  O           1     -20.799  -7.346  -1.482  0.00  0.00    -0.646 OA
ENDBRANCH   1  30
TORSDOF 11
ENDMDL
