MODEL 1
REMARK VINA RESULT:      -6.0      0.000      0.000
REMARK  11 active torsions:
REMARK  status: ('A' for Active; 'I' for Inactive)
REMARK    1  A    between atoms: C_3  and  C_19 
REMARK    2  A    between atoms: C_3  and  C_17 
REMARK    3  A    between atoms: C_3  and  N_11 
REMARK    4  A    between atoms: Se_6  and  C_20 
REMARK    5  A    between atoms: N_7  and  C_8 
REMARK    6  A    between atoms: C_8  and  C_24 
REMARK       I    between atoms: C_10  and  N_11 
REMARK    7  A    between atoms: C_10  and  C_22 
REMARK    8  A    between atoms: N_16  and  C_22 
REMARK    9  A    between atoms: C_19  and  C_20 
REMARK   10  A    between atoms: C_22  and  C_23 
REMARK   11  A    between atoms: C_23  and  C_24 
ROOT
HETATM    1  H           1     -36.153  -2.393 -13.062  0.00  0.00     0.163 HD
HETATM    2  C           1     -34.380  -2.679 -12.033  0.00  0.00     0.249 C 
HETATM    3  N           1     -35.469  -1.963 -12.452  0.00  0.00    -0.345 N 
HETATM    4  O           1     -33.564  -2.167 -11.304  0.00  0.00    -0.271 OA
ENDROOT
BRANCH   2   5
HETATM    5  C           1     -34.199  -4.109 -12.482  0.00  0.00     0.274 C 
BRANCH   5   6
HETATM    6  N           1     -33.480  -4.130 -13.797  0.00  0.00    -0.067 N 
HETATM    7  H           1     -33.835  -4.926 -14.376  0.00  0.00     0.275 HD
HETATM    8  H           1     -32.454  -4.249 -13.632  0.00  0.00     0.275 HD
HETATM    9  H           1     -33.648  -3.231 -14.302  0.00  0.00     0.275 HD
ENDBRANCH   5   6
BRANCH   5  10
HETATM   10  C           1     -33.383  -4.868 -11.445  0.00  0.00     0.044 C 
BRANCH  10  11
HETATM   11  C           1     -34.319  -5.480 -10.410  0.00  0.00     0.030 C 
BRANCH  11  12
HETATM   12  C           1     -34.400  -6.986 -10.626  0.00  0.00     0.230 C 
BRANCH  12  13
HETATM   13  N           1     -35.072  -7.625  -9.447  0.00  0.00    -0.079 N 
HETATM   14  H           1     -36.107  -7.617  -9.589  0.00  0.00     0.274 HD
HETATM   15  H           1     -34.834  -7.093  -8.580  0.00  0.00     0.274 HD
HETATM   16  H           1     -34.741  -8.613  -9.352  0.00  0.00     0.274 HD
ENDBRANCH  12  13
ENDBRANCH  11  12
ENDBRANCH  10  11
ENDBRANCH   5  10
ENDBRANCH   2   5
BRANCH   3  17
HETATM   17  C           1     -35.643  -0.590 -12.020  0.00  0.00     0.185 C 
BRANCH  17  18
HETATM   18  C           1     -36.153   0.248 -13.185  0.00  0.00     0.036 C 
BRANCH  18  19
HETATM   19  C           1     -35.127   0.231 -14.310  0.00  0.00     0.003 C 
BRANCH  19  20
HETATM   20 Se           1     -35.949  -0.479 -15.929  0.00  0.00     0.000 Se
HETATM   21  C           1     -37.775  -0.100 -15.365  0.00  0.00     0.000 C 
ENDBRANCH  19  20
ENDBRANCH  18  19
ENDBRANCH  17  18
BRANCH  17  22
HETATM   22  C           1     -36.642  -0.541 -10.890  0.00  0.00     0.196 C 
HETATM   23  O           1     -36.319  -0.039  -9.791  0.00  0.00    -0.646 OA
HETATM   24  O           1     -37.793  -1.001 -11.052  0.00  0.00    -0.646 OA
ENDBRANCH  17  22
ENDBRANCH   3  17
TORSDOF 11
ENDMDL
MODEL 2
REMARK VINA RESULT:      -5.9      2.586      3.445
REMARK  11 active torsions:
REMARK  status: ('A' for Active; 'I' for Inactive)
REMARK    1  A    between atoms: C_3  and  C_19 
REMARK    2  A    between atoms: C_3  and  C_17 
REMARK    3  A    between atoms: C_3  and  N_11 
REMARK    4  A    between atoms: Se_6  and  C_20 
REMARK    5  A    between atoms: N_7  and  C_8 
REMARK    6  A    between atoms: C_8  and  C_24 
REMARK       I    between atoms: C_10  and  N_11 
REMARK    7  A    between atoms: C_10  and  C_22 
REMARK    8  A    between atoms: N_16  and  C_22 
REMARK    9  A    between atoms: C_19  and  C_20 
REMARK   10  A    between atoms: C_22  and  C_23 
REMARK   11  A    between atoms: C_23  and  C_24 
ROOT
HETATM    1  H           1     -34.703  -0.995 -11.338  0.00  0.00     0.163 HD
HETATM    2  C           1     -34.301  -2.639 -12.528  0.00  0.00     0.249 C 
HETATM    3  N           1     -34.904  -1.450 -12.219  0.00  0.00    -0.345 N 
HETATM    4  O           1     -34.541  -3.182 -13.580  0.00  0.00    -0.271 OA
ENDROOT
BRANCH   2   5
HETATM    5  C           1     -33.338  -3.272 -11.554  0.00  0.00     0.274 C 
BRANCH   5   6
HETATM    6  N           1     -33.696  -2.859 -10.158  0.00  0.00    -0.067 N 
HETATM    7  H           1     -33.766  -1.816 -10.110  0.00  0.00     0.275 HD
HETATM    8  H           1     -32.958  -3.190  -9.496  0.00  0.00     0.275 HD
HETATM    9  H           1     -34.615  -3.281  -9.894  0.00  0.00     0.275 HD
ENDBRANCH   5   6
BRANCH   5  10
HETATM   10  C           1     -33.419  -4.788 -11.671  0.00  0.00     0.044 C 
BRANCH  10  11
HETATM   11  C           1     -34.257  -5.342 -10.525  0.00  0.00     0.030 C 
BRANCH  11  12
HETATM   12  C           1     -34.290  -6.862 -10.608  0.00  0.00     0.230 C 
BRANCH  12  13
HETATM   13  N           1     -35.147  -7.405  -9.503  0.00  0.00    -0.079 N 
HETATM   14  H           1     -35.833  -6.675  -9.202  0.00  0.00     0.274 HD
HETATM   15  H           1     -34.543  -7.672  -8.693  0.00  0.00     0.274 HD
HETATM   16  H           1     -35.664  -8.247  -9.845  0.00  0.00     0.274 HD
ENDBRANCH  12  13
ENDBRANCH  11  12
ENDBRANCH  10  11
ENDBRANCH   5  10
ENDBRANCH   2   5
BRANCH   3  17
HETATM   17  C           1     -35.829  -0.842 -13.155  0.00  0.00     0.185 C 
BRANCH  17  18
HETATM   18  C           1     -36.953  -0.158 -12.386  0.00  0.00     0.036 C 
BRANCH  18  19
HETATM   19  C           1     -36.973  -0.670 -10.952  0.00  0.00     0.003 C 
BRANCH  19  20
HETATM   20 Se           1     -37.209   0.831  -9.730  0.00  0.00     0.000 Se
HETATM   21  C           1     -37.531  -0.284  -8.164  0.00  0.00     0.000 C 
ENDBRANCH  19  20
ENDBRANCH  18  19
ENDBRANCH  17  18
BRANCH  17  22
HETATM   22  C           1     -35.099   0.178 -13.993  0.00  0.00     0.196 C 
HETATM   23  O           1     -34.857  -0.059 -15.197  0.00  0.00    -0.646 OA
HETATM   24  O           1     -34.737   1.262 -13.486  0.00  0.00    -0.646 OA
ENDBRANCH  17  22
ENDBRANCH   3  17
TORSDOF 11
ENDMDL
MODEL 3
REMARK VINA RESULT:      -5.7     12.289     13.827
REMARK  11 active torsions:
REMARK  status: ('A' for Active; 'I' for Inactive)
REMARK    1  A    between atoms: C_3  and  C_19 
REMARK    2  A    between atoms: C_3  and  C_17 
REMARK    3  A    between atoms: C_3  and  N_11 
REMARK    4  A    between atoms: Se_6  and  C_20 
REMARK    5  A    between atoms: N_7  and  C_8 
REMARK    6  A    between atoms: C_8  and  C_24 
REMARK       I    between atoms: C_10  and  N_11 
REMARK    7  A    between atoms: C_10  and  C_22 
REMARK    8  A    between atoms: N_16  and  C_22 
REMARK    9  A    between atoms: C_19  and  C_20 
REMARK   10  A    between atoms: C_22  and  C_23 
REMARK   11  A    between atoms: C_23  and  C_24 
ROOT
HETATM    1  H           1     -22.003  -5.767  -9.277  0.00  0.00     0.163 HD
HETATM    2  C           1     -21.621  -4.521  -7.670  0.00  0.00     0.249 C 
HETATM    3  N           1     -22.068  -4.820  -8.928  0.00  0.00    -0.345 N 
HETATM    4  O           1     -21.700  -3.390  -7.253  0.00  0.00    -0.271 OA
ENDROOT
BRANCH   2   5
HETATM    5  C           1     -21.032  -5.605  -6.801  0.00  0.00     0.274 C 
BRANCH   5   6
HETATM    6  N           1     -19.871  -6.235  -7.510  0.00  0.00    -0.067 N 
HETATM    7  H           1     -19.024  -5.631  -7.399  0.00  0.00     0.275 HD
HETATM    8  H           1     -20.096  -6.338  -8.525  0.00  0.00     0.275 HD
HETATM    9  H           1     -19.681  -7.178  -7.099  0.00  0.00     0.275 HD
ENDBRANCH   5   6
BRANCH   5  10
HETATM   10  C           1     -20.557  -5.002  -5.486  0.00  0.00     0.044 C 
BRANCH  10  11
HETATM   11  C           1     -21.055  -5.856  -4.326  0.00  0.00     0.030 C 
BRANCH  11  12
HETATM   12  C           1     -22.121  -6.821  -4.827  0.00  0.00     0.230 C 
BRANCH  12  13
HETATM   13  N           1     -21.752  -8.222  -4.438  0.00  0.00    -0.079 N 
HETATM   14  H           1     -21.898  -8.861  -5.252  0.00  0.00     0.274 HD
HETATM   15  H           1     -22.352  -8.531  -3.640  0.00  0.00     0.274 HD
HETATM   16  H           1     -20.747  -8.250  -4.150  0.00  0.00     0.274 HD
ENDBRANCH  12  13
ENDBRANCH  11  12
ENDBRANCH  10  11
ENDBRANCH   5  10
ENDBRANCH   2   5
BRANCH   3  17
HETATM   17  C           1     -22.635  -3.778  -9.762  0.00  0.00     0.185 C 
BRANCH  17  18
HETATM   18  C           1     -22.156  -3.959 -11.197  0.00  0.00     0.036 C 
BRANCH  18  19
HETATM   19  C           1     -22.329  -2.653 -11.960  0.00  0.00     0.003 C 
BRANCH  19  20
HETATM   20 Se           1     -23.889  -2.781 -13.123  0.00  0.00     0.000 Se
HETATM   21  C           1     -22.872  -2.621 -14.778  0.00  0.00     0.000 C 
ENDBRANCH  19  20
ENDBRANCH  18  19
ENDBRANCH  17  18
BRANCH  17  22
HETATM   22  C           1     -24.140  -3.862  -9.719  0.00  0.00     0.196 C 
HETATM   23  O           1     -24.711  -4.958  -9.914  0.00  0.00    -0.646 OA
HETATM   24  O           1     -24.818  -2.838  -9.488  0.00  0.00    -0.646 OA
ENDBRANCH  17  22
ENDBRANCH   3  17
TORSDOF 11
ENDMDL
MODEL 4
REMARK VINA RESULT:      -5.3      3.054      5.190
REMARK  11 active torsions:
REMARK  status: ('A' for Active; 'I' for Inactive)
REMARK    1  A    between atoms: C_3  and  C_19 
REMARK    2  A    between atoms: C_3  and  C_17 
REMARK    3  A    between atoms: C_3  and  N_11 
REMARK    4  A    between atoms: Se_6  and  C_20 
REMARK    5  A    between atoms: N_7  and  C_8 
REMARK    6  A    between atoms: C_8  and  C_24 
REMARK       I    between atoms: C_10  and  N_11 
REMARK    7  A    between atoms: C_10  and  C_22 
REMARK    8  A    between atoms: N_16  and  C_22 
REMARK    9  A    between atoms: C_19  and  C_20 
REMARK   10  A    between atoms: C_22  and  C_23 
REMARK   11  A    between atoms: C_23  and  C_24 
ROOT
HETATM    1  H           1     -35.067  -0.034 -12.392  0.00  0.00     0.163 HD
HETATM    2  C           1     -36.768  -0.273 -13.546  0.00  0.00     0.249 C 
HETATM    3  N           1     -36.012  -0.395 -12.411  0.00  0.00    -0.345 N 
HETATM    4  O           1     -37.896  -0.704 -13.569  0.00  0.00    -0.271 OA
ENDROOT
BRANCH   2   5
HETATM    5  C           1     -36.191   0.399 -14.768  0.00  0.00     0.274 C 
BRANCH   5   6
HETATM    6  N           1     -34.707   0.538 -14.607  0.00  0.00    -0.067 N 
HETATM    7  H           1     -34.467   1.540 -14.433  0.00  0.00     0.275 HD
HETATM    8  H           1     -34.230   0.211 -15.478  0.00  0.00     0.275 HD
HETATM    9  H           1     -34.388  -0.042 -13.797  0.00  0.00     0.275 HD
ENDBRANCH   5   6
BRANCH   5  10
HETATM   10  C           1     -36.492  -0.443 -16.001  0.00  0.00     0.044 C 
BRANCH  10  11
HETATM   11  C           1     -35.187  -0.969 -16.587  0.00  0.00     0.030 C 
BRANCH  11  12
HETATM   12  C           1     -35.141  -2.484 -16.445  0.00  0.00     0.230 C 
BRANCH  12  13
HETATM   13  N           1     -33.918  -3.015 -17.133  0.00  0.00    -0.079 N 
HETATM   14  H           1     -34.172  -3.343 -18.092  0.00  0.00     0.274 HD
HETATM   15  H           1     -33.527  -3.812 -16.583  0.00  0.00     0.274 HD
HETATM   16  H           1     -33.202  -2.256 -17.203  0.00  0.00     0.274 HD
ENDBRANCH  12  13
ENDBRANCH  11  12
ENDBRANCH  10  11
ENDBRANCH   5  10
ENDBRANCH   2   5
BRANCH   3  17
HETATM   17  C           1     -36.566  -1.040 -11.237  0.00  0.00     0.185 C 
BRANCH  17  18
HETATM   18  C           1     -35.543  -2.010 -10.660  0.00  0.00     0.036 C 
BRANCH  18  19
HETATM   19  C           1     -34.234  -1.886 -11.428  0.00  0.00     0.003 C 
BRANCH  19  20
HETATM   20 Se           1     -33.269  -3.578 -11.347  0.00  0.00     0.000 Se
HETATM   21  C           1     -34.675  -4.609 -12.219  0.00  0.00     0.000 C 
ENDBRANCH  19  20
ENDBRANCH  18  19
ENDBRANCH  17  18
BRANCH  17  22
HETATM   22  C           1     -36.909   0.004 -10.204  0.00  0.00     0.196 C 
HETATM   23  O           1     -37.874   0.777 -10.392  0.00  0.00    -0.646 OA
HETATM   24  O           1     -36.230   0.096  -9.158  0.00  0.00    -0.646 OA
ENDBRANCH  17  22
ENDBRANCH   3  17
TORSDOF 11
ENDMDL
MODEL 5
REMARK VINA RESULT:      -5.3     14.819     17.113
REMARK  11 active torsions:
REMARK  status: ('A' for Active; 'I' for Inactive)
REMARK    1  A    between atoms: C_3  and  C_19 
REMARK    2  A    between atoms: C_3  and  C_17 
REMARK    3  A    between atoms: C_3  and  N_11 
REMARK    4  A    between atoms: Se_6  and  C_20 
REMARK    5  A    between atoms: N_7  and  C_8 
REMARK    6  A    between atoms: C_8  and  C_24 
REMARK       I    between atoms: C_10  and  N_11 
REMARK    7  A    between atoms: C_10  and  C_22 
REMARK    8  A    between atoms: N_16  and  C_22 
REMARK    9  A    between atoms: C_19  and  C_20 
REMARK   10  A    between atoms: C_22  and  C_23 
REMARK   11  A    between atoms: C_23  and  C_24 
ROOT
HETATM    1  H           1     -19.891  -6.827  -4.867  0.00  0.00     0.163 HD
HETATM    2  C           1     -21.444  -5.746  -5.706  0.00  0.00     0.249 C 
HETATM    3  N           1     -20.892  -6.673  -4.864  0.00  0.00    -0.345 N 
HETATM    4  O           1     -22.638  -5.562  -5.702  0.00  0.00    -0.271 OA
ENDROOT
BRANCH   2   5
HETATM    5  C           1     -20.562  -4.952  -6.637  0.00  0.00     0.274 C 
BRANCH   5   6
HETATM    6  N           1     -20.010  -5.860  -7.696  0.00  0.00    -0.067 N 
HETATM    7  H           1     -19.286  -6.486  -7.275  0.00  0.00     0.275 HD
HETATM    8  H           1     -19.577  -5.287  -8.455  0.00  0.00     0.275 HD
HETATM    9  H           1     -20.782  -6.440  -8.095  0.00  0.00     0.275 HD
ENDBRANCH   5   6
BRANCH   5  10
HETATM   10  C           1     -21.378  -3.846  -7.293  0.00  0.00     0.044 C 
BRANCH  10  11
HETATM   11  C           1     -21.468  -4.102  -8.793  0.00  0.00     0.030 C 
BRANCH  11  12
HETATM   12  C           1     -22.930  -4.207  -9.204  0.00  0.00     0.230 C 
BRANCH  12  13
HETATM   13  N           1     -23.803  -4.058  -7.993  0.00  0.00    -0.079 N 
HETATM   14  H           1     -24.783  -3.850  -8.293  0.00  0.00     0.274 HD
HETATM   15  H           1     -23.446  -3.274  -7.402  0.00  0.00     0.274 HD
HETATM   16  H           1     -23.788  -4.946  -7.442  0.00  0.00     0.274 HD
ENDBRANCH  12  13
ENDBRANCH  11  12
ENDBRANCH  10  11
ENDBRANCH   5  10
ENDBRANCH   2   5
BRANCH   3  17
HETATM   17  C           1     -21.740  -7.435  -3.969  0.00  0.00     0.185 C 
BRANCH  17  18
HETATM   18  C           1     -21.304  -8.895  -3.976  0.00  0.00     0.036 C 
BRANCH  18  19
HETATM   19  C           1     -20.195  -9.090  -5.001  0.00  0.00     0.003 C 
BRANCH  19  20
HETATM   20 Se           1     -18.519  -9.472  -4.081  0.00  0.00     0.000 Se
HETATM   21  C           1     -17.533  -9.894  -5.708  0.00  0.00     0.000 C 
ENDBRANCH  19  20
ENDBRANCH  18  19
ENDBRANCH  17  18
BRANCH  17  22
HETATM   22  C           1     -21.621  -6.881  -2.570  0.00  0.00     0.196 C 
HETATM   23  O           1     -20.814  -7.390  -1.763  0.00  0.00    -0.646 OA
HETATM   24  O           1     -22.329  -5.913  -2.219  0.00  0.00    -0.646 OA
ENDBRANCH  17  22
ENDBRANCH   3  17
TORSDOF 11
ENDMDL
MODEL 6
REMARK VINA RESULT:      -5.2     14.661     17.013
REMARK  11 active torsions:
REMARK  status: ('A' for Active; 'I' for Inactive)
REMARK    1  A    between atoms: C_3  and  C_19 
REMARK    2  A    between atoms: C_3  and  C_17 
REMARK    3  A    between atoms: C_3  and  N_11 
REMARK    4  A    between atoms: Se_6  and  C_20 
REMARK    5  A    between atoms: N_7  and  C_8 
REMARK    6  A    between atoms: C_8  and  C_24 
REMARK       I    between atoms: C_10  and  N_11 
REMARK    7  A    between atoms: C_10  and  C_22 
REMARK    8  A    between atoms: N_16  and  C_22 
REMARK    9  A    between atoms: C_19  and  C_20 
REMARK   10  A    between atoms: C_22  and  C_23 
REMARK   11  A    between atoms: C_23  and  C_24 
ROOT
HETATM    1  H           1     -19.718  -6.606  -4.746  0.00  0.00     0.163 HD
HETATM    2  C           1     -21.336  -5.664  -5.628  0.00  0.00     0.249 C 
HETATM    3  N           1     -20.728  -6.561  -4.792  0.00  0.00    -0.345 N 
HETATM    4  O           1     -22.541  -5.610  -5.682  0.00  0.00    -0.271 OA
ENDROOT
BRANCH   2   5
HETATM    5  C           1     -20.500  -4.743  -6.483  0.00  0.00     0.274 C 
BRANCH   5   6
HETATM    6  N           1     -19.787  -5.545  -7.530  0.00  0.00    -0.067 N 
HETATM    7  H           1     -20.318  -6.426  -7.717  0.00  0.00     0.275 HD
HETATM    8  H           1     -18.826  -5.781  -7.194  0.00  0.00     0.275 HD
HETATM    9  H           1     -19.720  -4.987  -8.411  0.00  0.00     0.275 HD
ENDBRANCH   5   6
BRANCH   5  10
HETATM   10  C           1     -21.401  -3.716  -7.156  0.00  0.00     0.044 C 
BRANCH  10  11
HETATM   11  C           1     -21.499  -4.026  -8.645  0.00  0.00     0.030 C 
BRANCH  11  12
HETATM   12  C           1     -22.926  -3.785  -9.121  0.00  0.00     0.230 C 
BRANCH  12  13
HETATM   13  N           1     -23.884  -4.107  -8.013  0.00  0.00    -0.079 N 
HETATM   14  H           1     -24.864  -4.061  -8.375  0.00  0.00     0.274 HD
HETATM   15  H           1     -23.766  -3.416  -7.238  0.00  0.00     0.274 HD
HETATM   16  H           1     -23.691  -5.070  -7.654  0.00  0.00     0.274 HD
ENDBRANCH  12  13
ENDBRANCH  11  12
ENDBRANCH  10  11
ENDBRANCH   5  10
ENDBRANCH   2   5
BRANCH   3  17
HETATM   17  C           1     -21.531  -7.445  -3.970  0.00  0.00     0.185 C 
BRANCH  17  18
HETATM   18  C           1     -20.883  -8.822  -3.922  0.00  0.00     0.036 C 
BRANCH  18  19
HETATM   19  C           1     -21.955  -9.883  -3.716  0.00  0.00     0.003 C 
BRANCH  19  20
HETATM   20 Se           1     -21.483 -10.997  -2.187  0.00  0.00     0.000 Se
HETATM   21  C           1     -22.873 -10.277  -1.026  0.00  0.00     0.000 C 
ENDBRANCH  19  20
ENDBRANCH  18  19
ENDBRANCH  17  18
BRANCH  17  22
HETATM   22  C           1     -21.627  -6.884  -2.573  0.00  0.00     0.196 C 
HETATM   23  O           1     -20.878  -7.320  -1.671  0.00  0.00    -0.646 OA
HETATM   24  O           1     -22.455  -5.984  -2.315  0.00  0.00    -0.646 OA
ENDBRANCH  17  22
ENDBRANCH   3  17
TORSDOF 11
ENDMDL
MODEL 7
REMARK VINA RESULT:      -5.1     14.299     16.623
REMARK  11 active torsions:
REMARK  status: ('A' for Active; 'I' for Inactive)
REMARK    1  A    between atoms: C_3  and  C_19 
REMARK    2  A    between atoms: C_3  and  C_17 
REMARK    3  A    between atoms: C_3  and  N_11 
REMARK    4  A    between atoms: Se_6  and  C_20 
REMARK    5  A    between atoms: N_7  and  C_8 
REMARK    6  A    between atoms: C_8  and  C_24 
REMARK       I    between atoms: C_10  and  N_11 
REMARK    7  A    between atoms: C_10  and  C_22 
REMARK    8  A    between atoms: N_16  and  C_22 
REMARK    9  A    between atoms: C_19  and  C_20 
REMARK   10  A    between atoms: C_22  and  C_23 
REMARK   11  A    between atoms: C_23  and  C_24 
ROOT
HETATM    1  H           1     -22.490  -5.717  -6.146  0.00  0.00     0.163 HD
HETATM    2  C           1     -20.700  -4.691  -6.308  0.00  0.00     0.249 C 
HETATM    3  N           1     -21.553  -5.619  -5.775  0.00  0.00    -0.345 N 
HETATM    4  O           1     -19.582  -4.574  -5.865  0.00  0.00    -0.271 OA
ENDROOT
BRANCH   2   5
HETATM    5  C           1     -21.155  -3.814  -7.448  0.00  0.00     0.274 C 
BRANCH   5   6
HETATM    6  N           1     -20.196  -3.947  -8.593  0.00  0.00    -0.067 N 
HETATM    7  H           1     -20.561  -3.418  -9.418  0.00  0.00     0.275 HD
HETATM    8  H           1     -20.092  -4.957  -8.845  0.00  0.00     0.275 HD
HETATM    9  H           1     -19.266  -3.560  -8.316  0.00  0.00     0.275 HD
ENDBRANCH   5   6
BRANCH   5  10
HETATM   10  C           1     -22.545  -4.244  -7.898  0.00  0.00     0.044 C 
BRANCH  10  11
HETATM   11  C           1     -22.527  -4.541  -9.392  0.00  0.00     0.030 C 
BRANCH  11  12
HETATM   12  C           1     -23.604  -3.719 -10.087  0.00  0.00     0.230 C 
BRANCH  12  13
HETATM   13  N           1     -24.618  -3.267  -9.078  0.00  0.00    -0.079 N 
HETATM   14  H           1     -25.084  -2.396  -9.418  0.00  0.00     0.274 HD
HETATM   15  H           1     -24.142  -3.075  -8.168  0.00  0.00     0.274 HD
HETATM   16  H           1     -25.335  -4.016  -8.945  0.00  0.00     0.274 HD
ENDBRANCH  12  13
ENDBRANCH  11  12
ENDBRANCH  10  11
ENDBRANCH   5  10
ENDBRANCH   2   5
BRANCH   3  17
HETATM   17  C           1     -21.115  -6.462  -4.680  0.00  0.00     0.185 C 
BRANCH  17  18
HETATM   18  C           1     -22.248  -6.616  -3.673  0.00  0.00     0.036 C 
BRANCH  18  19
HETATM   19  C           1     -21.752  -6.230  -2.286  0.00  0.00     0.003 C 
BRANCH  19  20
HETATM   20 Se           1     -21.183  -7.831  -1.330  0.00  0.00     0.000 Se
HETATM   21  C           1     -22.669  -7.805  -0.070  0.00  0.00     0.000 C 
ENDBRANCH  19  20
ENDBRANCH  18  19
ENDBRANCH  17  18
BRANCH  17  22
HETATM   22  C           1     -20.728  -7.819  -5.213  0.00  0.00     0.196 C 
HETATM   23  O           1     -21.444  -8.814  -4.970  0.00  0.00    -0.646 OA
HETATM   24  O           1     -19.691  -7.949  -5.900  0.00  0.00    -0.646 OA
ENDBRANCH  17  22
ENDBRANCH   3  17
TORSDOF 11
ENDMDL
MODEL 8
REMARK VINA RESULT:      -5.0     15.214     17.204
REMARK  11 active torsions:
REMARK  status: ('A' for Active; 'I' for Inactive)
REMARK    1  A    between atoms: C_3  and  C_19 
REMARK    2  A    between atoms: C_3  and  C_17 
REMARK    3  A    between atoms: C_3  and  N_11 
REMARK    4  A    between atoms: Se_6  and  C_20 
REMARK    5  A    between atoms: N_7  and  C_8 
REMARK    6  A    between atoms: C_8  and  C_24 
REMARK       I    between atoms: C_10  and  N_11 
REMARK    7  A    between atoms: C_10  and  C_22 
REMARK    8  A    between atoms: N_16  and  C_22 
REMARK    9  A    between atoms: C_19  and  C_20 
REMARK   10  A    between atoms: C_22  and  C_23 
REMARK   11  A    between atoms: C_23  and  C_24 
ROOT
HETATM    1  H           1     -21.684  -7.229  -6.519  0.00  0.00     0.163 HD
HETATM    2  C           1     -20.872  -5.325  -6.478  0.00  0.00     0.249 C 
HETATM    3  N           1     -21.114  -6.581  -5.990  0.00  0.00    -0.345 N 
HETATM    4  O           1     -20.192  -4.552  -5.847  0.00  0.00    -0.271 OA
ENDROOT
BRANCH   2   5
HETATM    5  C           1     -21.456  -4.907  -7.805  0.00  0.00     0.274 C 
BRANCH   5   6
HETATM    6  N           1     -22.664  -4.051  -7.571  0.00  0.00    -0.067 N 
HETATM    7  H           1     -22.690  -3.282  -8.278  0.00  0.00     0.275 HD
HETATM    8  H           1     -22.620  -3.640  -6.610  0.00  0.00     0.275 HD
HETATM    9  H           1     -23.527  -4.634  -7.659  0.00  0.00     0.275 HD
ENDBRANCH   5   6
BRANCH   5  10
HETATM   10  C           1     -20.418  -4.115  -8.590  0.00  0.00     0.044 C 
BRANCH  10  11
HETATM   11  C           1     -20.441  -4.554 -10.049  0.00  0.00     0.030 C 
BRANCH  11  12
HETATM   12  C           1     -21.085  -3.466 -10.897  0.00  0.00     0.230 C 
BRANCH  12  13
HETATM   13  N           1     -21.410  -4.015 -12.254  0.00  0.00    -0.079 N 
HETATM   14  H           1     -22.174  -3.448 -12.687  0.00  0.00     0.274 HD
HETATM   15  H           1     -21.722  -5.008 -12.163  0.00  0.00     0.274 HD
HETATM   16  H           1     -20.558  -3.971 -12.860  0.00  0.00     0.274 HD
ENDBRANCH  12  13
ENDBRANCH  11  12
ENDBRANCH  10  11
ENDBRANCH   5  10
ENDBRANCH   2   5
BRANCH   3  17
HETATM   17  C           1     -20.553  -6.983  -4.715  0.00  0.00     0.185 C 
BRANCH  17  18
HETATM   18  C           1     -21.680  -7.337  -3.753  0.00  0.00     0.036 C 
BRANCH  18  19
HETATM   19  C           1     -21.814  -6.244  -2.701  0.00  0.00     0.003 C 
BRANCH  19  20
HETATM   20 Se           1     -22.231  -7.049  -0.975  0.00  0.00     0.000 Se
HETATM   21  C           1     -21.877  -8.875  -1.558  0.00  0.00     0.000 C 
ENDBRANCH  19  20
ENDBRANCH  18  19
ENDBRANCH  17  18
BRANCH  17  22
HETATM   22  C           1     -19.664  -8.186  -4.913  0.00  0.00     0.196 C 
HETATM   23  O           1     -19.217  -8.453  -6.050  0.00  0.00    -0.646 OA
HETATM   24  O           1     -19.371  -8.915  -3.941  0.00  0.00    -0.646 OA
ENDBRANCH  17  22
ENDBRANCH   3  17
TORSDOF 11
ENDMDL
MODEL 9
REMARK VINA RESULT:      -4.7     12.770     14.898
REMARK  11 active torsions:
REMARK  status: ('A' for Active; 'I' for Inactive)
REMARK    1  A    between atoms: C_3  and  C_19 
REMARK    2  A    between atoms: C_3  and  C_17 
REMARK    3  A    between atoms: C_3  and  N_11 
REMARK    4  A    between atoms: Se_6  and  C_20 
REMARK    5  A    between atoms: N_7  and  C_8 
REMARK    6  A    between atoms: C_8  and  C_24 
REMARK       I    between atoms: C_10  and  N_11 
REMARK    7  A    between atoms: C_10  and  C_22 
REMARK    8  A    between atoms: N_16  and  C_22 
REMARK    9  A    between atoms: C_19  and  C_20 
REMARK   10  A    between atoms: C_22  and  C_23 
REMARK   11  A    between atoms: C_23  and  C_24 
ROOT
HETATM    1  H           1     -22.877  -3.435  -8.560  0.00  0.00     0.163 HD
HETATM    2  C           1     -21.270  -4.159  -9.644  0.00  0.00     0.249 C 
HETATM    3  N           1     -22.062  -4.034  -8.535  0.00  0.00    -0.345 N 
HETATM    4  O           1     -20.298  -4.876  -9.614  0.00  0.00    -0.271 OA
ENDROOT
BRANCH   2   5
HETATM    5  C           1     -21.611  -3.403 -10.904  0.00  0.00     0.274 C 
BRANCH   5   6
HETATM    6  N           1     -20.355  -2.851 -11.509  0.00  0.00    -0.067 N 
HETATM    7  H           1     -20.600  -2.124 -12.220  0.00  0.00     0.275 HD
HETATM    8  H           1     -19.821  -3.623 -11.969  0.00  0.00     0.275 HD
HETATM    9  H           1     -19.767  -2.420 -10.760  0.00  0.00     0.275 HD
ENDBRANCH   5   6
BRANCH   5  10
HETATM   10  C           1     -22.282  -4.343 -11.896  0.00  0.00     0.044 C 
BRANCH  10  11
HETATM   11  C           1     -23.684  -4.683 -11.406  0.00  0.00     0.030 C 
BRANCH  11  12
HETATM   12  C           1     -24.433  -3.398 -11.079  0.00  0.00     0.230 C 
BRANCH  12  13
HETATM   13  N           1     -25.220  -3.584  -9.816  0.00  0.00    -0.079 N 
HETATM   14  H           1     -25.440  -4.598  -9.688  0.00  0.00     0.274 HD
HETATM   15  H           1     -26.109  -3.039  -9.876  0.00  0.00     0.274 HD
HETATM   16  H           1     -24.657  -3.245  -9.002  0.00  0.00     0.274 HD
ENDBRANCH  12  13
ENDBRANCH  11  12
ENDBRANCH  10  11
ENDBRANCH   5  10
ENDBRANCH   2   5
BRANCH   3  17
HETATM   17  C           1     -21.734  -4.762  -7.324  0.00  0.00     0.185 C 
BRANCH  17  18
HETATM   18  C           1     -20.770  -3.937  -6.481  0.00  0.00     0.036 C 
BRANCH  18  19
HETATM   19  C           1     -19.916  -4.867  -5.629  0.00  0.00     0.003 C 
BRANCH  19  20
HETATM   20 Se           1     -19.616  -6.537  -6.590  0.00  0.00     0.000 Se
HETATM   21  C           1     -20.121  -7.679  -5.093  0.00  0.00     0.000 C 
ENDBRANCH  19  20
ENDBRANCH  18  19
ENDBRANCH  17  18
BRANCH  17  22
HETATM   22  C           1     -22.995  -5.024  -6.537  0.00  0.00     0.196 C 
HETATM   23  O           1     -22.970  -5.800  -5.557  0.00  0.00    -0.646 OA
HETATM   24  O           1     -24.064  -4.464  -6.864  0.00  0.00    -0.646 OA
ENDBRANCH  17  22
ENDBRANCH   3  17
TORSDOF 11
ENDMDL
