MODEL 1
REMARK VINA RESULT:      -6.1      0.000      0.000
REMARK  5 active torsions:
REMARK  status: ('A' for Active; 'I' for Inactive)
REMARK    1  A    between atoms: C_2  and  C_4 
REMARK    2  A    between atoms: C_4  and  C_5 
REMARK    3  A    between atoms: C_4  and  N_8 
REMARK       I    between atoms: N_8  and  C_9 
REMARK    4  A    between atoms: C_9  and  C_10 
REMARK    5  A    between atoms: C_10  and  N_16 
ROOT
HETATM    1  N           1     -22.093  -4.745  -8.804  0.00  0.00    -0.344 N 
HETATM    2  C           1     -21.563  -4.382  -7.595  0.00  0.00     0.248 C 
HETATM    3  H           1     -22.117  -5.719  -9.074  0.00  0.00     0.163 HD
HETATM    4  O           1     -21.535  -3.217  -7.273  0.00  0.00    -0.271 OA
ENDROOT
BRANCH   1   5
HETATM    5  C           1     -22.621  -3.732  -9.698  0.00  0.00     0.189 C 
BRANCH   5   6
HETATM    6  C           1     -22.053  -3.943 -11.095  0.00  0.00     0.010 C 
HETATM    7  C           1     -22.439  -2.767 -11.982  0.00  0.00     0.012 C 
HETATM    8  C           1     -20.535  -4.044 -11.015  0.00  0.00     0.012 C 
ENDBRANCH   5   6
BRANCH   5   9
HETATM    9  C           1     -24.126  -3.838  -9.744  0.00  0.00     0.197 C 
HETATM   10  O           1     -24.666  -4.923 -10.047  0.00  0.00    -0.646 OA
HETATM   11  O           1     -24.831  -2.840  -9.480  0.00  0.00    -0.646 OA
ENDBRANCH   5   9
ENDBRANCH   1   5
BRANCH   2  12
HETATM   12  C           1     -21.013  -5.435  -6.666  0.00  0.00     0.270 C 
HETATM   13  C           1     -20.302  -4.763  -5.498  0.00  0.00     0.050 C 
BRANCH  12  14
HETATM   14  N           1     -20.041  -6.301  -7.410  0.00  0.00    -0.067 N 
HETATM   15  H           1     -20.202  -6.199  -8.439  0.00  0.00     0.275 HD
HETATM   16  H           1     -20.181  -7.299  -7.133  0.00  0.00     0.275 HD
HETATM   17  H           1     -19.065  -6.009  -7.179  0.00  0.00     0.275 HD
ENDBRANCH  12  14
ENDBRANCH   2  12
TORSDOF 5
ENDMDL
MODEL 2
REMARK VINA RESULT:      -5.7     12.050     13.964
REMARK  5 active torsions:
REMARK  status: ('A' for Active; 'I' for Inactive)
REMARK    1  A    between atoms: C_2  and  C_4 
REMARK    2  A    between atoms: C_4  and  C_5 
REMARK    3  A    between atoms: C_4  and  N_8 
REMARK       I    between atoms: N_8  and  C_9 
REMARK    4  A    between atoms: C_9  and  C_10 
REMARK    5  A    between atoms: C_10  and  N_16 
ROOT
HETATM    1  N           1     -35.217  -1.656 -12.776  0.00  0.00    -0.344 N 
HETATM    2  C           1     -34.302  -2.377 -12.055  0.00  0.00     0.248 C 
HETATM    3  H           1     -35.737  -2.101 -13.520  0.00  0.00     0.163 HD
HETATM    4  O           1     -33.681  -1.845 -11.165  0.00  0.00    -0.271 OA
ENDROOT
BRANCH   1   5
HETATM    5  C           1     -35.439  -0.256 -12.472  0.00  0.00     0.189 C 
BRANCH   5   6
HETATM    6  C           1     -35.710   0.506 -13.762  0.00  0.00     0.010 C 
HETATM    7  C           1     -34.592   1.512 -14.001  0.00  0.00     0.012 C 
HETATM    8  C           1     -35.769  -0.475 -14.927  0.00  0.00     0.012 C 
ENDBRANCH   5   6
BRANCH   5   9
HETATM    9  C           1     -36.627  -0.124 -11.550  0.00  0.00     0.197 C 
HETATM   10  O           1     -36.499   0.445 -10.445  0.00  0.00    -0.646 OA
HETATM   11  O           1     -37.737  -0.585 -11.892  0.00  0.00    -0.646 OA
ENDBRANCH   5   9
ENDBRANCH   1   5
BRANCH   2  12
HETATM   12  C           1     -34.071  -3.833 -12.371  0.00  0.00     0.270 C 
HETATM   13  C           1     -32.814  -4.316 -11.658  0.00  0.00     0.050 C 
BRANCH  12  14
HETATM   14  N           1     -33.901  -4.003 -13.852  0.00  0.00    -0.067 N 
HETATM   15  H           1     -34.131  -4.988 -14.118  0.00  0.00     0.275 HD
HETATM   16  H           1     -32.912  -3.792 -14.114  0.00  0.00     0.275 HD
HETATM   17  H           1     -34.542  -3.348 -14.354  0.00  0.00     0.275 HD
ENDBRANCH  12  14
ENDBRANCH   2  12
TORSDOF 5
ENDMDL
MODEL 3
REMARK VINA RESULT:      -5.6     13.053     15.048
REMARK  5 active torsions:
REMARK  status: ('A' for Active; 'I' for Inactive)
REMARK    1  A    between atoms: C_2  and  C_4 
REMARK    2  A    between atoms: C_4  and  C_5 
REMARK    3  A    between atoms: C_4  and  N_8 
REMARK       I    between atoms: N_8  and  C_9 
REMARK    4  A    between atoms: C_9  and  C_10 
REMARK    5  A    between atoms: C_10  and  N_16 
ROOT
HETATM    1  N           1     -35.437  -0.876 -12.228  0.00  0.00    -0.344 N 
HETATM    2  C           1     -36.141  -0.543 -13.354  0.00  0.00     0.248 C 
HETATM    3  H           1     -34.479  -0.569 -12.121  0.00  0.00     0.163 HD
HETATM    4  O           1     -37.285  -0.910 -13.481  0.00  0.00    -0.271 OA
ENDROOT
BRANCH   1   5
HETATM    5  C           1     -36.064  -1.669 -11.189  0.00  0.00     0.189 C 
BRANCH   5   6
HETATM    6  C           1     -35.032  -2.602 -10.570  0.00  0.00     0.010 C 
HETATM    7  C           1     -35.336  -4.037 -10.978  0.00  0.00     0.012 C 
HETATM    8  C           1     -33.642  -2.216 -11.061  0.00  0.00     0.012 C 
ENDBRANCH   5   6
BRANCH   5   9
HETATM    9  C           1     -36.619  -0.754 -10.124  0.00  0.00     0.197 C 
HETATM   10  O           1     -37.807  -0.371 -10.187  0.00  0.00    -0.646 OA
HETATM   11  O           1     -35.890  -0.379  -9.181  0.00  0.00    -0.646 OA
ENDBRANCH   5   9
ENDBRANCH   1   5
BRANCH   2  12
HETATM   12  C           1     -35.488   0.282 -14.435  0.00  0.00     0.270 C 
HETATM   13  C           1     -34.531   1.283 -13.803  0.00  0.00     0.050 C 
BRANCH  12  14
HETATM   14  N           1     -36.542   1.018 -15.208  0.00  0.00    -0.067 N 
HETATM   15  H           1     -36.590   2.008 -14.875  0.00  0.00     0.275 HD
HETATM   16  H           1     -37.467   0.555 -15.062  0.00  0.00     0.275 HD
HETATM   17  H           1     -36.303   1.004 -16.225  0.00  0.00     0.275 HD
ENDBRANCH  12  14
ENDBRANCH   2  12
TORSDOF 5
ENDMDL
MODEL 4
REMARK VINA RESULT:      -5.5     12.718     14.351
REMARK  5 active torsions:
REMARK  status: ('A' for Active; 'I' for Inactive)
REMARK    1  A    between atoms: C_2  and  C_4 
REMARK    2  A    between atoms: C_4  and  C_5 
REMARK    3  A    between atoms: C_4  and  N_8 
REMARK       I    between atoms: N_8  and  C_9 
REMARK    4  A    between atoms: C_9  and  C_10 
REMARK    5  A    between atoms: C_10  and  N_16 
ROOT
HETATM    1  N           1     -34.804  -1.594 -13.154  0.00  0.00    -0.344 N 
HETATM    2  C           1     -35.874  -0.886 -13.633  0.00  0.00     0.248 C 
HETATM    3  H           1     -33.901  -1.509 -13.602  0.00  0.00     0.163 HD
HETATM    4  O           1     -36.952  -0.987 -13.098  0.00  0.00    -0.271 OA
ENDROOT
BRANCH   1   5
HETATM    5  C           1     -34.965  -2.465 -12.007  0.00  0.00     0.189 C 
BRANCH   5   6
HETATM    6  C           1     -34.065  -3.683 -12.164  0.00  0.00     0.010 C 
HETATM    7  C           1     -34.584  -4.814 -11.286  0.00  0.00     0.012 C 
HETATM    8  C           1     -34.064  -4.128 -13.621  0.00  0.00     0.012 C 
ENDBRANCH   5   6
BRANCH   5   9
HETATM    9  C           1     -34.587  -1.717 -10.751  0.00  0.00     0.197 C 
HETATM   10  O           1     -35.470  -1.155 -10.069  0.00  0.00    -0.646 OA
HETATM   11  O           1     -33.391  -1.660 -10.395  0.00  0.00    -0.646 OA
ENDBRANCH   5   9
ENDBRANCH   1   5
BRANCH   2  12
HETATM   12  C           1     -35.706   0.020 -14.827  0.00  0.00     0.270 C 
HETATM   13  C           1     -35.784  -0.805 -16.106  0.00  0.00     0.050 C 
BRANCH  12  14
HETATM   14  N           1     -34.372   0.702 -14.754  0.00  0.00    -0.067 N 
HETATM   15  H           1     -33.706   0.236 -15.412  0.00  0.00     0.275 HD
HETATM   16  H           1     -34.002   0.638 -13.779  0.00  0.00     0.275 HD
HETATM   17  H           1     -34.479   1.707 -15.020  0.00  0.00     0.275 HD
ENDBRANCH  12  14
ENDBRANCH   2  12
TORSDOF 5
ENDMDL
MODEL 5
REMARK VINA RESULT:      -5.0      2.257      2.818
REMARK  5 active torsions:
REMARK  status: ('A' for Active; 'I' for Inactive)
REMARK    1  A    between atoms: C_2  and  C_4 
REMARK    2  A    between atoms: C_4  and  C_5 
REMARK    3  A    between atoms: C_4  and  N_8 
REMARK       I    between atoms: N_8  and  C_9 
REMARK    4  A    between atoms: C_9  and  C_10 
REMARK    5  A    between atoms: C_10  and  N_16 
ROOT
HETATM    1  N           1     -21.836  -4.135  -8.577  0.00  0.00    -0.344 N 
HETATM    2  C           1     -21.395  -5.056  -7.663  0.00  0.00     0.248 C 
HETATM    3  H           1     -22.121  -3.215  -8.269  0.00  0.00     0.163 HD
HETATM    4  O           1     -21.053  -6.155  -8.030  0.00  0.00    -0.271 OA
ENDROOT
BRANCH   1   5
HETATM    5  C           1     -21.892  -4.480  -9.984  0.00  0.00     0.189 C 
BRANCH   5   6
HETATM    6  C           1     -23.067  -3.763 -10.635  0.00  0.00     0.010 C 
HETATM    7  C           1     -23.611  -4.613 -11.776  0.00  0.00     0.012 C 
HETATM    8  C           1     -24.162  -3.541  -9.599  0.00  0.00     0.012 C 
ENDBRANCH   5   6
BRANCH   5   9
HETATM    9  C           1     -20.608  -4.057 -10.656  0.00  0.00     0.197 C 
HETATM   10  O           1     -19.666  -4.870 -10.770  0.00  0.00    -0.646 OA
HETATM   11  O           1     -20.488  -2.895 -11.099  0.00  0.00    -0.646 OA
ENDBRANCH   5   9
ENDBRANCH   1   5
BRANCH   2  12
HETATM   12  C           1     -21.337  -4.697  -6.199  0.00  0.00     0.270 C 
HETATM   13  C           1     -19.890  -4.733  -5.724  0.00  0.00     0.050 C 
BRANCH  12  14
HETATM   14  N           1     -22.146  -5.683  -5.410  0.00  0.00    -0.067 N 
HETATM   15  H           1     -21.915  -6.654  -5.725  0.00  0.00     0.275 HD
HETATM   16  H           1     -23.163  -5.500  -5.563  0.00  0.00     0.275 HD
HETATM   17  H           1     -21.923  -5.585  -4.394  0.00  0.00     0.275 HD
ENDBRANCH  12  14
ENDBRANCH   2  12
TORSDOF 5
ENDMDL
MODEL 6
REMARK VINA RESULT:      -4.9     12.332     14.210
REMARK  5 active torsions:
REMARK  status: ('A' for Active; 'I' for Inactive)
REMARK    1  A    between atoms: C_2  and  C_4 
REMARK    2  A    between atoms: C_4  and  C_5 
REMARK    3  A    between atoms: C_4  and  N_8 
REMARK       I    between atoms: N_8  and  C_9 
REMARK    4  A    between atoms: C_9  and  C_10 
REMARK    5  A    between atoms: C_10  and  N_16 
ROOT
HETATM    1  N           1     -34.616  -1.532 -13.517  0.00  0.00    -0.344 N 
HETATM    2  C           1     -34.722  -2.249 -12.355  0.00  0.00     0.248 C 
HETATM    3  H           1     -33.727  -1.131 -13.785  0.00  0.00     0.163 HD
HETATM    4  O           1     -35.784  -2.727 -12.036  0.00  0.00    -0.271 OA
ENDROOT
BRANCH   1   5
HETATM    5  C           1     -35.778  -1.348 -14.364  0.00  0.00     0.189 C 
BRANCH   5   6
HETATM    6  C           1     -36.280   0.084 -14.232  0.00  0.00     0.010 C 
HETATM    7  C           1     -37.401   0.135 -13.202  0.00  0.00     0.012 C 
HETATM    8  C           1     -35.135   0.983 -13.784  0.00  0.00     0.012 C 
ENDBRANCH   5   6
BRANCH   5   9
HETATM    9  C           1     -35.401  -1.620 -15.801  0.00  0.00     0.197 C 
HETATM   10  O           1     -35.751  -0.824 -16.699  0.00  0.00    -0.646 OA
HETATM   11  O           1     -34.741  -2.640 -16.091  0.00  0.00    -0.646 OA
ENDBRANCH   5   9
ENDBRANCH   1   5
BRANCH   2  12
HETATM   12  C           1     -33.513  -2.439 -11.474  0.00  0.00     0.270 C 
HETATM   13  C           1     -33.226  -3.927 -11.319  0.00  0.00     0.050 C 
BRANCH  12  14
HETATM   14  N           1     -33.777  -1.839 -10.125  0.00  0.00    -0.067 N 
HETATM   15  H           1     -33.483  -2.513  -9.381  0.00  0.00     0.275 HD
HETATM   16  H           1     -34.797  -1.636 -10.029  0.00  0.00     0.275 HD
HETATM   17  H           1     -33.234  -0.952 -10.025  0.00  0.00     0.275 HD
ENDBRANCH  12  14
ENDBRANCH   2  12
TORSDOF 5
ENDMDL
MODEL 7
REMARK VINA RESULT:      -4.9      2.128      4.777
REMARK  5 active torsions:
REMARK  status: ('A' for Active; 'I' for Inactive)
REMARK    1  A    between atoms: C_2  and  C_4 
REMARK    2  A    between atoms: C_4  and  C_5 
REMARK    3  A    between atoms: C_4  and  N_8 
REMARK       I    between atoms: N_8  and  C_9 
REMARK    4  A    between atoms: C_9  and  C_10 
REMARK    5  A    between atoms: C_10  and  N_16 
ROOT
HETATM    1  N           1     -22.665  -4.662  -8.129  0.00  0.00    -0.344 N 
HETATM    2  C           1     -22.836  -4.536  -9.482  0.00  0.00     0.248 C 
HETATM    3  H           1     -23.394  -4.359  -7.497  0.00  0.00     0.163 HD
HETATM    4  O           1     -21.965  -4.899 -10.237  0.00  0.00    -0.271 OA
ENDROOT
BRANCH   1   5
HETATM    5  C           1     -21.439  -5.231  -7.603  0.00  0.00     0.189 C 
BRANCH   5   6
HETATM    6  C           1     -20.533  -4.112  -7.107  0.00  0.00     0.010 C 
HETATM    7  C           1     -19.852  -4.545  -5.816  0.00  0.00     0.012 C 
HETATM    8  C           1     -19.477  -3.810  -8.163  0.00  0.00     0.012 C 
ENDBRANCH   5   6
BRANCH   5   9
HETATM    9  C           1     -21.767  -6.159  -6.457  0.00  0.00     0.197 C 
HETATM   10  O           1     -22.593  -5.809  -5.588  0.00  0.00    -0.646 OA
HETATM   11  O           1     -21.212  -7.275  -6.380  0.00  0.00    -0.646 OA
ENDBRANCH   5   9
ENDBRANCH   1   5
BRANCH   2  12
HETATM   12  C           1     -24.110  -3.944 -10.030  0.00  0.00     0.270 C 
HETATM   13  C           1     -23.795  -3.112 -11.266  0.00  0.00     0.050 C 
BRANCH  12  14
HETATM   14  N           1     -24.744  -3.071  -8.988  0.00  0.00    -0.067 N 
HETATM   15  H           1     -24.617  -3.506  -8.045  0.00  0.00     0.275 HD
HETATM   16  H           1     -25.764  -2.970  -9.192  0.00  0.00     0.275 HD
HETATM   17  H           1     -24.292  -2.129  -9.000  0.00  0.00     0.275 HD
ENDBRANCH  12  14
ENDBRANCH   2  12
TORSDOF 5
ENDMDL
MODEL 8
REMARK VINA RESULT:      -4.7     12.479     14.600
REMARK  5 active torsions:
REMARK  status: ('A' for Active; 'I' for Inactive)
REMARK    1  A    between atoms: C_2  and  C_4 
REMARK    2  A    between atoms: C_4  and  C_5 
REMARK    3  A    between atoms: C_4  and  N_8 
REMARK       I    between atoms: N_8  and  C_9 
REMARK    4  A    between atoms: C_9  and  C_10 
REMARK    5  A    between atoms: C_10  and  N_16 
ROOT
HETATM    1  N           1     -35.423  -1.700 -12.915  0.00  0.00    -0.344 N 
HETATM    2  C           1     -35.337  -0.516 -13.598  0.00  0.00     0.248 C 
HETATM    3  H           1     -36.171  -2.349 -13.121  0.00  0.00     0.163 HD
HETATM    4  O           1     -34.443   0.259 -13.352  0.00  0.00    -0.271 OA
ENDROOT
BRANCH   1   5
HETATM    5  C           1     -34.442  -2.024 -11.898  0.00  0.00     0.189 C 
BRANCH   5   6
HETATM    6  C           1     -35.154  -2.366 -10.597  0.00  0.00     0.010 C 
HETATM    7  C           1     -36.155  -1.268 -10.262  0.00  0.00     0.012 C 
HETATM    8  C           1     -35.887  -3.692 -10.754  0.00  0.00     0.012 C 
ENDBRANCH   5   6
BRANCH   5   9
HETATM    9  C           1     -33.621  -3.208 -12.350  0.00  0.00     0.197 C 
HETATM   10  O           1     -33.872  -3.760 -13.443  0.00  0.00    -0.646 OA
HETATM   11  O           1     -32.692  -3.634 -11.632  0.00  0.00    -0.646 OA
ENDBRANCH   5   9
ENDBRANCH   1   5
BRANCH   2  12
HETATM   12  C           1     -36.358  -0.179 -14.656  0.00  0.00     0.270 C 
HETATM   13  C           1     -35.857   0.991 -15.493  0.00  0.00     0.050 C 
BRANCH  12  14
HETATM   14  N           1     -37.654   0.196 -13.999  0.00  0.00    -0.067 N 
HETATM   15  H           1     -38.182   0.850 -14.620  0.00  0.00     0.275 HD
HETATM   16  H           1     -37.457   0.664 -13.085  0.00  0.00     0.275 HD
HETATM   17  H           1     -38.223  -0.665 -13.834  0.00  0.00     0.275 HD
ENDBRANCH  12  14
ENDBRANCH   2  12
TORSDOF 5
ENDMDL
MODEL 9
REMARK VINA RESULT:      -4.7      2.983      5.617
REMARK  5 active torsions:
REMARK  status: ('A' for Active; 'I' for Inactive)
REMARK    1  A    between atoms: C_2  and  C_4 
REMARK    2  A    between atoms: C_4  and  C_5 
REMARK    3  A    between atoms: C_4  and  N_8 
REMARK       I    between atoms: N_8  and  C_9 
REMARK    4  A    between atoms: C_9  and  C_10 
REMARK    5  A    between atoms: C_10  and  N_16 
ROOT
HETATM    1  N           1     -22.719  -3.868 -11.678  0.00  0.00    -0.344 N 
HETATM    2  C           1     -22.856  -2.722 -12.415  0.00  0.00     0.248 C 
HETATM    3  H           1     -23.094  -4.741 -12.026  0.00  0.00     0.163 HD
HETATM    4  O           1     -22.408  -1.680 -12.000  0.00  0.00    -0.271 OA
ENDROOT
BRANCH   1   5
HETATM    5  C           1     -22.036  -3.831 -10.400  0.00  0.00     0.189 C 
BRANCH   5   6
HETATM    6  C           1     -22.763  -4.731  -9.410  0.00  0.00     0.010 C 
HETATM    7  C           1     -22.752  -4.082  -8.032  0.00  0.00     0.012 C 
HETATM    8  C           1     -24.203  -4.929  -9.867  0.00  0.00     0.012 C 
ENDBRANCH   5   6
BRANCH   5   9
HETATM    9  C           1     -20.617  -4.316 -10.574  0.00  0.00     0.197 C 
HETATM   10  O           1     -19.995  -4.060 -11.627  0.00  0.00    -0.646 OA
HETATM   11  O           1     -20.066  -4.973  -9.665  0.00  0.00    -0.646 OA
ENDBRANCH   5   9
ENDBRANCH   1   5
BRANCH   2  12
HETATM   12  C           1     -23.567  -2.762 -13.745  0.00  0.00     0.270 C 
HETATM   13  C           1     -22.543  -2.872 -14.867  0.00  0.00     0.050 C 
BRANCH  12  14
HETATM   14  N           1     -24.368  -1.506 -13.921  0.00  0.00    -0.067 N 
HETATM   15  H           1     -24.826  -1.515 -14.862  0.00  0.00     0.275 HD
HETATM   16  H           1     -23.735  -0.677 -13.850  0.00  0.00     0.275 HD
HETATM   17  H           1     -25.100  -1.451 -13.178  0.00  0.00     0.275 HD
ENDBRANCH  12  14
ENDBRANCH   2  12
TORSDOF 5
ENDMDL
