MODEL 1
REMARK VINA RESULT:      -5.2      0.000      0.000
REMARK  6 active torsions:
REMARK  status: ('A' for Active; 'I' for Inactive)
REMARK    1  A    between atoms: Se_2  and  C_3 
REMARK    2  A    between atoms: C_3  and  C_5 
REMARK    3  A    between atoms: C_5  and  C_6 
REMARK    4  A    between atoms: C_5  and  N_9 
REMARK       I    between atoms: N_9  and  C_14 
REMARK    5  A    between atoms: N_11  and  C_15 
REMARK    6  A    between atoms: C_14  and  C_15 
ROOT
HETATM    1  H           1     -34.928  -0.574 -11.495  0.00  0.00     0.163 HD
HETATM    2  N           1     -35.021  -1.177 -12.303  0.00  0.00    -0.345 N 
HETATM    3  O           1     -34.477  -3.097 -13.305  0.00  0.00    -0.271 OA
HETATM    4  C           1     -34.367  -2.379 -12.340  0.00  0.00     0.248 C 
ENDROOT
BRANCH   2   5
HETATM    5  C           1     -35.848  -0.767 -13.421  0.00  0.00     0.185 C 
BRANCH   5   6
HETATM    6  C           1     -37.131  -0.133 -12.898  0.00  0.00     0.039 C 
BRANCH   6   7
HETATM    7 Se           1     -37.066  -0.043 -10.952  0.00  0.00     0.000 Se
HETATM    8  H           1     -37.461  -1.447 -10.759  0.00  0.00     0.000 HD
ENDBRANCH   6   7
ENDBRANCH   5   6
BRANCH   5   9
HETATM    9  C           1     -35.096   0.237 -14.260  0.00  0.00     0.196 C 
HETATM   10  O           1     -34.800   1.354 -13.784  0.00  0.00    -0.646 OA
HETATM   11  O           1     -34.768  -0.050 -15.432  0.00  0.00    -0.646 OA
ENDBRANCH   5   9
ENDBRANCH   2   5
BRANCH   4  12
HETATM   12  C           1     -33.506  -2.806 -11.176  0.00  0.00     0.270 C 
HETATM   13  C           1     -33.965  -4.169 -10.678  0.00  0.00     0.050 C 
BRANCH  12  14
HETATM   14  N           1     -33.631  -1.802 -10.069  0.00  0.00    -0.067 N 
HETATM   15  H           1     -32.731  -1.279  -9.969  0.00  0.00     0.275 HD
HETATM   16  H           1     -33.847  -2.296  -9.174  0.00  0.00     0.275 HD
HETATM   17  H           1     -34.401  -1.132 -10.291  0.00  0.00     0.275 HD
ENDBRANCH  12  14
ENDBRANCH   4  12
TORSDOF 6
ENDMDL
MODEL 2
REMARK VINA RESULT:      -5.1      2.641      2.903
REMARK  6 active torsions:
REMARK  status: ('A' for Active; 'I' for Inactive)
REMARK    1  A    between atoms: Se_2  and  C_3 
REMARK    2  A    between atoms: C_3  and  C_5 
REMARK    3  A    between atoms: C_5  and  C_6 
REMARK    4  A    between atoms: C_5  and  N_9 
REMARK       I    between atoms: N_9  and  C_14 
REMARK    5  A    between atoms: N_11  and  C_15 
REMARK    6  A    between atoms: C_14  and  C_15 
ROOT
HETATM    1  H           1     -35.237  -2.124 -14.419  0.00  0.00     0.163 HD
HETATM    2  N           1     -35.168  -1.572 -13.573  0.00  0.00    -0.345 N 
HETATM    3  O           1     -34.533  -1.454 -11.435  0.00  0.00    -0.271 OA
HETATM    4  C           1     -34.614  -2.113 -12.445  0.00  0.00     0.248 C 
ENDROOT
BRANCH   2   5
HETATM    5  C           1     -35.658  -0.207 -13.557  0.00  0.00     0.185 C 
BRANCH   5   6
HETATM    6  C           1     -35.536   0.392 -14.953  0.00  0.00     0.039 C 
BRANCH   6   7
HETATM    7 Se           1     -35.542  -1.038 -16.278  0.00  0.00     0.000 Se
HETATM    8  H           1     -35.966  -2.076 -15.325  0.00  0.00     0.000 HD
ENDBRANCH   6   7
ENDBRANCH   5   6
BRANCH   5   9
HETATM    9  C           1     -37.105  -0.198 -13.131  0.00  0.00     0.196 C 
HETATM   10  O           1     -37.426   0.278 -12.020  0.00  0.00    -0.646 OA
HETATM   11  O           1     -37.983  -0.665 -13.888  0.00  0.00    -0.646 OA
ENDBRANCH   5   9
ENDBRANCH   2   5
BRANCH   4  12
HETATM   12  C           1     -34.104  -3.534 -12.460  0.00  0.00     0.270 C 
HETATM   13  C           1     -32.829  -3.625 -11.633  0.00  0.00     0.050 C 
BRANCH  12  14
HETATM   14  N           1     -33.812  -3.943 -13.873  0.00  0.00    -0.067 N 
HETATM   15  H           1     -32.820  -4.261 -13.947  0.00  0.00     0.275 HD
HETATM   16  H           1     -33.966  -3.129 -14.511  0.00  0.00     0.275 HD
HETATM   17  H           1     -34.450  -4.724 -14.148  0.00  0.00     0.275 HD
ENDBRANCH  12  14
ENDBRANCH   4  12
TORSDOF 6
ENDMDL
MODEL 3
REMARK VINA RESULT:      -5.0     12.482     13.800
REMARK  6 active torsions:
REMARK  status: ('A' for Active; 'I' for Inactive)
REMARK    1  A    between atoms: Se_2  and  C_3 
REMARK    2  A    between atoms: C_3  and  C_5 
REMARK    3  A    between atoms: C_5  and  C_6 
REMARK    4  A    between atoms: C_5  and  N_9 
REMARK       I    between atoms: N_9  and  C_14 
REMARK    5  A    between atoms: N_11  and  C_15 
REMARK    6  A    between atoms: C_14  and  C_15 
ROOT
HETATM    1  H           1     -22.404  -5.761  -8.702  0.00  0.00     0.163 HD
HETATM    2  N           1     -22.273  -4.770  -8.547  0.00  0.00    -0.345 N 
HETATM    3  O           1     -21.549  -3.144  -7.198  0.00  0.00    -0.271 OA
HETATM    4  C           1     -21.704  -4.328  -7.383  0.00  0.00     0.248 C 
ENDROOT
BRANCH   2   5
HETATM    5  C           1     -22.690  -3.816  -9.557  0.00  0.00     0.185 C 
BRANCH   5   6
HETATM    6  C           1     -22.054  -4.182 -10.893  0.00  0.00     0.039 C 
BRANCH   6   7
HETATM    7 Se           1     -22.616  -2.905 -12.253  0.00  0.00     0.000 Se
HETATM    8  H           1     -23.409  -2.086 -11.322  0.00  0.00     0.000 HD
ENDBRANCH   6   7
ENDBRANCH   5   6
BRANCH   5   9
HETATM    9  C           1     -24.193  -3.850  -9.690  0.00  0.00     0.196 C 
HETATM   10  O           1     -24.860  -2.809  -9.503  0.00  0.00    -0.646 OA
HETATM   11  O           1     -24.770  -4.918  -9.987  0.00  0.00    -0.646 OA
ENDBRANCH   5   9
ENDBRANCH   2   5
BRANCH   4  12
HETATM   12  C           1     -21.270  -5.319  -6.331  0.00  0.00     0.270 C 
HETATM   13  C           1     -20.118  -4.733  -5.525  0.00  0.00     0.050 C 
BRANCH  12  14
HETATM   14  N           1     -20.820  -6.586  -6.995  0.00  0.00    -0.067 N 
HETATM   15  H           1     -20.354  -7.203  -6.292  0.00  0.00     0.275 HD
HETATM   16  H           1     -20.146  -6.359  -7.760  0.00  0.00     0.275 HD
HETATM   17  H           1     -21.648  -7.081  -7.399  0.00  0.00     0.275 HD
ENDBRANCH  12  14
ENDBRANCH   4  12
TORSDOF 6
ENDMDL
MODEL 4
REMARK VINA RESULT:      -5.0      2.755      4.668
REMARK  6 active torsions:
REMARK  status: ('A' for Active; 'I' for Inactive)
REMARK    1  A    between atoms: Se_2  and  C_3 
REMARK    2  A    between atoms: C_3  and  C_5 
REMARK    3  A    between atoms: C_5  and  C_6 
REMARK    4  A    between atoms: C_5  and  N_9 
REMARK       I    between atoms: N_9  and  C_14 
REMARK    5  A    between atoms: N_11  and  C_15 
REMARK    6  A    between atoms: C_14  and  C_15 
ROOT
HETATM    1  H           1     -33.914  -1.354 -13.779  0.00  0.00     0.163 HD
HETATM    2  N           1     -34.803  -1.507 -13.320  0.00  0.00    -0.345 N 
HETATM    3  O           1     -36.967  -0.976 -13.160  0.00  0.00    -0.271 OA
HETATM    4  C           1     -35.906  -0.793 -13.708  0.00  0.00     0.248 C 
ENDROOT
BRANCH   2   5
HETATM    5  C           1     -34.910  -2.482 -12.253  0.00  0.00     0.185 C 
BRANCH   5   6
HETATM    6  C           1     -34.022  -3.680 -12.569  0.00  0.00     0.039 C 
BRANCH   6   7
HETATM    7 Se           1     -34.530  -5.183 -11.438  0.00  0.00     0.000 Se
HETATM    8  H           1     -34.853  -6.072 -12.566  0.00  0.00     0.000 HD
ENDBRANCH   6   7
ENDBRANCH   5   6
BRANCH   5   9
HETATM    9  C           1     -34.466  -1.855 -10.954  0.00  0.00     0.196 C 
HETATM   10  O           1     -35.308  -1.336 -10.190  0.00  0.00    -0.646 OA
HETATM   11  O           1     -33.256  -1.857 -10.641  0.00  0.00    -0.646 OA
ENDBRANCH   5   9
ENDBRANCH   2   5
BRANCH   4  12
HETATM   12  C           1     -35.796   0.221 -14.819  0.00  0.00     0.270 C 
HETATM   13  C           1     -34.896   1.366 -14.375  0.00  0.00     0.050 C 
BRANCH  12  14
HETATM   14  N           1     -37.159   0.755 -15.144  0.00  0.00    -0.067 N 
HETATM   15  H           1     -37.625   0.125 -15.835  0.00  0.00     0.275 HD
HETATM   16  H           1     -37.070   1.714 -15.551  0.00  0.00     0.275 HD
HETATM   17  H           1     -37.733   0.801 -14.271  0.00  0.00     0.275 HD
ENDBRANCH  12  14
ENDBRANCH   4  12
TORSDOF 6
ENDMDL
MODEL 5
REMARK VINA RESULT:      -4.8      3.050      4.754
REMARK  6 active torsions:
REMARK  status: ('A' for Active; 'I' for Inactive)
REMARK    1  A    between atoms: Se_2  and  C_3 
REMARK    2  A    between atoms: C_3  and  C_5 
REMARK    3  A    between atoms: C_5  and  C_6 
REMARK    4  A    between atoms: C_5  and  N_9 
REMARK       I    between atoms: N_9  and  C_14 
REMARK    5  A    between atoms: N_11  and  C_15 
REMARK    6  A    between atoms: C_14  and  C_15 
ROOT
HETATM    1  H           1     -35.096   0.039 -12.659  0.00  0.00     0.163 HD
HETATM    2  N           1     -36.039  -0.329 -12.647  0.00  0.00    -0.345 N 
HETATM    3  O           1     -37.935  -0.713 -13.764  0.00  0.00    -0.271 OA
HETATM    4  C           1     -36.809  -0.275 -13.778  0.00  0.00     0.248 C 
ENDROOT
BRANCH   2   5
HETATM    5  C           1     -36.575  -0.911 -11.433  0.00  0.00     0.185 C 
BRANCH   5   6
HETATM    6  C           1     -35.516  -1.793 -10.783  0.00  0.00     0.039 C 
BRANCH   6   7
HETATM    7 Se           1     -34.602  -2.832 -12.156  0.00  0.00     0.000 Se
HETATM    8  H           1     -34.051  -3.814 -11.210  0.00  0.00     0.000 HD
ENDBRANCH   6   7
ENDBRANCH   5   6
BRANCH   5   9
HETATM    9  C           1     -36.968   0.189 -10.478  0.00  0.00     0.196 C 
HETATM   10  O           1     -38.074   0.758 -10.601  0.00  0.00    -0.646 OA
HETATM   11  O           1     -36.187   0.532  -9.564  0.00  0.00    -0.646 OA
ENDBRANCH   5   9
ENDBRANCH   2   5
BRANCH   4  12
HETATM   12  C           1     -36.252   0.331 -15.043  0.00  0.00     0.270 C 
HETATM   13  C           1     -35.102   1.267 -14.694  0.00  0.00     0.050 C 
BRANCH  12  14
HETATM   14  N           1     -37.330   1.104 -15.742  0.00  0.00    -0.067 N 
HETATM   15  H           1     -37.072   2.116 -15.769  0.00  0.00     0.275 HD
HETATM   16  H           1     -38.232   0.988 -15.227  0.00  0.00     0.275 HD
HETATM   17  H           1     -37.439   0.746 -16.718  0.00  0.00     0.275 HD
ENDBRANCH  12  14
ENDBRANCH   4  12
TORSDOF 6
ENDMDL
MODEL 6
REMARK VINA RESULT:      -4.6     11.658     12.372
REMARK  6 active torsions:
REMARK  status: ('A' for Active; 'I' for Inactive)
REMARK    1  A    between atoms: Se_2  and  C_3 
REMARK    2  A    between atoms: C_3  and  C_5 
REMARK    3  A    between atoms: C_5  and  C_6 
REMARK    4  A    between atoms: C_5  and  N_9 
REMARK       I    between atoms: N_9  and  C_14 
REMARK    5  A    between atoms: N_11  and  C_15 
REMARK    6  A    between atoms: C_14  and  C_15 
ROOT
HETATM    1  H           1     -27.059  -8.079 -18.699  0.00  0.00     0.163 HD
HETATM    2  N           1     -27.312  -7.209 -19.151  0.00  0.00    -0.345 N 
HETATM    3  O           1     -28.499  -5.319 -19.087  0.00  0.00    -0.271 OA
HETATM    4  C           1     -28.196  -6.356 -18.547  0.00  0.00     0.248 C 
ENDROOT
BRANCH   2   5
HETATM    5  C           1     -26.739  -6.867 -20.438  0.00  0.00     0.185 C 
BRANCH   5   6
HETATM    6  C           1     -25.366  -6.239 -20.231  0.00  0.00     0.039 C 
BRANCH   6   7
HETATM    7 Se           1     -24.491  -7.076 -18.704  0.00  0.00     0.000 Se
HETATM    8  H           1     -23.564  -5.956 -18.475  0.00  0.00     0.000 HD
ENDBRANCH   6   7
ENDBRANCH   5   6
BRANCH   5   9
HETATM    9  C           1     -26.600  -8.116 -21.273  0.00  0.00     0.196 C 
HETATM   10  O           1     -25.497  -8.405 -21.787  0.00  0.00    -0.646 OA
HETATM   11  O           1     -27.587  -8.862 -21.451  0.00  0.00    -0.646 OA
ENDBRANCH   5   9
ENDBRANCH   2   5
BRANCH   4  12
HETATM   12  C           1     -28.793  -6.711 -17.207  0.00  0.00     0.270 C 
HETATM   13  C           1     -27.716  -6.632 -16.134  0.00  0.00     0.050 C 
BRANCH  12  14
HETATM   14  N           1     -29.344  -8.105 -17.260  0.00  0.00    -0.067 N 
HETATM   15  H           1     -29.729  -8.292 -18.214  0.00  0.00     0.275 HD
HETATM   16  H           1     -30.105  -8.206 -16.552  0.00  0.00     0.275 HD
HETATM   17  H           1     -28.582  -8.789 -17.051  0.00  0.00     0.275 HD
ENDBRANCH  12  14
ENDBRANCH   4  12
TORSDOF 6
ENDMDL
MODEL 7
REMARK VINA RESULT:      -4.5     10.516     11.326
REMARK  6 active torsions:
REMARK  status: ('A' for Active; 'I' for Inactive)
REMARK    1  A    between atoms: Se_2  and  C_3 
REMARK    2  A    between atoms: C_3  and  C_5 
REMARK    3  A    between atoms: C_5  and  C_6 
REMARK    4  A    between atoms: C_5  and  N_9 
REMARK       I    between atoms: N_9  and  C_14 
REMARK    5  A    between atoms: N_11  and  C_15 
REMARK    6  A    between atoms: C_14  and  C_15 
ROOT
HETATM    1  H           1     -26.175  -7.104 -16.996  0.00  0.00     0.163 HD
HETATM    2  N           1     -26.850  -6.710 -17.640  0.00  0.00    -0.345 N 
HETATM    3  O           1     -27.293  -5.973 -19.701  0.00  0.00    -0.271 OA
HETATM    4  C           1     -26.488  -6.444 -18.933  0.00  0.00     0.248 C 
ENDROOT
BRANCH   2   5
HETATM    5  C           1     -28.200  -6.427 -17.192  0.00  0.00     0.185 C 
BRANCH   5   6
HETATM    6  C           1     -29.154  -7.463 -17.772  0.00  0.00     0.039 C 
BRANCH   6   7
HETATM    7 Se           1     -30.993  -6.869 -17.519  0.00  0.00     0.000 Se
HETATM    8  H           1     -30.634  -5.772 -16.605  0.00  0.00     0.000 HD
ENDBRANCH   6   7
ENDBRANCH   5   6
BRANCH   5   9
HETATM    9  C           1     -28.251  -6.483 -15.685  0.00  0.00     0.196 C 
HETATM   10  O           1     -27.849  -7.502 -15.083  0.00  0.00    -0.646 OA
HETATM   11  O           1     -28.694  -5.509 -15.038  0.00  0.00    -0.646 OA
ENDBRANCH   5   9
ENDBRANCH   2   5
BRANCH   4  12
HETATM   12  C           1     -25.084  -6.739 -19.400  0.00  0.00     0.270 C 
HETATM   13  C           1     -25.134  -7.655 -20.615  0.00  0.00     0.050 C 
BRANCH  12  14
HETATM   14  N           1     -24.322  -7.412 -18.297  0.00  0.00    -0.067 N 
HETATM   15  H           1     -23.704  -8.151 -18.702  0.00  0.00     0.275 HD
HETATM   16  H           1     -24.994  -7.849 -17.627  0.00  0.00     0.275 HD
HETATM   17  H           1     -23.739  -6.706 -17.794  0.00  0.00     0.275 HD
ENDBRANCH  12  14
ENDBRANCH   4  12
TORSDOF 6
ENDMDL
MODEL 8
REMARK VINA RESULT:      -4.5     12.750     13.884
REMARK  6 active torsions:
REMARK  status: ('A' for Active; 'I' for Inactive)
REMARK    1  A    between atoms: Se_2  and  C_3 
REMARK    2  A    between atoms: C_3  and  C_5 
REMARK    3  A    between atoms: C_5  and  C_6 
REMARK    4  A    between atoms: C_5  and  N_9 
REMARK       I    between atoms: N_9  and  C_14 
REMARK    5  A    between atoms: N_11  and  C_15 
REMARK    6  A    between atoms: C_14  and  C_15 
ROOT
HETATM    1  H           1     -22.527  -3.472  -9.074  0.00  0.00     0.163 HD
HETATM    2  N           1     -21.879  -4.011  -9.635  0.00  0.00    -0.345 N 
HETATM    3  O           1     -19.882  -4.998  -9.796  0.00  0.00    -0.271 OA
HETATM    4  C           1     -20.655  -4.355  -9.126  0.00  0.00     0.248 C 
ENDROOT
BRANCH   2   5
HETATM    5  C           1     -22.247  -4.419 -10.977  0.00  0.00     0.185 C 
BRANCH   5   6
HETATM    6  C           1     -23.718  -4.815 -11.001  0.00  0.00     0.039 C 
BRANCH   6   7
HETATM    7 Se           1     -24.743  -3.578  -9.898  0.00  0.00     0.000 Se
HETATM    8  H           1     -24.114  -3.999  -8.637  0.00  0.00     0.000 HD
ENDBRANCH   6   7
ENDBRANCH   5   6
BRANCH   5   9
HETATM    9  C           1     -22.018  -3.272 -11.930  0.00  0.00     0.196 C 
HETATM   10  O           1     -21.273  -2.324 -11.601  0.00  0.00    -0.646 OA
HETATM   11  O           1     -22.573  -3.270 -13.050  0.00  0.00    -0.646 OA
ENDBRANCH   5   9
ENDBRANCH   2   5
BRANCH   4  12
HETATM   12  C           1     -20.272  -3.932  -7.729  0.00  0.00     0.270 C 
HETATM   13  C           1     -19.767  -5.140  -6.953  0.00  0.00     0.050 C 
BRANCH  12  14
HETATM   14  N           1     -21.471  -3.357  -7.036  0.00  0.00    -0.067 N 
HETATM   15  H           1     -22.100  -4.132  -6.728  0.00  0.00     0.275 HD
HETATM   16  H           1     -21.986  -2.730  -7.694  0.00  0.00     0.275 HD
HETATM   17  H           1     -21.161  -2.807  -6.203  0.00  0.00     0.275 HD
ENDBRANCH  12  14
ENDBRANCH   4  12
TORSDOF 6
ENDMDL
MODEL 9
REMARK VINA RESULT:      -4.5     10.357     11.124
REMARK  6 active torsions:
REMARK  status: ('A' for Active; 'I' for Inactive)
REMARK    1  A    between atoms: Se_2  and  C_3 
REMARK    2  A    between atoms: C_3  and  C_5 
REMARK    3  A    between atoms: C_5  and  C_6 
REMARK    4  A    between atoms: C_5  and  N_9 
REMARK       I    between atoms: N_9  and  C_14 
REMARK    5  A    between atoms: N_11  and  C_15 
REMARK    6  A    between atoms: C_14  and  C_15 
ROOT
HETATM    1  H           1     -27.841  -7.090 -19.641  0.00  0.00     0.163 HD
HETATM    2  N           1     -27.730  -6.710 -18.710  0.00  0.00    -0.345 N 
HETATM    3  O           1     -26.357  -5.883 -17.154  0.00  0.00    -0.271 OA
HETATM    4  C           1     -26.489  -6.336 -18.266  0.00  0.00     0.248 C 
ENDROOT
BRANCH   2   5
HETATM    5  C           1     -28.884  -6.560 -17.845  0.00  0.00     0.185 C 
BRANCH   5   6
HETATM    6  C           1     -29.777  -5.448 -18.380  0.00  0.00     0.039 C 
BRANCH   6   7
HETATM    7 Se           1     -31.199  -5.081 -17.099  0.00  0.00     0.000 Se
HETATM    8  H           1     -31.887  -4.111 -17.965  0.00  0.00     0.000 HD
ENDBRANCH   6   7
ENDBRANCH   5   6
BRANCH   5   9
HETATM    9  C           1     -29.658  -7.855 -17.812  0.00  0.00     0.196 C 
HETATM   10  O           1     -29.578  -8.606 -16.816  0.00  0.00    -0.646 OA
HETATM   11  O           1     -30.381  -8.176 -18.781  0.00  0.00    -0.646 OA
ENDBRANCH   5   9
ENDBRANCH   2   5
BRANCH   4  12
HETATM   12  C           1     -25.287  -6.492 -19.165  0.00  0.00     0.270 C 
HETATM   13  C           1     -25.717  -7.122 -20.483  0.00  0.00     0.050 C 
BRANCH  12  14
HETATM   14  N           1     -24.275  -7.374 -18.496  0.00  0.00    -0.067 N 
HETATM   15  H           1     -23.418  -6.817 -18.278  0.00  0.00     0.275 HD
HETATM   16  H           1     -24.026  -8.163 -19.134  0.00  0.00     0.275 HD
HETATM   17  H           1     -24.677  -7.756 -17.611  0.00  0.00     0.275 HD
ENDBRANCH  12  14
ENDBRANCH   4  12
TORSDOF 6
ENDMDL
