MODEL 1
REMARK VINA RESULT:      -5.4      0.000      0.000
REMARK  8 active torsions:
REMARK  status: ('A' for Active; 'I' for Inactive)
REMARK    1  A    between atoms: C_2  and  C_3 
REMARK    2  A    between atoms: C_2  and  C_19 
REMARK    3  A    between atoms: C_2  and  N_16 
REMARK       I    between atoms: C_3  and  N_8 
REMARK    4  A    between atoms: S_4  and  C_5 
REMARK    5  A    between atoms: C_5  and  C_13 
REMARK    6  A    between atoms: N_8  and  C_13 
REMARK    7  A    between atoms: C_9  and  C_13 
REMARK    8  A    between atoms: C_18  and  C_19 
ROOT
HETATM    1  C           1     -22.298  -4.044  -7.773  0.00  0.00     0.249 C 
HETATM    2  H           1     -23.805  -5.101  -8.718  0.00  0.00     0.163 HD
HETATM    3  N           1     -23.125  -4.357  -8.816  0.00  0.00    -0.344 N 
HETATM    4  O           1     -21.488  -3.156  -7.890  0.00  0.00    -0.271 OA
ENDROOT
BRANCH   1   5
HETATM    5  C           1     -22.396  -4.808  -6.476  0.00  0.00     0.278 C 
BRANCH   5   6
HETATM    6  C           1     -21.538  -6.063  -6.559  0.00  0.00     0.021 C 
HETATM    7  C           1     -20.067  -5.675  -6.557  0.00  0.00     0.012 C 
BRANCH   6   8
HETATM    8  C           1     -21.828  -6.956  -5.359  0.00  0.00     0.002 C 
HETATM    9  C           1     -21.252  -6.320  -4.101  0.00  0.00     0.005 C 
ENDBRANCH   6   8
ENDBRANCH   5   6
BRANCH   5  10
HETATM   10  N           1     -23.824  -5.195  -6.229  0.00  0.00    -0.066 N 
HETATM   11  H           1     -23.857  -6.113  -5.731  0.00  0.00     0.275 HD
HETATM   12  H           1     -24.325  -5.276  -7.143  0.00  0.00     0.275 HD
HETATM   13  H           1     -24.286  -4.463  -5.643  0.00  0.00     0.275 HD
ENDBRANCH   5  10
ENDBRANCH   1   5
BRANCH   3  14
HETATM   14  C           1     -23.031  -3.623 -10.063  0.00  0.00     0.194 C 
BRANCH  14  15
HETATM   15  C           1     -22.326  -4.481 -11.106  0.00  0.00     0.106 C 
BRANCH  15  16
HETATM   16  S           1     -20.578  -4.003 -11.203  0.00  0.00    -0.180 SA
HETATM   17  H           1     -20.090  -5.255 -11.204  0.00  0.00     0.101 HD
ENDBRANCH  15  16
ENDBRANCH  14  15
BRANCH  14  18
HETATM   18  C           1     -24.417  -3.277 -10.549  0.00  0.00     0.197 C 
HETATM   19  O           1     -24.606  -3.000 -11.754  0.00  0.00    -0.646 OA
HETATM   20  O           1     -25.377  -3.266  -9.749  0.00  0.00    -0.646 OA
ENDBRANCH  14  18
ENDBRANCH   3  14
TORSDOF 8
ENDMDL
MODEL 2
REMARK VINA RESULT:      -5.4      2.309      2.590
REMARK  8 active torsions:
REMARK  status: ('A' for Active; 'I' for Inactive)
REMARK    1  A    between atoms: C_2  and  C_3 
REMARK    2  A    between atoms: C_2  and  C_19 
REMARK    3  A    between atoms: C_2  and  N_16 
REMARK       I    between atoms: C_3  and  N_8 
REMARK    4  A    between atoms: S_4  and  C_5 
REMARK    5  A    between atoms: C_5  and  C_13 
REMARK    6  A    between atoms: N_8  and  C_13 
REMARK    7  A    between atoms: C_9  and  C_13 
REMARK    8  A    between atoms: C_18  and  C_19 
ROOT
HETATM    1  C           1     -20.735  -4.324  -9.036  0.00  0.00     0.249 C 
HETATM    2  H           1     -22.607  -3.444  -9.082  0.00  0.00     0.163 HD
HETATM    3  N           1     -21.933  -3.989  -9.605  0.00  0.00    -0.344 N 
HETATM    4  O           1     -19.931  -4.974  -9.660  0.00  0.00    -0.271 OA
ENDROOT
BRANCH   1   5
HETATM    5  C           1     -20.419  -3.885  -7.628  0.00  0.00     0.278 C 
BRANCH   5   6
HETATM    6  C           1     -20.080  -5.102  -6.779  0.00  0.00     0.021 C 
HETATM    7  C           1     -19.939  -4.683  -5.322  0.00  0.00     0.012 C 
BRANCH   6   8
HETATM    8  C           1     -21.194  -6.134  -6.903  0.00  0.00     0.002 C 
HETATM    9  C           1     -21.685  -6.523  -5.516  0.00  0.00     0.005 C 
ENDBRANCH   6   8
ENDBRANCH   5   6
BRANCH   5  10
HETATM   10  N           1     -21.609  -3.184  -7.043  0.00  0.00    -0.066 N 
HETATM   11  H           1     -21.310  -2.274  -6.625  0.00  0.00     0.275 HD
HETATM   12  H           1     -22.036  -3.784  -6.301  0.00  0.00     0.275 HD
HETATM   13  H           1     -22.313  -3.007  -7.795  0.00  0.00     0.275 HD
ENDBRANCH   5  10
ENDBRANCH   1   5
BRANCH   3  14
HETATM   14  C           1     -22.237  -4.411 -10.958  0.00  0.00     0.194 C 
BRANCH  14  15
HETATM   15  C           1     -23.708  -4.798 -11.052  0.00  0.00     0.106 C 
BRANCH  15  16
HETATM   16  S           1     -24.694  -3.691 -10.004  0.00  0.00    -0.180 SA
HETATM   17  H           1     -25.545  -3.305 -10.970  0.00  0.00     0.101 HD
ENDBRANCH  15  16
ENDBRANCH  14  15
BRANCH  14  18
HETATM   18  C           1     -21.953  -3.280 -11.915  0.00  0.00     0.197 C 
HETATM   19  O           1     -22.474  -3.276 -13.051  0.00  0.00    -0.646 OA
HETATM   20  O           1     -21.194  -2.347 -11.573  0.00  0.00    -0.646 OA
ENDBRANCH  14  18
ENDBRANCH   3  14
TORSDOF 8
ENDMDL
MODEL 3
REMARK VINA RESULT:      -5.3      2.840      5.756
REMARK  8 active torsions:
REMARK  status: ('A' for Active; 'I' for Inactive)
REMARK    1  A    between atoms: C_2  and  C_3 
REMARK    2  A    between atoms: C_2  and  C_19 
REMARK    3  A    between atoms: C_2  and  N_16 
REMARK       I    between atoms: C_3  and  N_8 
REMARK    4  A    between atoms: S_4  and  C_5 
REMARK    5  A    between atoms: C_5  and  C_13 
REMARK    6  A    between atoms: N_8  and  C_13 
REMARK    7  A    between atoms: C_9  and  C_13 
REMARK    8  A    between atoms: C_18  and  C_19 
ROOT
HETATM    1  C           1     -22.381  -4.202  -8.029  0.00  0.00     0.249 C 
HETATM    2  H           1     -22.728  -6.210  -7.672  0.00  0.00     0.163 HD
HETATM    3  N           1     -22.263  -5.376  -7.337  0.00  0.00    -0.344 N 
HETATM    4  O           1     -21.825  -3.206  -7.630  0.00  0.00    -0.271 OA
ENDROOT
BRANCH   1   5
HETATM    5  C           1     -23.206  -4.149  -9.291  0.00  0.00     0.278 C 
BRANCH   5   6
HETATM    6  C           1     -22.417  -3.443 -10.386  0.00  0.00     0.021 C 
HETATM    7  C           1     -21.373  -4.393 -10.954  0.00  0.00     0.012 C 
BRANCH   6   8
HETATM    8  C           1     -23.366  -3.010 -11.496  0.00  0.00     0.002 C 
HETATM    9  C           1     -22.639  -3.056 -12.833  0.00  0.00     0.005 C 
ENDBRANCH   6   8
ENDBRANCH   5   6
BRANCH   5  10
HETATM   10  N           1     -24.476  -3.398  -9.028  0.00  0.00    -0.066 N 
HETATM   11  H           1     -24.256  -2.395  -8.833  0.00  0.00     0.275 HD
HETATM   12  H           1     -24.962  -3.815  -8.202  0.00  0.00     0.275 HD
HETATM   13  H           1     -25.098  -3.461  -9.866  0.00  0.00     0.275 HD
ENDBRANCH   5  10
ENDBRANCH   1   5
BRANCH   3  14
HETATM   14  C           1     -21.470  -5.426  -6.124  0.00  0.00     0.194 C 
BRANCH  14  15
HETATM   15  C           1     -22.015  -6.513  -5.206  0.00  0.00     0.106 C 
BRANCH  15  16
HETATM   16  S           1     -21.387  -6.256  -3.522  0.00  0.00    -0.180 SA
HETATM   17  H           1     -21.064  -4.962  -3.690  0.00  0.00     0.101 HD
ENDBRANCH  15  16
ENDBRANCH  14  15
BRANCH  14  18
HETATM   18  C           1     -20.036  -5.735  -6.473  0.00  0.00     0.197 C 
HETATM   19  O           1     -19.693  -6.911  -6.727  0.00  0.00    -0.646 OA
HETATM   20  O           1     -19.188  -4.817  -6.507  0.00  0.00    -0.646 OA
ENDBRANCH  14  18
ENDBRANCH   3  14
TORSDOF 8
ENDMDL
MODEL 4
REMARK VINA RESULT:      -5.2     11.114     12.593
REMARK  8 active torsions:
REMARK  status: ('A' for Active; 'I' for Inactive)
REMARK    1  A    between atoms: C_2  and  C_3 
REMARK    2  A    between atoms: C_2  and  C_19 
REMARK    3  A    between atoms: C_2  and  N_16 
REMARK       I    between atoms: C_3  and  N_8 
REMARK    4  A    between atoms: S_4  and  C_5 
REMARK    5  A    between atoms: C_5  and  C_13 
REMARK    6  A    between atoms: N_8  and  C_13 
REMARK    7  A    between atoms: C_9  and  C_13 
REMARK    8  A    between atoms: C_18  and  C_19 
ROOT
HETATM    1  C           1     -26.433  -6.337 -18.094  0.00  0.00     0.249 C 
HETATM    2  H           1     -27.699  -7.147 -19.517  0.00  0.00     0.163 HD
HETATM    3  N           1     -27.641  -6.743 -18.590  0.00  0.00    -0.344 N 
HETATM    4  O           1     -26.364  -5.856 -16.989  0.00  0.00    -0.271 OA
ENDROOT
BRANCH   1   5
HETATM    5  C           1     -25.185  -6.487 -18.930  0.00  0.00     0.278 C 
BRANCH   5   6
HETATM    6  C           1     -25.554  -7.037 -20.301  0.00  0.00     0.021 C 
HETATM    7  C           1     -25.557  -5.905 -21.319  0.00  0.00     0.012 C 
BRANCH   6   8
HETATM    8  C           1     -24.535  -8.089 -20.717  0.00  0.00     0.002 C 
HETATM    9  C           1     -24.117  -7.851 -22.161  0.00  0.00     0.005 C 
ENDBRANCH   6   8
ENDBRANCH   5   6
BRANCH   5  10
HETATM   10  N           1     -24.240  -7.432 -18.251  0.00  0.00    -0.066 N 
HETATM   11  H           1     -23.841  -6.977 -17.399  0.00  0.00     0.275 HD
HETATM   12  H           1     -23.466  -7.681 -18.908  0.00  0.00     0.275 HD
HETATM   13  H           1     -24.753  -8.299 -17.974  0.00  0.00     0.275 HD
ENDBRANCH   5  10
ENDBRANCH   1   5
BRANCH   3  14
HETATM   14  C           1     -28.840  -6.599 -17.787  0.00  0.00     0.194 C 
BRANCH  14  15
HETATM   15  C           1     -29.715  -5.498 -18.374  0.00  0.00     0.106 C 
BRANCH  15  16
HETATM   16  S           1     -31.071  -5.125 -17.227  0.00  0.00    -0.180 SA
HETATM   17  H           1     -32.057  -5.570 -18.025  0.00  0.00     0.101 HD
ENDBRANCH  15  16
ENDBRANCH  14  15
BRANCH  14  18
HETATM   18  C           1     -29.604  -7.900 -17.784  0.00  0.00     0.197 C 
HETATM   19  O           1     -30.264  -8.241 -18.790  0.00  0.00    -0.646 OA
HETATM   20  O           1     -29.578  -8.639 -16.775  0.00  0.00    -0.646 OA
ENDBRANCH  14  18
ENDBRANCH   3  14
TORSDOF 8
ENDMDL
MODEL 5
REMARK VINA RESULT:      -5.1     10.111     11.935
REMARK  8 active torsions:
REMARK  status: ('A' for Active; 'I' for Inactive)
REMARK    1  A    between atoms: C_2  and  C_3 
REMARK    2  A    between atoms: C_2  and  C_19 
REMARK    3  A    between atoms: C_2  and  N_16 
REMARK       I    between atoms: C_3  and  N_8 
REMARK    4  A    between atoms: S_4  and  C_5 
REMARK    5  A    between atoms: C_5  and  C_13 
REMARK    6  A    between atoms: N_8  and  C_13 
REMARK    7  A    between atoms: C_9  and  C_13 
REMARK    8  A    between atoms: C_18  and  C_19 
ROOT
HETATM    1  C           1     -28.360  -6.352 -18.604  0.00  0.00     0.249 C 
HETATM    2  H           1     -27.284  -8.112 -18.761  0.00  0.00     0.163 HD
HETATM    3  N           1     -27.475  -7.215 -19.190  0.00  0.00    -0.344 N 
HETATM    4  O           1     -28.589  -5.281 -19.115  0.00  0.00    -0.271 OA
ENDROOT
BRANCH   1   5
HETATM    5  C           1     -29.051  -6.735 -17.319  0.00  0.00     0.278 C 
BRANCH   5   6
HETATM    6  C           1     -28.245  -6.218 -16.134  0.00  0.00     0.021 C 
HETATM    7  C           1     -29.191  -5.836 -15.004  0.00  0.00     0.012 C 
BRANCH   6   8
HETATM    8  C           1     -27.295  -7.307 -15.653  0.00  0.00     0.002 C 
HETATM    9  C           1     -25.867  -6.778 -15.663  0.00  0.00     0.005 C 
ENDBRANCH   6   8
ENDBRANCH   5   6
BRANCH   5  10
HETATM   10  N           1     -29.159  -8.229 -17.235  0.00  0.00    -0.066 N 
HETATM   11  H           1     -28.391  -8.602 -16.632  0.00  0.00     0.275 HD
HETATM   12  H           1     -29.078  -8.637 -18.193  0.00  0.00     0.275 HD
HETATM   13  H           1     -30.083  -8.488 -16.822  0.00  0.00     0.275 HD
ENDBRANCH   5  10
ENDBRANCH   1   5
BRANCH   3  14
HETATM   14  C           1     -26.812  -6.846 -20.425  0.00  0.00     0.194 C 
BRANCH  14  15
HETATM   15  C           1     -25.483  -6.171 -20.107  0.00  0.00     0.106 C 
BRANCH  15  16
HETATM   16  S           1     -24.567  -7.174 -18.903  0.00  0.00    -0.180 SA
HETATM   17  H           1     -25.497  -7.114 -17.934  0.00  0.00     0.101 HD
ENDBRANCH  15  16
ENDBRANCH  14  15
BRANCH  14  18
HETATM   18  C           1     -26.562  -8.083 -21.251  0.00  0.00     0.197 C 
HETATM   19  O           1     -25.438  -8.277 -21.764  0.00  0.00    -0.646 OA
HETATM   20  O           1     -27.479  -8.915 -21.426  0.00  0.00    -0.646 OA
ENDBRANCH  14  18
ENDBRANCH   3  14
TORSDOF 8
ENDMDL
MODEL 6
REMARK VINA RESULT:      -5.1      3.811      6.339
REMARK  8 active torsions:
REMARK  status: ('A' for Active; 'I' for Inactive)
REMARK    1  A    between atoms: C_2  and  C_3 
REMARK    2  A    between atoms: C_2  and  C_19 
REMARK    3  A    between atoms: C_2  and  N_16 
REMARK       I    between atoms: C_3  and  N_8 
REMARK    4  A    between atoms: S_4  and  C_5 
REMARK    5  A    between atoms: C_5  and  C_13 
REMARK    6  A    between atoms: N_8  and  C_13 
REMARK    7  A    between atoms: C_9  and  C_13 
REMARK    8  A    between atoms: C_18  and  C_19 
ROOT
HETATM    1  C           1     -21.725  -5.530  -5.840  0.00  0.00     0.249 C 
HETATM    2  H           1     -20.021  -6.392  -5.044  0.00  0.00     0.163 HD
HETATM    3  N           1     -21.033  -6.393  -5.036  0.00  0.00    -0.344 N 
HETATM    4  O           1     -22.933  -5.531  -5.832  0.00  0.00    -0.271 OA
ENDROOT
BRANCH   1   5
HETATM    5  C           1     -20.979  -4.576  -6.741  0.00  0.00     0.278 C 
BRANCH   5   6
HETATM    6  C           1     -21.352  -4.849  -8.192  0.00  0.00     0.021 C 
HETATM    7  C           1     -22.350  -3.802  -8.666  0.00  0.00     0.012 C 
BRANCH   6   8
HETATM    8  C           1     -20.101  -4.785  -9.059  0.00  0.00     0.002 C 
HETATM    9  C           1     -20.478  -4.339 -10.464  0.00  0.00     0.005 C 
ENDBRANCH   6   8
ENDBRANCH   5   6
BRANCH   5  10
HETATM   10  N           1     -19.503  -4.768  -6.561  0.00  0.00    -0.066 N 
HETATM   11  H           1     -19.068  -5.020  -7.478  0.00  0.00     0.275 HD
HETATM   12  H           1     -19.334  -5.536  -5.873  0.00  0.00     0.275 HD
HETATM   13  H           1     -19.078  -3.882  -6.206  0.00  0.00     0.275 HD
ENDBRANCH   5  10
ENDBRANCH   1   5
BRANCH   3  14
HETATM   14  C           1     -21.750  -7.310  -4.171  0.00  0.00     0.194 C 
BRANCH  14  15
HETATM   15  C           1     -21.137  -8.700  -4.284  0.00  0.00     0.106 C 
BRANCH  15  16
HETATM   16  S           1     -19.499  -8.579  -5.057  0.00  0.00    -0.180 SA
HETATM   17  H           1     -18.823  -9.146  -4.042  0.00  0.00     0.101 HD
ENDBRANCH  15  16
ENDBRANCH  14  15
BRANCH  14  18
HETATM   18  C           1     -21.655  -6.832  -2.743  0.00  0.00     0.197 C 
HETATM   19  O           1     -22.397  -5.909  -2.341  0.00  0.00    -0.646 OA
HETATM   20  O           1     -20.834  -7.358  -1.960  0.00  0.00    -0.646 OA
ENDBRANCH  14  18
ENDBRANCH   3  14
TORSDOF 8
ENDMDL
MODEL 7
REMARK VINA RESULT:      -5.0      3.746      5.227
REMARK  8 active torsions:
REMARK  status: ('A' for Active; 'I' for Inactive)
REMARK    1  A    between atoms: C_2  and  C_3 
REMARK    2  A    between atoms: C_2  and  C_19 
REMARK    3  A    between atoms: C_2  and  N_16 
REMARK       I    between atoms: C_3  and  N_8 
REMARK    4  A    between atoms: S_4  and  C_5 
REMARK    5  A    between atoms: C_5  and  C_13 
REMARK    6  A    between atoms: N_8  and  C_13 
REMARK    7  A    between atoms: C_9  and  C_13 
REMARK    8  A    between atoms: C_18  and  C_19 
ROOT
HETATM    1  C           1     -21.459  -6.555  -4.127  0.00  0.00     0.249 C 
HETATM    2  H           1     -20.583  -4.701  -4.403  0.00  0.00     0.163 HD
HETATM    3  N           1     -21.015  -5.491  -4.864  0.00  0.00    -0.344 N 
HETATM    4  O           1     -21.975  -7.498  -4.676  0.00  0.00    -0.271 OA
ENDROOT
BRANCH   1   5
HETATM    5  C           1     -21.306  -6.549  -2.625  0.00  0.00     0.278 C 
BRANCH   5   6
HETATM    6  C           1     -21.413  -7.973  -2.097  0.00  0.00     0.021 C 
HETATM    7  C           1     -20.028  -8.602  -2.048  0.00  0.00     0.012 C 
BRANCH   6   8
HETATM    8  C           1     -22.010  -7.952  -0.696  0.00  0.00     0.002 C 
HETATM    9  C           1     -22.689  -9.284  -0.412  0.00  0.00     0.005 C 
ENDBRANCH   6   8
ENDBRANCH   5   6
BRANCH   5  10
HETATM   10  N           1     -22.388  -5.709  -2.016  0.00  0.00    -0.066 N 
HETATM   11  H           1     -22.276  -5.694  -0.977  0.00  0.00     0.275 HD
HETATM   12  H           1     -23.321  -6.112  -2.260  0.00  0.00     0.275 HD
HETATM   13  H           1     -22.322  -4.734  -2.387  0.00  0.00     0.275 HD
ENDBRANCH   5  10
ENDBRANCH   1   5
BRANCH   3  14
HETATM   14  C           1     -21.162  -5.497  -6.306  0.00  0.00     0.194 C 
BRANCH  14  15
HETATM   15  C           1     -21.818  -4.197  -6.755  0.00  0.00     0.106 C 
BRANCH  15  16
HETATM   16  S           1     -22.311  -4.337  -8.496  0.00  0.00    -0.180 SA
HETATM   17  H           1     -23.082  -3.236  -8.512  0.00  0.00     0.101 HD
ENDBRANCH  15  16
ENDBRANCH  14  15
BRANCH  14  18
HETATM   18  C           1     -19.803  -5.623  -6.950  0.00  0.00     0.197 C 
HETATM   19  O           1     -19.371  -6.748  -7.283  0.00  0.00    -0.646 OA
HETATM   20  O           1     -19.108  -4.603  -7.150  0.00  0.00    -0.646 OA
ENDBRANCH  14  18
ENDBRANCH   3  14
TORSDOF 8
ENDMDL
MODEL 8
REMARK VINA RESULT:      -4.8      5.459      7.343
REMARK  8 active torsions:
REMARK  status: ('A' for Active; 'I' for Inactive)
REMARK    1  A    between atoms: C_2  and  C_3 
REMARK    2  A    between atoms: C_2  and  C_19 
REMARK    3  A    between atoms: C_2  and  N_16 
REMARK       I    between atoms: C_3  and  N_8 
REMARK    4  A    between atoms: S_4  and  C_5 
REMARK    5  A    between atoms: C_5  and  C_13 
REMARK    6  A    between atoms: N_8  and  C_13 
REMARK    7  A    between atoms: C_9  and  C_13 
REMARK    8  A    between atoms: C_18  and  C_19 
ROOT
HETATM    1  C           1     -20.590  -8.087  -2.069  0.00  0.00     0.249 C 
HETATM    2  H           1     -21.796  -6.909  -3.269  0.00  0.00     0.163 HD
HETATM    3  N           1     -21.031  -7.571  -3.257  0.00  0.00    -0.344 N 
HETATM    4  O           1     -19.677  -8.877  -2.054  0.00  0.00    -0.271 OA
ENDROOT
BRANCH   1   5
HETATM    5  C           1     -21.247  -7.670  -0.776  0.00  0.00     0.278 C 
BRANCH   5   6
HETATM    6  C           1     -21.629  -8.909   0.023  0.00  0.00     0.021 C 
HETATM    7  C           1     -21.039  -8.813   1.423  0.00  0.00     0.012 C 
BRANCH   6   8
HETATM    8  C           1     -23.146  -9.003   0.118  0.00  0.00     0.002 C 
HETATM    9  C           1     -23.593 -10.409  -0.259  0.00  0.00     0.005 C 
ENDBRANCH   6   8
ENDBRANCH   5   6
BRANCH   5  10
HETATM   10  N           1     -22.480  -6.870  -1.075  0.00  0.00    -0.066 N 
HETATM   11  H           1     -23.322  -7.382  -0.730  0.00  0.00     0.275 HD
HETATM   12  H           1     -22.558  -6.726  -2.107  0.00  0.00     0.275 HD
HETATM   13  H           1     -22.416  -5.942  -0.598  0.00  0.00     0.275 HD
ENDBRANCH   5  10
ENDBRANCH   1   5
BRANCH   3  14
HETATM   14  C           1     -20.399  -7.972  -4.499  0.00  0.00     0.194 C 
BRANCH  14  15
HETATM   15  C           1     -21.203  -9.098  -5.138  0.00  0.00     0.106 C 
BRANCH  15  16
HETATM   16  S           1     -20.176 -10.591  -5.243  0.00  0.00    -0.180 SA
HETATM   17  H           1     -19.785 -10.402  -6.516  0.00  0.00     0.101 HD
ENDBRANCH  15  16
ENDBRANCH  14  15
BRANCH  14  18
HETATM   18  C           1     -20.348  -6.794  -5.441  0.00  0.00     0.197 C 
HETATM   19  O           1     -20.758  -5.674  -5.064  0.00  0.00    -0.646 OA
HETATM   20  O           1     -19.898  -6.936  -6.598  0.00  0.00    -0.646 OA
ENDBRANCH  14  18
ENDBRANCH   3  14
TORSDOF 8
ENDMDL
MODEL 9
REMARK VINA RESULT:      -4.8      4.092      6.237
REMARK  8 active torsions:
REMARK  status: ('A' for Active; 'I' for Inactive)
REMARK    1  A    between atoms: C_2  and  C_3 
REMARK    2  A    between atoms: C_2  and  C_19 
REMARK    3  A    between atoms: C_2  and  N_16 
REMARK       I    between atoms: C_3  and  N_8 
REMARK    4  A    between atoms: S_4  and  C_5 
REMARK    5  A    between atoms: C_5  and  C_13 
REMARK    6  A    between atoms: N_8  and  C_13 
REMARK    7  A    between atoms: C_9  and  C_13 
REMARK    8  A    between atoms: C_18  and  C_19 
ROOT
HETATM    1  C           1     -20.424  -4.905  -6.215  0.00  0.00     0.249 C 
HETATM    2  H           1     -21.048  -6.649  -7.137  0.00  0.00     0.163 HD
HETATM    3  N           1     -20.736  -6.236  -6.267  0.00  0.00    -0.344 N 
HETATM    4  O           1     -20.051  -4.411  -5.178  0.00  0.00    -0.271 OA
ENDROOT
BRANCH   1   5
HETATM    5  C           1     -20.547  -4.052  -7.454  0.00  0.00     0.278 C 
BRANCH   5   6
HETATM    6  C           1     -21.506  -4.713  -8.434  0.00  0.00     0.021 C 
HETATM    7  C           1     -22.905  -4.145  -8.238  0.00  0.00     0.012 C 
BRANCH   6   8
HETATM    8  C           1     -21.044  -4.439  -9.859  0.00  0.00     0.002 C 
HETATM    9  C           1     -22.209  -3.901 -10.678  0.00  0.00     0.005 C 
ENDBRANCH   6   8
ENDBRANCH   5   6
BRANCH   5  10
HETATM   10  N           1     -19.200  -3.906  -8.096  0.00  0.00    -0.066 N 
HETATM   11  H           1     -19.071  -4.654  -8.814  0.00  0.00     0.275 HD
HETATM   12  H           1     -18.456  -3.991  -7.367  0.00  0.00     0.275 HD
HETATM   13  H           1     -19.133  -2.968  -8.554  0.00  0.00     0.275 HD
ENDBRANCH   5  10
ENDBRANCH   1   5
BRANCH   3  14
HETATM   14  C           1     -20.619  -7.055  -5.077  0.00  0.00     0.194 C 
BRANCH  14  15
HETATM   15  C           1     -21.957  -7.090  -4.349  0.00  0.00     0.106 C 
BRANCH  15  16
HETATM   16  S           1     -21.748  -6.446  -2.665  0.00  0.00    -0.180 SA
HETATM   17  H           1     -21.745  -5.147  -3.011  0.00  0.00     0.101 HD
ENDBRANCH  15  16
ENDBRANCH  14  15
BRANCH  14  18
HETATM   18  C           1     -20.223  -8.457  -5.468  0.00  0.00     0.197 C 
HETATM   19  O           1     -21.101  -9.330  -5.641  0.00  0.00    -0.646 OA
HETATM   20  O           1     -19.016  -8.748  -5.619  0.00  0.00    -0.646 OA
ENDBRANCH  14  18
ENDBRANCH   3  14
TORSDOF 8
ENDMDL
