MODEL 1
REMARK VINA RESULT:      -6.3      0.000      0.000
REMARK  11 active torsions:
REMARK  status: ('A' for Active; 'I' for Inactive)
REMARK       I    between atoms: C_1  and  N_10 
REMARK    1  A    between atoms: C_1  and  C_8 
REMARK    2  A    between atoms: C_2  and  C_15 
REMARK    3  A    between atoms: N_5  and  C_6 
REMARK    4  A    between atoms: C_6  and  C_7 
REMARK    5  A    between atoms: C_7  and  C_14 
REMARK    6  A    between atoms: C_8  and  C_9 
REMARK    7  A    between atoms: C_8  and  N_13 
REMARK    8  A    between atoms: C_9  and  C_25 
REMARK    9  A    between atoms: N_10  and  C_15 
REMARK   10  A    between atoms: C_14  and  C_15 
REMARK       I    between atoms: N_16  and  C_17 
REMARK   11  A    between atoms: C_17  and  C_25 
ROOT
HETATM    1  C           1     -34.358  -2.569 -11.929  0.00  0.00     0.249 C 
HETATM    2  N           1     -35.060  -1.679 -12.696  0.00  0.00    -0.345 N 
HETATM    3  O           1     -33.745  -2.182 -10.963  0.00  0.00    -0.271 OA
HETATM    4  H           1     -35.575  -2.004 -13.505  0.00  0.00     0.163 HD
ENDROOT
BRANCH   1   5
HETATM    5  C           1     -34.349  -4.034 -12.289  0.00  0.00     0.275 C 
BRANCH   5   6
HETATM    6  C           1     -34.702  -4.863 -11.061  0.00  0.00     0.052 C 
BRANCH   6   7
HETATM    7  C           1     -33.724  -6.023 -10.933  0.00  0.00     0.105 C 
BRANCH   7   8
HETATM    8  C           1     -34.408  -7.187 -10.259  0.00  0.00     0.215 C 
HETATM    9  N           1     -33.970  -8.465 -10.487  0.00  0.00    -0.370 N 
HETATM   10  H           1     -34.430  -9.244 -10.036  0.00  0.00     0.159 HD
HETATM   11  H           1     -33.188  -8.628 -11.108  0.00  0.00     0.159 HD
HETATM   12  O           1     -35.342  -6.993  -9.518  0.00  0.00    -0.274 OA
ENDBRANCH   7   8
ENDBRANCH   6   7
ENDBRANCH   5   6
BRANCH   5  13
HETATM   13  N           1     -32.983  -4.420 -12.776  0.00  0.00    -0.066 N 
HETATM   14  H           1     -32.658  -5.270 -12.264  0.00  0.00     0.275 HD
HETATM   15  H           1     -33.023  -4.625 -13.800  0.00  0.00     0.275 HD
HETATM   16  H           1     -32.317  -3.634 -12.602  0.00  0.00     0.275 HD
ENDBRANCH   5  13
ENDBRANCH   1   5
BRANCH   2  17
HETATM   17  C           1     -35.069  -0.271 -12.349  0.00  0.00     0.185 C 
BRANCH  17  18
HETATM   18  C           1     -36.327   0.050 -11.580  0.00  0.00     0.196 C 
HETATM   19  O           1     -37.447  -0.168 -12.094  0.00  0.00    -0.646 OA
HETATM   20  O           1     -36.251   0.534 -10.431  0.00  0.00    -0.646 OA
ENDBRANCH  17  18
BRANCH  17  21
HETATM   21  C           1     -35.023   0.565 -13.621  0.00  0.00     0.038 C 
BRANCH  21  22
HETATM   22  C           1     -35.448  -0.291 -14.807  0.00  0.00     0.030 C 
BRANCH  22  23
HETATM   23  C           1     -36.440   0.483 -15.664  0.00  0.00     0.230 C 
BRANCH  23  24
HETATM   24  N           1     -37.745   0.604 -14.935  0.00  0.00    -0.079 N 
HETATM   25  H           1     -37.947   1.611 -14.747  0.00  0.00     0.274 HD
HETATM   26  H           1     -38.509   0.199 -15.521  0.00  0.00     0.274 HD
HETATM   27  H           1     -37.687   0.086 -14.029  0.00  0.00     0.274 HD
ENDBRANCH  23  24
ENDBRANCH  22  23
ENDBRANCH  21  22
ENDBRANCH  17  21
ENDBRANCH   2  17
TORSDOF 11
ENDMDL
MODEL 2
REMARK VINA RESULT:      -6.3     12.332     13.867
REMARK  11 active torsions:
REMARK  status: ('A' for Active; 'I' for Inactive)
REMARK       I    between atoms: C_1  and  N_10 
REMARK    1  A    between atoms: C_1  and  C_8 
REMARK    2  A    between atoms: C_2  and  C_15 
REMARK    3  A    between atoms: N_5  and  C_6 
REMARK    4  A    between atoms: C_6  and  C_7 
REMARK    5  A    between atoms: C_7  and  C_14 
REMARK    6  A    between atoms: C_8  and  C_9 
REMARK    7  A    between atoms: C_8  and  N_13 
REMARK    8  A    between atoms: C_9  and  C_25 
REMARK    9  A    between atoms: N_10  and  C_15 
REMARK   10  A    between atoms: C_14  and  C_15 
REMARK       I    between atoms: N_16  and  C_17 
REMARK   11  A    between atoms: C_17  and  C_25 
ROOT
HETATM    1  C           1     -21.653  -4.694  -7.736  0.00  0.00     0.249 C 
HETATM    2  N           1     -22.182  -4.897  -8.984  0.00  0.00    -0.345 N 
HETATM    3  O           1     -21.619  -3.581  -7.269  0.00  0.00    -0.271 OA
HETATM    4  H           1     -22.211  -5.830  -9.375  0.00  0.00     0.163 HD
ENDROOT
BRANCH   1   5
HETATM    5  C           1     -21.114  -5.861  -6.946  0.00  0.00     0.275 C 
BRANCH   5   6
HETATM    6  C           1     -21.161  -5.533  -5.460  0.00  0.00     0.052 C 
BRANCH   6   7
HETATM    7  C           1     -22.210  -6.404  -4.780  0.00  0.00     0.105 C 
BRANCH   7   8
HETATM    8  C           1     -21.854  -6.580  -3.325  0.00  0.00     0.215 C 
HETATM    9  N           1     -20.868  -7.459  -2.962  0.00  0.00    -0.370 N 
HETATM   10  H           1     -20.630  -7.577  -1.987  0.00  0.00     0.159 HD
HETATM   11  H           1     -20.380  -7.992  -3.671  0.00  0.00     0.159 HD
HETATM   12  O           1     -22.436  -5.944  -2.479  0.00  0.00    -0.274 OA
ENDBRANCH   7   8
ENDBRANCH   6   7
ENDBRANCH   5   6
BRANCH   5  13
HETATM   13  N           1     -19.695  -6.126  -7.354  0.00  0.00    -0.066 N 
HETATM   14  H           1     -19.109  -6.275  -6.502  0.00  0.00     0.275 HD
HETATM   15  H           1     -19.660  -6.981  -7.954  0.00  0.00     0.275 HD
HETATM   16  H           1     -19.328  -5.307  -7.890  0.00  0.00     0.275 HD
ENDBRANCH   5  13
ENDBRANCH   1   5
BRANCH   2  17
HETATM   17  C           1     -22.700  -3.775  -9.743  0.00  0.00     0.185 C 
BRANCH  17  18
HETATM   18  C           1     -24.209  -3.811  -9.725  0.00  0.00     0.196 C 
HETATM   19  O           1     -24.855  -2.778  -9.443  0.00  0.00    -0.646 OA
HETATM   20  O           1     -24.812  -4.872  -9.991  0.00  0.00    -0.646 OA
ENDBRANCH  17  18
BRANCH  17  21
HETATM   21  C           1     -22.206  -3.865 -11.180  0.00  0.00     0.038 C 
BRANCH  21  22
HETATM   22  C           1     -22.670  -2.639 -11.955  0.00  0.00     0.030 C 
BRANCH  22  23
HETATM   23  C           1     -23.423  -3.080 -13.202  0.00  0.00     0.230 C 
BRANCH  23  24
HETATM   24  N           1     -22.501  -3.043 -14.384  0.00  0.00    -0.079 N 
HETATM   25  H           1     -22.623  -2.138 -14.892  0.00  0.00     0.274 HD
HETATM   26  H           1     -21.513  -3.128 -14.056  0.00  0.00     0.274 HD
HETATM   27  H           1     -22.726  -3.835 -15.027  0.00  0.00     0.274 HD
ENDBRANCH  23  24
ENDBRANCH  22  23
ENDBRANCH  21  22
ENDBRANCH  17  21
ENDBRANCH   2  17
TORSDOF 11
ENDMDL
MODEL 3
REMARK VINA RESULT:      -6.1     10.028     11.354
REMARK  11 active torsions:
REMARK  status: ('A' for Active; 'I' for Inactive)
REMARK       I    between atoms: C_1  and  N_10 
REMARK    1  A    between atoms: C_1  and  C_8 
REMARK    2  A    between atoms: C_2  and  C_15 
REMARK    3  A    between atoms: N_5  and  C_6 
REMARK    4  A    between atoms: C_6  and  C_7 
REMARK    5  A    between atoms: C_7  and  C_14 
REMARK    6  A    between atoms: C_8  and  C_9 
REMARK    7  A    between atoms: C_8  and  N_13 
REMARK    8  A    between atoms: C_9  and  C_25 
REMARK    9  A    between atoms: N_10  and  C_15 
REMARK   10  A    between atoms: C_14  and  C_15 
REMARK       I    between atoms: N_16  and  C_17 
REMARK   11  A    between atoms: C_17  and  C_25 
ROOT
HETATM    1  C           1     -27.200  -6.401 -17.364  0.00  0.00     0.249 C 
HETATM    2  N           1     -28.163  -6.795 -18.254  0.00  0.00    -0.345 N 
HETATM    3  O           1     -27.499  -6.163 -16.218  0.00  0.00    -0.271 OA
HETATM    4  H           1     -27.912  -6.995 -19.214  0.00  0.00     0.163 HD
ENDROOT
BRANCH   1   5
HETATM    5  C           1     -25.766  -6.264 -17.813  0.00  0.00     0.275 C 
BRANCH   5   6
HETATM    6  C           1     -25.649  -6.672 -19.275  0.00  0.00     0.052 C 
BRANCH   6   7
HETATM    7  C           1     -24.275  -7.280 -19.525  0.00  0.00     0.105 C 
BRANCH   7   8
HETATM    8  C           1     -24.314  -8.112 -20.782  0.00  0.00     0.215 C 
HETATM    9  N           1     -23.198  -8.798 -21.184  0.00  0.00    -0.370 N 
HETATM   10  H           1     -23.224  -9.356 -22.027  0.00  0.00     0.159 HD
HETATM   11  H           1     -22.348  -8.746 -20.638  0.00  0.00     0.159 HD
HETATM   12  O           1     -25.328  -8.176 -21.434  0.00  0.00    -0.274 OA
ENDBRANCH   7   8
ENDBRANCH   6   7
ENDBRANCH   5   6
BRANCH   5  13
HETATM   13  N           1     -24.895  -7.152 -16.975  0.00  0.00    -0.066 N 
HETATM   14  H           1     -24.984  -8.140 -17.306  0.00  0.00     0.275 HD
HETATM   15  H           1     -23.899  -6.845 -17.060  0.00  0.00     0.275 HD
HETATM   16  H           1     -25.195  -7.092 -15.976  0.00  0.00     0.275 HD
ENDBRANCH   5  13
ENDBRANCH   1   5
BRANCH   2  17
HETATM   17  C           1     -29.541  -6.926 -17.822  0.00  0.00     0.185 C 
BRANCH  17  18
HETATM   18  C           1     -30.248  -7.931 -18.699  0.00  0.00     0.196 C 
HETATM   19  O           1     -31.491  -7.883 -18.829  0.00  0.00    -0.646 OA
HETATM   20  O           1     -29.592  -8.812 -19.294  0.00  0.00    -0.646 OA
ENDBRANCH  17  18
BRANCH  17  21
HETATM   21  C           1     -30.237  -5.577 -17.932  0.00  0.00     0.038 C 
BRANCH  21  22
HETATM   22  C           1     -30.922  -5.250 -16.612  0.00  0.00     0.030 C 
BRANCH  22  23
HETATM   23  C           1     -32.221  -4.503 -16.885  0.00  0.00     0.230 C 
BRANCH  23  24
HETATM   24  N           1     -31.913  -3.173 -17.508  0.00  0.00    -0.079 N 
HETATM   25  H           1     -30.943  -3.187 -17.896  0.00  0.00     0.274 HD
HETATM   26  H           1     -32.593  -2.985 -18.278  0.00  0.00     0.274 HD
HETATM   27  H           1     -31.987  -2.424 -16.784  0.00  0.00     0.274 HD
ENDBRANCH  23  24
ENDBRANCH  22  23
ENDBRANCH  21  22
ENDBRANCH  17  21
ENDBRANCH   2  17
TORSDOF 11
ENDMDL
MODEL 4
REMARK VINA RESULT:      -6.0     12.446     15.269
REMARK  11 active torsions:
REMARK  status: ('A' for Active; 'I' for Inactive)
REMARK       I    between atoms: C_1  and  N_10 
REMARK    1  A    between atoms: C_1  and  C_8 
REMARK    2  A    between atoms: C_2  and  C_15 
REMARK    3  A    between atoms: N_5  and  C_6 
REMARK    4  A    between atoms: C_6  and  C_7 
REMARK    5  A    between atoms: C_7  and  C_14 
REMARK    6  A    between atoms: C_8  and  C_9 
REMARK    7  A    between atoms: C_8  and  N_13 
REMARK    8  A    between atoms: C_9  and  C_25 
REMARK    9  A    between atoms: N_10  and  C_15 
REMARK   10  A    between atoms: C_14  and  C_15 
REMARK       I    between atoms: N_16  and  C_17 
REMARK   11  A    between atoms: C_17  and  C_25 
ROOT
HETATM    1  C           1     -22.307  -4.167  -8.424  0.00  0.00     0.249 C 
HETATM    2  N           1     -22.083  -4.903  -7.291  0.00  0.00    -0.345 N 
HETATM    3  O           1     -21.516  -3.317  -8.758  0.00  0.00    -0.271 OA
HETATM    4  H           1     -22.745  -5.616  -7.012  0.00  0.00     0.163 HD
ENDROOT
BRANCH   1   5
HETATM    5  C           1     -23.540  -4.418  -9.256  0.00  0.00     0.275 C 
BRANCH   5   6
HETATM    6  C           1     -23.182  -4.338 -10.734  0.00  0.00     0.052 C 
BRANCH   6   7
HETATM    7  C           1     -24.064  -3.300 -11.416  0.00  0.00     0.105 C 
BRANCH   7   8
HETATM    8  C           1     -23.511  -2.990 -12.784  0.00  0.00     0.215 C 
HETATM    9  N           1     -22.247  -3.397 -13.121  0.00  0.00    -0.370 N 
HETATM   10  H           1     -21.876  -3.188 -14.038  0.00  0.00     0.159 HD
HETATM   11  H           1     -21.683  -3.904 -12.451  0.00  0.00     0.159 HD
HETATM   12  O           1     -24.183  -2.385 -13.585  0.00  0.00    -0.274 OA
ENDBRANCH   7   8
ENDBRANCH   6   7
ENDBRANCH   5   6
BRANCH   5  13
HETATM   13  N           1     -24.576  -3.381  -8.936  0.00  0.00    -0.066 N 
HETATM   14  H           1     -25.207  -3.739  -8.184  0.00  0.00     0.275 HD
HETATM   15  H           1     -24.105  -2.507  -8.608  0.00  0.00     0.275 HD
HETATM   16  H           1     -25.138  -3.175  -9.793  0.00  0.00     0.275 HD
ENDBRANCH   5  13
ENDBRANCH   1   5
BRANCH   2  17
HETATM   17  C           1     -20.897  -4.662  -6.491  0.00  0.00     0.185 C 
BRANCH  17  18
HETATM   18  C           1     -19.691  -5.232  -7.198  0.00  0.00     0.196 C 
HETATM   19  O           1     -18.713  -4.497  -7.456  0.00  0.00    -0.646 OA
HETATM   20  O           1     -19.670  -6.437  -7.524  0.00  0.00    -0.646 OA
ENDBRANCH  17  18
BRANCH  17  21
HETATM   21  C           1     -21.056  -5.333  -5.134  0.00  0.00     0.038 C 
BRANCH  21  22
HETATM   22  C           1     -22.208  -6.327  -5.190  0.00  0.00     0.030 C 
BRANCH  22  23
HETATM   23  C           1     -21.729  -7.689  -4.708  0.00  0.00     0.230 C 
BRANCH  23  24
HETATM   24  N           1     -21.138  -8.449  -5.859  0.00  0.00    -0.079 N 
HETATM   25  H           1     -20.118  -8.598  -5.691  0.00  0.00     0.274 HD
HETATM   26  H           1     -21.615  -9.375  -5.945  0.00  0.00     0.274 HD
HETATM   27  H           1     -21.270  -7.904  -6.740  0.00  0.00     0.274 HD
ENDBRANCH  23  24
ENDBRANCH  22  23
ENDBRANCH  21  22
ENDBRANCH  17  21
ENDBRANCH   2  17
TORSDOF 11
ENDMDL
MODEL 5
REMARK VINA RESULT:      -5.9      9.386     11.614
REMARK  11 active torsions:
REMARK  status: ('A' for Active; 'I' for Inactive)
REMARK       I    between atoms: C_1  and  N_10 
REMARK    1  A    between atoms: C_1  and  C_8 
REMARK    2  A    between atoms: C_2  and  C_15 
REMARK    3  A    between atoms: N_5  and  C_6 
REMARK    4  A    between atoms: C_6  and  C_7 
REMARK    5  A    between atoms: C_7  and  C_14 
REMARK    6  A    between atoms: C_8  and  C_9 
REMARK    7  A    between atoms: C_8  and  N_13 
REMARK    8  A    between atoms: C_9  and  C_25 
REMARK    9  A    between atoms: N_10  and  C_15 
REMARK   10  A    between atoms: C_14  and  C_15 
REMARK       I    between atoms: N_16  and  C_17 
REMARK   11  A    between atoms: C_17  and  C_25 
ROOT
HETATM    1  C           1     -28.921  -6.105 -18.670  0.00  0.00     0.249 C 
HETATM    2  N           1     -27.902  -6.997 -18.869  0.00  0.00    -0.345 N 
HETATM    3  O           1     -28.801  -4.959 -19.033  0.00  0.00    -0.271 OA
HETATM    4  H           1     -28.003  -7.957 -18.566  0.00  0.00     0.163 HD
ENDROOT
BRANCH   1   5
HETATM    5  C           1     -30.196  -6.552 -17.997  0.00  0.00     0.275 C 
BRANCH   5   6
HETATM    6  C           1     -30.533  -5.598 -16.860  0.00  0.00     0.052 C 
BRANCH   6   7
HETATM    7  C           1     -32.000  -5.196 -16.952  0.00  0.00     0.105 C 
BRANCH   7   8
HETATM    8  C           1     -32.100  -3.736 -17.320  0.00  0.00     0.215 C 
HETATM    9  N           1     -33.328  -3.139 -17.429  0.00  0.00    -0.370 N 
HETATM   10  H           1     -33.395  -2.161 -17.677  0.00  0.00     0.159 HD
HETATM   11  H           1     -34.169  -3.678 -17.264  0.00  0.00     0.159 HD
HETATM   12  O           1     -31.097  -3.092 -17.517  0.00  0.00    -0.274 OA
ENDBRANCH   7   8
ENDBRANCH   6   7
ENDBRANCH   5   6
BRANCH   5  13
HETATM   13  N           1     -30.010  -7.937 -17.449  0.00  0.00    -0.066 N 
HETATM   14  H           1     -30.675  -8.590 -17.922  0.00  0.00     0.275 HD
HETATM   15  H           1     -29.030  -8.252 -17.624  0.00  0.00     0.275 HD
HETATM   16  H           1     -30.199  -7.932 -16.421  0.00  0.00     0.275 HD
ENDBRANCH   5  13
ENDBRANCH   1   5
BRANCH   2  17
HETATM   17  C           1     -26.677  -6.567 -19.516  0.00  0.00     0.185 C 
BRANCH  17  18
HETATM   18  C           1     -26.358  -7.500 -20.659  0.00  0.00     0.196 C 
HETATM   19  O           1     -25.195  -7.555 -21.115  0.00  0.00    -0.646 OA
HETATM   20  O           1     -27.256  -8.216 -21.150  0.00  0.00    -0.646 OA
ENDBRANCH  17  18
BRANCH  17  21
HETATM   21  C           1     -25.536  -6.590 -18.508  0.00  0.00     0.038 C 
BRANCH  21  22
HETATM   22  C           1     -26.083  -6.304 -17.116  0.00  0.00     0.030 C 
BRANCH  22  23
HETATM   23  C           1     -25.254  -7.052 -16.081  0.00  0.00     0.230 C 
BRANCH  23  24
HETATM   24  N           1     -24.149  -7.799 -16.768  0.00  0.00    -0.079 N 
HETATM   25  H           1     -23.230  -7.504 -16.370  0.00  0.00     0.274 HD
HETATM   26  H           1     -24.280  -8.825 -16.620  0.00  0.00     0.274 HD
HETATM   27  H           1     -24.170  -7.587 -17.791  0.00  0.00     0.274 HD
ENDBRANCH  23  24
ENDBRANCH  22  23
ENDBRANCH  21  22
ENDBRANCH  17  21
ENDBRANCH   2  17
TORSDOF 11
ENDMDL
MODEL 6
REMARK VINA RESULT:      -5.7     12.234     14.886
REMARK  11 active torsions:
REMARK  status: ('A' for Active; 'I' for Inactive)
REMARK       I    between atoms: C_1  and  N_10 
REMARK    1  A    between atoms: C_1  and  C_8 
REMARK    2  A    between atoms: C_2  and  C_15 
REMARK    3  A    between atoms: N_5  and  C_6 
REMARK    4  A    between atoms: C_6  and  C_7 
REMARK    5  A    between atoms: C_7  and  C_14 
REMARK    6  A    between atoms: C_8  and  C_9 
REMARK    7  A    between atoms: C_8  and  N_13 
REMARK    8  A    between atoms: C_9  and  C_25 
REMARK    9  A    between atoms: N_10  and  C_15 
REMARK   10  A    between atoms: C_14  and  C_15 
REMARK       I    between atoms: N_16  and  C_17 
REMARK   11  A    between atoms: C_17  and  C_25 
ROOT
HETATM    1  C           1     -21.910  -4.017 -10.297  0.00  0.00     0.249 C 
HETATM    2  N           1     -21.491  -3.797  -9.012  0.00  0.00    -0.345 N 
HETATM    3  O           1     -22.419  -5.072 -10.594  0.00  0.00    -0.271 OA
HETATM    4  H           1     -21.066  -2.913  -8.763  0.00  0.00     0.163 HD
ENDROOT
BRANCH   1   5
HETATM    5  C           1     -21.737  -2.942 -11.342  0.00  0.00     0.275 C 
BRANCH   5   6
HETATM    6  C           1     -22.358  -3.403 -12.653  0.00  0.00     0.052 C 
BRANCH   6   7
HETATM    7  C           1     -23.585  -2.554 -12.961  0.00  0.00     0.105 C 
BRANCH   7   8
HETATM    8  C           1     -23.474  -1.995 -14.358  0.00  0.00     0.215 C 
HETATM    9  N           1     -24.121  -0.833 -14.685  0.00  0.00    -0.370 N 
HETATM   10  H           1     -24.047  -0.460 -15.622  0.00  0.00     0.159 HD
HETATM   11  H           1     -24.674  -0.349 -13.990  0.00  0.00     0.159 HD
HETATM   12  O           1     -22.813  -2.572 -15.189  0.00  0.00    -0.274 OA
ENDBRANCH   7   8
ENDBRANCH   6   7
ENDBRANCH   5   6
BRANCH   5  13
HETATM   13  N           1     -20.275  -2.677 -11.547  0.00  0.00    -0.066 N 
HETATM   14  H           1     -19.851  -3.464 -12.089  0.00  0.00     0.275 HD
HETATM   15  H           1     -20.153  -1.785 -12.077  0.00  0.00     0.275 HD
HETATM   16  H           1     -19.802  -2.601 -10.619  0.00  0.00     0.275 HD
ENDBRANCH   5  13
ENDBRANCH   1   5
BRANCH   2  17
HETATM   17  C           1     -21.658  -4.830  -8.008  0.00  0.00     0.185 C 
BRANCH  17  18
HETATM   18  C           1     -22.974  -4.632  -7.296  0.00  0.00     0.196 C 
HETATM   19  O           1     -23.119  -5.039  -6.123  0.00  0.00    -0.646 OA
HETATM   20  O           1     -23.920  -4.062  -7.880  0.00  0.00    -0.646 OA
ENDBRANCH  17  18
BRANCH  17  21
HETATM   21  C           1     -20.519  -4.748  -7.001  0.00  0.00     0.038 C 
BRANCH  21  22
HETATM   22  C           1     -19.787  -6.082  -6.951  0.00  0.00     0.030 C 
BRANCH  22  23
HETATM   23  C           1     -20.193  -6.837  -5.692  0.00  0.00     0.230 C 
BRANCH  23  24
HETATM   24  N           1     -21.315  -7.779  -6.013  0.00  0.00    -0.079 N 
HETATM   25  H           1     -21.974  -7.823  -5.203  0.00  0.00     0.274 HD
HETATM   26  H           1     -21.825  -7.437  -6.858  0.00  0.00     0.274 HD
HETATM   27  H           1     -20.928  -8.731  -6.199  0.00  0.00     0.274 HD
ENDBRANCH  23  24
ENDBRANCH  22  23
ENDBRANCH  21  22
ENDBRANCH  17  21
ENDBRANCH   2  17
TORSDOF 11
ENDMDL
MODEL 7
REMARK VINA RESULT:      -5.7     14.072     16.979
REMARK  11 active torsions:
REMARK  status: ('A' for Active; 'I' for Inactive)
REMARK       I    between atoms: C_1  and  N_10 
REMARK    1  A    between atoms: C_1  and  C_8 
REMARK    2  A    between atoms: C_2  and  C_15 
REMARK    3  A    between atoms: N_5  and  C_6 
REMARK    4  A    between atoms: C_6  and  C_7 
REMARK    5  A    between atoms: C_7  and  C_14 
REMARK    6  A    between atoms: C_8  and  C_9 
REMARK    7  A    between atoms: C_8  and  N_13 
REMARK    8  A    between atoms: C_9  and  C_25 
REMARK    9  A    between atoms: N_10  and  C_15 
REMARK   10  A    between atoms: C_14  and  C_15 
REMARK       I    between atoms: N_16  and  C_17 
REMARK   11  A    between atoms: C_17  and  C_25 
ROOT
HETATM    1  C           1     -21.361  -5.516  -5.701  0.00  0.00     0.249 C 
HETATM    2  N           1     -20.759  -6.410  -4.856  0.00  0.00    -0.345 N 
HETATM    3  O           1     -22.565  -5.499  -5.804  0.00  0.00    -0.271 OA
HETATM    4  H           1     -19.751  -6.423  -4.770  0.00  0.00     0.163 HD
ENDROOT
BRANCH   1   5
HETATM    5  C           1     -20.523  -4.553  -6.505  0.00  0.00     0.275 C 
BRANCH   5   6
HETATM    6  C           1     -21.433  -3.608  -7.278  0.00  0.00     0.052 C 
BRANCH   6   7
HETATM    7  C           1     -21.513  -4.055  -8.732  0.00  0.00     0.105 C 
BRANCH   7   8
HETATM    8  C           1     -22.952  -4.318  -9.100  0.00  0.00     0.215 C 
HETATM    9  N           1     -23.952  -4.020  -8.212  0.00  0.00    -0.370 N 
HETATM   10  H           1     -24.916  -4.197  -8.459  0.00  0.00     0.159 HD
HETATM   11  H           1     -23.725  -3.623  -7.309  0.00  0.00     0.159 HD
HETATM   12  O           1     -23.223  -4.790 -10.178  0.00  0.00    -0.274 OA
ENDBRANCH   7   8
ENDBRANCH   6   7
ENDBRANCH   5   6
BRANCH   5  13
HETATM   13  N           1     -19.666  -5.321  -7.468  0.00  0.00    -0.066 N 
HETATM   14  H           1     -20.188  -6.162  -7.803  0.00  0.00     0.275 HD
HETATM   15  H           1     -19.426  -4.712  -8.283  0.00  0.00     0.275 HD
HETATM   16  H           1     -18.790  -5.625  -6.987  0.00  0.00     0.275 HD
ENDBRANCH   5  13
ENDBRANCH   1   5
BRANCH   2  17
HETATM   17  C           1     -21.566  -7.335  -4.084  0.00  0.00     0.185 C 
BRANCH  17  18
HETATM   18  C           1     -21.635  -6.866  -2.651  0.00  0.00     0.196 C 
HETATM   19  O           1     -22.424  -5.950  -2.330  0.00  0.00    -0.646 OA
HETATM   20  O           1     -20.904  -7.392  -1.786  0.00  0.00    -0.646 OA
ENDBRANCH  17  18
BRANCH  17  21
HETATM   21  C           1     -20.936  -8.720  -4.136  0.00  0.00     0.038 C 
BRANCH  21  22
HETATM   22  C           1     -19.631  -8.657  -4.918  0.00  0.00     0.030 C 
BRANCH  22  23
HETATM   23  C           1     -18.549  -9.416  -4.161  0.00  0.00     0.230 C 
BRANCH  23  24
HETATM   24  N           1     -18.728  -9.207  -2.687  0.00  0.00    -0.079 N 
HETATM   25  H           1     -19.737  -9.315  -2.440  0.00  0.00     0.274 HD
HETATM   26  H           1     -18.164  -9.916  -2.165  0.00  0.00     0.274 HD
HETATM   27  H           1     -18.407  -8.247  -2.429  0.00  0.00     0.274 HD
ENDBRANCH  23  24
ENDBRANCH  22  23
ENDBRANCH  21  22
ENDBRANCH  17  21
ENDBRANCH   2  17
TORSDOF 11
ENDMDL
MODEL 8
REMARK VINA RESULT:      -5.5     13.535     16.466
REMARK  11 active torsions:
REMARK  status: ('A' for Active; 'I' for Inactive)
REMARK       I    between atoms: C_1  and  N_10 
REMARK    1  A    between atoms: C_1  and  C_8 
REMARK    2  A    between atoms: C_2  and  C_15 
REMARK    3  A    between atoms: N_5  and  C_6 
REMARK    4  A    between atoms: C_6  and  C_7 
REMARK    5  A    between atoms: C_7  and  C_14 
REMARK    6  A    between atoms: C_8  and  C_9 
REMARK    7  A    between atoms: C_8  and  N_13 
REMARK    8  A    between atoms: C_9  and  C_25 
REMARK    9  A    between atoms: N_10  and  C_15 
REMARK   10  A    between atoms: C_14  and  C_15 
REMARK       I    between atoms: N_16  and  C_17 
REMARK   11  A    between atoms: C_17  and  C_25 
ROOT
HETATM    1  C           1     -20.722  -4.799  -6.054  0.00  0.00     0.249 C 
HETATM    2  N           1     -21.448  -5.928  -5.783  0.00  0.00    -0.345 N 
HETATM    3  O           1     -19.858  -4.438  -5.291  0.00  0.00    -0.271 OA
HETATM    4  H           1     -22.171  -6.230  -6.423  0.00  0.00     0.163 HD
ENDROOT
BRANCH   1   5
HETATM    5  C           1     -21.002  -4.004  -7.306  0.00  0.00     0.275 C 
BRANCH   5   6
HETATM    6  C           1     -22.366  -4.390  -7.860  0.00  0.00     0.052 C 
BRANCH   6   7
HETATM    7  C           1     -22.342  -4.298  -9.380  0.00  0.00     0.105 C 
BRANCH   7   8
HETATM    8  C           1     -23.593  -3.608  -9.864  0.00  0.00     0.215 C 
HETATM    9  N           1     -24.596  -3.309  -8.980  0.00  0.00    -0.370 N 
HETATM   10  H           1     -25.434  -2.846  -9.305  0.00  0.00     0.159 HD
HETATM   11  H           1     -24.498  -3.553  -8.003  0.00  0.00     0.159 HD
HETATM   12  O           1     -23.710  -3.316 -11.030  0.00  0.00    -0.274 OA
ENDBRANCH   7   8
ENDBRANCH   6   7
ENDBRANCH   5   6
BRANCH   5  13
HETATM   13  N           1     -19.945  -4.299  -8.329  0.00  0.00    -0.066 N 
HETATM   14  H           1     -20.385  -4.368  -9.275  0.00  0.00     0.275 HD
HETATM   15  H           1     -19.237  -3.530  -8.331  0.00  0.00     0.275 HD
HETATM   16  H           1     -19.478  -5.204  -8.097  0.00  0.00     0.275 HD
ENDBRANCH   5  13
ENDBRANCH   1   5
BRANCH   2  17
HETATM   17  C           1     -21.179  -6.691  -4.580  0.00  0.00     0.185 C 
BRANCH  17  18
HETATM   18  C           1     -21.046  -8.153  -4.932  0.00  0.00     0.196 C 
HETATM   19  O           1     -21.177  -8.525  -6.118  0.00  0.00    -0.646 OA
HETATM   20  O           1     -20.806  -8.992  -4.037  0.00  0.00    -0.646 OA
ENDBRANCH  17  18
BRANCH  17  21
HETATM   21  C           1     -22.326  -6.508  -3.596  0.00  0.00     0.038 C 
BRANCH  21  22
HETATM   22  C           1     -21.776  -6.045  -2.253  0.00  0.00     0.030 C 
BRANCH  22  23
HETATM   23  C           1     -22.156  -7.050  -1.175  0.00  0.00     0.230 C 
BRANCH  23  24
HETATM   24  N           1     -21.087  -8.097  -1.065  0.00  0.00    -0.079 N 
HETATM   25  H           1     -20.204  -7.658  -0.720  0.00  0.00     0.274 HD
HETATM   26  H           1     -21.394  -8.838  -0.395  0.00  0.00     0.274 HD
HETATM   27  H           1     -20.920  -8.523  -2.004  0.00  0.00     0.274 HD
ENDBRANCH  23  24
ENDBRANCH  22  23
ENDBRANCH  21  22
ENDBRANCH  17  21
ENDBRANCH   2  17
TORSDOF 11
ENDMDL
MODEL 9
REMARK VINA RESULT:      -5.4     13.711     15.634
REMARK  11 active torsions:
REMARK  status: ('A' for Active; 'I' for Inactive)
REMARK       I    between atoms: C_1  and  N_10 
REMARK    1  A    between atoms: C_1  and  C_8 
REMARK    2  A    between atoms: C_2  and  C_15 
REMARK    3  A    between atoms: N_5  and  C_6 
REMARK    4  A    between atoms: C_6  and  C_7 
REMARK    5  A    between atoms: C_7  and  C_14 
REMARK    6  A    between atoms: C_8  and  C_9 
REMARK    7  A    between atoms: C_8  and  N_13 
REMARK    8  A    between atoms: C_9  and  C_25 
REMARK    9  A    between atoms: N_10  and  C_15 
REMARK   10  A    between atoms: C_14  and  C_15 
REMARK       I    between atoms: N_16  and  C_17 
REMARK   11  A    between atoms: C_17  and  C_25 
ROOT
HETATM    1  C           1     -21.536  -6.823  -5.681  0.00  0.00     0.249 C 
HETATM    2  N           1     -21.786  -5.556  -6.136  0.00  0.00    -0.345 N 
HETATM    3  O           1     -20.942  -7.609  -6.380  0.00  0.00    -0.271 OA
HETATM    4  H           1     -22.284  -4.897  -5.550  0.00  0.00     0.163 HD
ENDROOT
BRANCH   1   5
HETATM    5  C           1     -22.003  -7.238  -4.308  0.00  0.00     0.275 C 
BRANCH   5   6
HETATM    6  C           1     -21.304  -6.390  -3.255  0.00  0.00     0.052 C 
BRANCH   6   7
HETATM    7  C           1     -22.216  -6.228  -2.045  0.00  0.00     0.105 C 
BRANCH   7   8
HETATM    8  C           1     -21.906  -7.302  -1.033  0.00  0.00     0.215 C 
HETATM    9  N           1     -22.823  -7.617  -0.065  0.00  0.00    -0.370 N 
HETATM   10  H           1     -22.614  -8.337   0.614  0.00  0.00     0.159 HD
HETATM   11  H           1     -23.708  -7.128  -0.029  0.00  0.00     0.159 HD
HETATM   12  O           1     -20.850  -7.887  -1.076  0.00  0.00    -0.274 OA
ENDBRANCH   7   8
ENDBRANCH   6   7
ENDBRANCH   5   6
BRANCH   5  13
HETATM   13  N           1     -21.671  -8.685  -4.086  0.00  0.00    -0.066 N 
HETATM   14  H           1     -20.645  -8.784  -3.913  0.00  0.00     0.275 HD
HETATM   15  H           1     -22.199  -9.040  -3.257  0.00  0.00     0.275 HD
HETATM   16  H           1     -21.936  -9.236  -4.932  0.00  0.00     0.275 HD
ENDBRANCH   5  13
ENDBRANCH   1   5
BRANCH   2  17
HETATM   17  C           1     -21.338  -5.157  -7.456  0.00  0.00     0.185 C 
BRANCH  17  18
HETATM   18  C           1     -20.029  -4.414  -7.339  0.00  0.00     0.196 C 
HETATM   19  O           1     -19.624  -3.707  -8.287  0.00  0.00    -0.646 OA
HETATM   20  O           1     -19.350  -4.505  -6.294  0.00  0.00    -0.646 OA
ENDBRANCH  17  18
BRANCH  17  21
HETATM   21  C           1     -22.381  -4.250  -8.094  0.00  0.00     0.038 C 
BRANCH  21  22
HETATM   22  C           1     -22.676  -4.732  -9.508  0.00  0.00     0.030 C 
BRANCH  22  23
HETATM   23  C           1     -23.843  -3.939 -10.082  0.00  0.00     0.230 C 
BRANCH  23  24
HETATM   24  N           1     -24.586  -3.264  -8.967  0.00  0.00    -0.079 N 
HETATM   25  H           1     -23.970  -3.202  -8.126  0.00  0.00     0.274 HD
HETATM   26  H           1     -24.862  -2.302  -9.268  0.00  0.00     0.274 HD
HETATM   27  H           1     -25.441  -3.816  -8.734  0.00  0.00     0.274 HD
ENDBRANCH  23  24
ENDBRANCH  22  23
ENDBRANCH  21  22
ENDBRANCH  17  21
ENDBRANCH   2  17
TORSDOF 11
ENDMDL
