MODEL 1
REMARK VINA RESULT:      -8.1      0.000      0.000
REMARK  8 active torsions:
REMARK  status: ('A' for Active; 'I' for Inactive)
REMARK    1  A    between atoms: N_4  and  C_23 
REMARK       I    between atoms: N_4  and  C_5 
REMARK    2  A    between atoms: C_5  and  C_6 
REMARK    3  A    between atoms: C_6  and  C_7 
REMARK    4  A    between atoms: C_6  and  N_9 
REMARK    5  A    between atoms: C_7  and  O_8 
REMARK    6  A    between atoms: C_11  and  C_20 
REMARK    7  A    between atoms: C_17  and  C_23 
REMARK    8  A    between atoms: C_20  and  C_23 
ROOT
HETATM    1  H           1     -33.935  -1.324 -13.883  0.00  0.00     0.163 HD
HETATM    2  N           1     -34.756  -0.856 -13.521  0.00  0.00    -0.344 N 
HETATM    3  C           1     -35.211   0.288 -14.119  0.00  0.00     0.251 C 
HETATM    4  O           1     -34.807   1.364 -13.750  0.00  0.00    -0.271 OA
ENDROOT
BRANCH   2   5
HETATM    5  C           1     -35.450  -1.397 -12.369  0.00  0.00     0.189 C 
BRANCH   5   6
HETATM    6  C           1     -36.482  -0.405 -11.891  0.00  0.00     0.197 C 
HETATM    7  O           1     -36.166   0.473 -11.059  0.00  0.00    -0.646 OA
HETATM    8  O           1     -37.652  -0.461 -12.327  0.00  0.00    -0.646 OA
ENDBRANCH   5   6
BRANCH   5   9
HETATM    9  C           1     -34.448  -1.666 -11.254  0.00  0.00     0.074 C 
BRANCH   9  10
HETATM   10  C           1     -34.114  -3.125 -11.224  0.00  0.00    -0.056 A 
HETATM   11  C           1     -35.026  -4.037 -10.693  0.00  0.00     0.007 A 
HETATM   12  C           1     -34.715  -5.397 -10.663  0.00  0.00     0.001 A 
HETATM   13  C           1     -33.492  -5.844 -11.165  0.00  0.00     0.000 A 
HETATM   14  C           1     -32.581  -4.931 -11.695  0.00  0.00     0.001 A 
HETATM   15  C           1     -32.892  -3.572 -11.724  0.00  0.00     0.007 A 
ENDBRANCH   9  10
ENDBRANCH   5   9
ENDBRANCH   2   5
BRANCH   3  16
HETATM   16  C           1     -36.217   0.204 -15.240  0.00  0.00     0.297 C 
BRANCH  16  17
HETATM   17  C           1     -35.778  -0.859 -16.240  0.00  0.00     0.206 C 
BRANCH  17  18
HETATM   18  O           1     -36.552  -0.754 -17.404  0.00  0.00    -0.398 OA
HETATM   19  H           1     -36.123  -1.269 -18.065  0.00  0.00     0.209 HD
ENDBRANCH  17  18
ENDBRANCH  16  17
BRANCH  16  20
HETATM   20  N           1     -36.308   1.532 -15.932  0.00  0.00    -0.064 N 
HETATM   21  H           1     -35.624   2.195 -15.504  0.00  0.00     0.275 HD
HETATM   22  H           1     -36.088   1.413 -16.947  0.00  0.00     0.275 HD
HETATM   23  H           1     -37.276   1.913 -15.828  0.00  0.00     0.275 HD
ENDBRANCH  16  20
ENDBRANCH   3  16
TORSDOF 8
ENDMDL
MODEL 2
REMARK VINA RESULT:      -7.6      1.604      2.196
REMARK  8 active torsions:
REMARK  status: ('A' for Active; 'I' for Inactive)
REMARK    1  A    between atoms: N_4  and  C_23 
REMARK       I    between atoms: N_4  and  C_5 
REMARK    2  A    between atoms: C_5  and  C_6 
REMARK    3  A    between atoms: C_6  and  C_7 
REMARK    4  A    between atoms: C_6  and  N_9 
REMARK    5  A    between atoms: C_7  and  O_8 
REMARK    6  A    between atoms: C_11  and  C_20 
REMARK    7  A    between atoms: C_17  and  C_23 
REMARK    8  A    between atoms: C_20  and  C_23 
ROOT
HETATM    1  H           1     -37.084   1.022 -11.938  0.00  0.00     0.163 HD
HETATM    2  N           1     -36.825   0.086 -12.222  0.00  0.00    -0.344 N 
HETATM    3  C           1     -36.859  -0.261 -13.546  0.00  0.00     0.251 C 
HETATM    4  O           1     -37.867  -0.720 -14.025  0.00  0.00    -0.271 OA
ENDROOT
BRANCH   2   5
HETATM    5  C           1     -36.421  -0.888 -11.227  0.00  0.00     0.189 C 
BRANCH   5   6
HETATM    6  C           1     -36.873  -0.430  -9.863  0.00  0.00     0.197 C 
HETATM    7  O           1     -36.046  -0.332  -8.931  0.00  0.00    -0.646 OA
HETATM    8  O           1     -38.075  -0.149  -9.664  0.00  0.00    -0.646 OA
ENDBRANCH   5   6
BRANCH   5   9
HETATM    9  C           1     -34.905  -1.028 -11.241  0.00  0.00     0.074 C 
BRANCH   9  10
HETATM   10  C           1     -34.536  -2.478 -11.208  0.00  0.00    -0.056 A 
HETATM   11  C           1     -33.224  -2.869 -11.474  0.00  0.00     0.007 A 
HETATM   12  C           1     -32.879  -4.221 -11.444  0.00  0.00     0.001 A 
HETATM   13  C           1     -33.848  -5.181 -11.150  0.00  0.00     0.000 A 
HETATM   14  C           1     -35.160  -4.789 -10.886  0.00  0.00     0.001 A 
HETATM   15  C           1     -35.504  -3.438 -10.915  0.00  0.00     0.007 A 
ENDBRANCH   9  10
ENDBRANCH   5   9
ENDBRANCH   2   5
BRANCH   3  16
HETATM   16  C           1     -35.633  -0.070 -14.406  0.00  0.00     0.297 C 
BRANCH  16  17
HETATM   17  C           1     -36.010   0.701 -15.665  0.00  0.00     0.206 C 
BRANCH  17  18
HETATM   18  O           1     -36.442  -0.196 -16.652  0.00  0.00    -0.398 OA
HETATM   19  H           1     -37.358  -0.030 -16.792  0.00  0.00     0.209 HD
ENDBRANCH  17  18
ENDBRANCH  16  17
BRANCH  16  20
HETATM   20  N           1     -35.077  -1.409 -14.790  0.00  0.00    -0.064 N 
HETATM   21  H           1     -34.984  -2.005 -13.936  0.00  0.00     0.275 HD
HETATM   22  H           1     -35.722  -1.873 -15.469  0.00  0.00     0.275 HD
HETATM   23  H           1     -34.139  -1.283 -15.231  0.00  0.00     0.275 HD
ENDBRANCH  16  20
ENDBRANCH   3  16
TORSDOF 8
ENDMDL
MODEL 3
REMARK VINA RESULT:      -7.6     11.359     12.965
REMARK  8 active torsions:
REMARK  status: ('A' for Active; 'I' for Inactive)
REMARK    1  A    between atoms: N_4  and  C_23 
REMARK       I    between atoms: N_4  and  C_5 
REMARK    2  A    between atoms: C_5  and  C_6 
REMARK    3  A    between atoms: C_6  and  C_7 
REMARK    4  A    between atoms: C_6  and  N_9 
REMARK    5  A    between atoms: C_7  and  O_8 
REMARK    6  A    between atoms: C_11  and  C_20 
REMARK    7  A    between atoms: C_17  and  C_23 
REMARK    8  A    between atoms: C_20  and  C_23 
ROOT
HETATM    1  H           1     -24.104  -1.678 -10.930  0.00  0.00     0.163 HD
HETATM    2  N           1     -23.824  -2.518 -11.421  0.00  0.00    -0.344 N 
HETATM    3  C           1     -24.102  -2.655 -12.754  0.00  0.00     0.251 C 
HETATM    4  O           1     -25.141  -3.160 -13.106  0.00  0.00    -0.271 OA
ENDROOT
BRANCH   2   5
HETATM    5  C           1     -23.129  -3.575 -10.712  0.00  0.00     0.189 C 
BRANCH   5   6
HETATM    6  C           1     -23.806  -4.895 -10.988  0.00  0.00     0.197 C 
HETATM    7  O           1     -23.504  -5.550 -12.009  0.00  0.00    -0.646 OA
HETATM    8  O           1     -24.668  -5.333 -10.196  0.00  0.00    -0.646 OA
ENDBRANCH   5   6
BRANCH   5   9
HETATM    9  C           1     -23.162  -3.289  -9.217  0.00  0.00     0.074 C 
BRANCH   9  10
HETATM   10  C           1     -21.915  -3.818  -8.579  0.00  0.00    -0.056 A 
HETATM   11  C           1     -21.873  -4.028  -7.201  0.00  0.00     0.007 A 
HETATM   12  C           1     -20.711  -4.521  -6.606  0.00  0.00     0.001 A 
HETATM   13  C           1     -19.592  -4.802  -7.390  0.00  0.00     0.000 A 
HETATM   14  C           1     -19.635  -4.590  -8.768  0.00  0.00     0.001 A 
HETATM   15  C           1     -20.796  -4.098  -9.362  0.00  0.00     0.007 A 
ENDBRANCH   9  10
ENDBRANCH   5   9
ENDBRANCH   2   5
BRANCH   3  16
HETATM   16  C           1     -23.109  -2.175 -13.784  0.00  0.00     0.297 C 
BRANCH  16  17
HETATM   17  C           1     -23.850  -1.480 -14.919  0.00  0.00     0.206 C 
BRANCH  17  18
HETATM   18  O           1     -24.923  -0.744 -14.397  0.00  0.00    -0.398 OA
HETATM   19  H           1     -25.360  -1.300 -13.775  0.00  0.00     0.209 HD
ENDBRANCH  17  18
ENDBRANCH  16  17
BRANCH  16  20
HETATM   20  N           1     -22.349  -3.348 -14.330  0.00  0.00    -0.064 N 
HETATM   21  H           1     -21.364  -3.060 -14.532  0.00  0.00     0.275 HD
HETATM   22  H           1     -22.348  -4.121 -13.628  0.00  0.00     0.275 HD
HETATM   23  H           1     -22.803  -3.677 -15.211  0.00  0.00     0.275 HD
ENDBRANCH  16  20
ENDBRANCH   3  16
TORSDOF 8
ENDMDL
MODEL 4
REMARK VINA RESULT:      -7.3     11.983     13.661
REMARK  8 active torsions:
REMARK  status: ('A' for Active; 'I' for Inactive)
REMARK    1  A    between atoms: N_4  and  C_23 
REMARK       I    between atoms: N_4  and  C_5 
REMARK    2  A    between atoms: C_5  and  C_6 
REMARK    3  A    between atoms: C_6  and  C_7 
REMARK    4  A    between atoms: C_6  and  N_9 
REMARK    5  A    between atoms: C_7  and  O_8 
REMARK    6  A    between atoms: C_11  and  C_20 
REMARK    7  A    between atoms: C_17  and  C_23 
REMARK    8  A    between atoms: C_20  and  C_23 
ROOT
HETATM    1  H           1     -20.967  -4.686 -12.155  0.00  0.00     0.163 HD
HETATM    2  N           1     -21.742  -4.206 -11.714  0.00  0.00    -0.344 N 
HETATM    3  C           1     -22.275  -3.088 -12.298  0.00  0.00     0.251 C 
HETATM    4  O           1     -21.838  -1.997 -12.025  0.00  0.00    -0.271 OA
ENDROOT
BRANCH   2   5
HETATM    5  C           1     -22.285  -4.701 -10.465  0.00  0.00     0.189 C 
BRANCH   5   6
HETATM    6  C           1     -23.732  -5.082 -10.662  0.00  0.00     0.197 C 
HETATM    7  O           1     -24.029  -6.050 -11.395  0.00  0.00    -0.646 OA
HETATM    8  O           1     -24.633  -4.429 -10.092  0.00  0.00    -0.646 OA
ENDBRANCH   5   6
BRANCH   5   9
HETATM    9  C           1     -22.185  -3.615  -9.402  0.00  0.00     0.074 C 
BRANCH   9  10
HETATM   10  C           1     -21.360  -4.112  -8.256  0.00  0.00    -0.056 A 
HETATM   11  C           1     -19.968  -4.085  -8.337  0.00  0.00     0.007 A 
HETATM   12  C           1     -19.198  -4.549  -7.270  0.00  0.00     0.001 A 
HETATM   13  C           1     -19.821  -5.040  -6.122  0.00  0.00     0.000 A 
HETATM   14  C           1     -21.214  -5.067  -6.043  0.00  0.00     0.001 A 
HETATM   15  C           1     -21.982  -4.604  -7.110  0.00  0.00     0.007 A 
ENDBRANCH   9  10
ENDBRANCH   5   9
ENDBRANCH   2   5
BRANCH   3  16
HETATM   16  C           1     -23.411  -3.222 -13.283  0.00  0.00     0.297 C 
BRANCH  16  17
HETATM   17  C           1     -23.064  -2.473 -14.563  0.00  0.00     0.206 C 
BRANCH  17  18
HETATM   18  O           1     -22.225  -3.267 -15.358  0.00  0.00    -0.398 OA
HETATM   19  H           1     -22.708  -4.046 -15.574  0.00  0.00     0.209 HD
ENDBRANCH  17  18
ENDBRANCH  16  17
BRANCH  16  20
HETATM   20  N           1     -24.660  -2.642 -12.688  0.00  0.00    -0.064 N 
HETATM   21  H           1     -25.261  -2.256 -13.451  0.00  0.00     0.275 HD
HETATM   22  H           1     -25.182  -3.387 -12.176  0.00  0.00     0.275 HD
HETATM   23  H           1     -24.405  -1.876 -12.024  0.00  0.00     0.275 HD
ENDBRANCH  16  20
ENDBRANCH   3  16
TORSDOF 8
ENDMDL
MODEL 5
REMARK VINA RESULT:      -7.3      3.002      5.417
REMARK  8 active torsions:
REMARK  status: ('A' for Active; 'I' for Inactive)
REMARK    1  A    between atoms: N_4  and  C_23 
REMARK       I    between atoms: N_4  and  C_5 
REMARK    2  A    between atoms: C_5  and  C_6 
REMARK    3  A    between atoms: C_6  and  C_7 
REMARK    4  A    between atoms: C_6  and  N_9 
REMARK    5  A    between atoms: C_7  and  O_8 
REMARK    6  A    between atoms: C_11  and  C_20 
REMARK    7  A    between atoms: C_17  and  C_23 
REMARK    8  A    between atoms: C_20  and  C_23 
ROOT
HETATM    1  H           1     -36.151  -1.602  -9.263  0.00  0.00     0.163 HD
HETATM    2  N           1     -35.771  -1.262 -10.137  0.00  0.00    -0.344 N 
HETATM    3  C           1     -34.758  -1.946 -10.754  0.00  0.00     0.251 C 
HETATM    4  O           1     -33.608  -1.681 -10.501  0.00  0.00    -0.271 OA
ENDROOT
BRANCH   2   5
HETATM    5  C           1     -36.298  -0.051 -10.734  0.00  0.00     0.189 C 
BRANCH   5   6
HETATM    6  C           1     -36.951   0.793  -9.668  0.00  0.00     0.197 C 
HETATM    7  O           1     -38.075   1.300  -9.873  0.00  0.00    -0.646 OA
HETATM    8  O           1     -36.368   0.985  -8.579  0.00  0.00    -0.646 OA
ENDBRANCH   5   6
BRANCH   5   9
HETATM    9  C           1     -37.328  -0.416 -11.796  0.00  0.00     0.074 C 
BRANCH   9  10
HETATM   10  C           1     -36.830   0.010 -13.142  0.00  0.00    -0.056 A 
HETATM   11  C           1     -37.675  -0.057 -14.250  0.00  0.00     0.007 A 
HETATM   12  C           1     -37.212   0.339 -15.505  0.00  0.00     0.001 A 
HETATM   13  C           1     -35.904   0.802 -15.651  0.00  0.00     0.000 A 
HETATM   14  C           1     -35.060   0.868 -14.543  0.00  0.00     0.001 A 
HETATM   15  C           1     -35.523   0.472 -13.288  0.00  0.00     0.007 A 
ENDBRANCH   9  10
ENDBRANCH   5   9
ENDBRANCH   2   5
BRANCH   3  16
HETATM   16  C           1     -35.081  -3.030 -11.753  0.00  0.00     0.297 C 
BRANCH  16  17
HETATM   17  C           1     -35.059  -4.385 -11.058  0.00  0.00     0.206 C 
BRANCH  17  18
HETATM   18  O           1     -33.819  -4.569 -10.430  0.00  0.00    -0.398 OA
HETATM   19  H           1     -33.352  -3.755 -10.500  0.00  0.00     0.209 HD
ENDBRANCH  17  18
ENDBRANCH  16  17
BRANCH  16  20
HETATM   20  N           1     -34.060  -3.018 -12.852  0.00  0.00    -0.064 N 
HETATM   21  H           1     -33.371  -2.251 -12.679  0.00  0.00     0.275 HD
HETATM   22  H           1     -33.560  -3.935 -12.875  0.00  0.00     0.275 HD
HETATM   23  H           1     -34.536  -2.857 -13.768  0.00  0.00     0.275 HD
ENDBRANCH  16  20
ENDBRANCH   3  16
TORSDOF 8
ENDMDL
MODEL 6
REMARK VINA RESULT:      -6.7     15.269     17.480
REMARK  8 active torsions:
REMARK  status: ('A' for Active; 'I' for Inactive)
REMARK    1  A    between atoms: N_4  and  C_23 
REMARK       I    between atoms: N_4  and  C_5 
REMARK    2  A    between atoms: C_5  and  C_6 
REMARK    3  A    between atoms: C_6  and  C_7 
REMARK    4  A    between atoms: C_6  and  N_9 
REMARK    5  A    between atoms: C_7  and  O_8 
REMARK    6  A    between atoms: C_11  and  C_20 
REMARK    7  A    between atoms: C_17  and  C_23 
REMARK    8  A    between atoms: C_20  and  C_23 
ROOT
HETATM    1  H           1     -23.340  -6.131  -4.142  0.00  0.00     0.163 HD
HETATM    2  N           1     -22.356  -6.342  -4.252  0.00  0.00    -0.344 N 
HETATM    3  C           1     -21.568  -6.524  -3.147  0.00  0.00     0.251 C 
HETATM    4  O           1     -21.001  -5.583  -2.648  0.00  0.00    -0.271 OA
ENDROOT
BRANCH   2   5
HETATM    5  C           1     -21.781  -6.449  -5.578  0.00  0.00     0.189 C 
BRANCH   5   6
HETATM    6  C           1     -20.950  -7.705  -5.666  0.00  0.00     0.197 C 
HETATM    7  O           1     -19.702  -7.633  -5.630  0.00  0.00    -0.646 OA
HETATM    8  O           1     -21.509  -8.818  -5.776  0.00  0.00    -0.646 OA
ENDBRANCH   5   6
BRANCH   5   9
HETATM    9  C           1     -20.900  -5.236  -5.849  0.00  0.00     0.074 C 
BRANCH   9  10
HETATM   10  C           1     -21.082  -4.792  -7.266  0.00  0.00    -0.056 A 
HETATM   11  C           1     -22.287  -4.212  -7.665  0.00  0.00     0.007 A 
HETATM   12  C           1     -22.458  -3.799  -8.987  0.00  0.00     0.001 A 
HETATM   13  C           1     -21.424  -3.966  -9.909  0.00  0.00     0.000 A 
HETATM   14  C           1     -20.221  -4.547  -9.509  0.00  0.00     0.001 A 
HETATM   15  C           1     -20.050  -4.960  -8.188  0.00  0.00     0.007 A 
ENDBRANCH   9  10
ENDBRANCH   5   9
ENDBRANCH   2   5
BRANCH   3  16
HETATM   16  C           1     -21.409  -7.903  -2.554  0.00  0.00     0.297 C 
BRANCH  16  17
HETATM   17  C           1     -21.990  -7.921  -1.146  0.00  0.00     0.206 C 
BRANCH  17  18
HETATM   18  O           1     -22.750  -6.761  -0.938  0.00  0.00    -0.398 OA
HETATM   19  H           1     -23.632  -7.039  -0.764  0.00  0.00     0.209 HD
ENDBRANCH  17  18
ENDBRANCH  16  17
BRANCH  16  20
HETATM   20  N           1     -19.953  -8.258  -2.498  0.00  0.00    -0.064 N 
HETATM   21  H           1     -19.424  -7.671  -3.182  0.00  0.00     0.275 HD
HETATM   22  H           1     -19.588  -8.082  -1.534  0.00  0.00     0.275 HD
HETATM   23  H           1     -19.831  -9.267  -2.738  0.00  0.00     0.275 HD
ENDBRANCH  16  20
ENDBRANCH   3  16
TORSDOF 8
ENDMDL
MODEL 7
REMARK VINA RESULT:      -6.6     17.656     18.631
REMARK  8 active torsions:
REMARK  status: ('A' for Active; 'I' for Inactive)
REMARK    1  A    between atoms: N_4  and  C_23 
REMARK       I    between atoms: N_4  and  C_5 
REMARK    2  A    between atoms: C_5  and  C_6 
REMARK    3  A    between atoms: C_6  and  C_7 
REMARK    4  A    between atoms: C_6  and  N_9 
REMARK    5  A    between atoms: C_7  and  O_8 
REMARK    6  A    between atoms: C_11  and  C_20 
REMARK    7  A    between atoms: C_17  and  C_23 
REMARK    8  A    between atoms: C_20  and  C_23 
ROOT
HETATM    1  H           1     -19.377  -7.698  -3.572  0.00  0.00     0.163 HD
HETATM    2  N           1     -20.273  -8.047  -3.887  0.00  0.00    -0.344 N 
HETATM    3  C           1     -20.377  -8.666  -5.103  0.00  0.00     0.251 C 
HETATM    4  O           1     -20.623  -8.018  -6.092  0.00  0.00    -0.271 OA
ENDROOT
BRANCH   2   5
HETATM    5  C           1     -21.446  -7.892  -3.050  0.00  0.00     0.189 C 
BRANCH   5   6
HETATM    6  C           1     -21.780  -6.426  -2.920  0.00  0.00     0.197 C 
HETATM    7  O           1     -21.331  -5.607  -3.750  0.00  0.00    -0.646 OA
HETATM    8  O           1     -22.506  -6.032  -1.981  0.00  0.00    -0.646 OA
ENDBRANCH   5   6
BRANCH   5   9
HETATM    9  C           1     -21.165  -8.474  -1.670  0.00  0.00     0.074 C 
BRANCH   9  10
HETATM   10  C           1     -22.176  -9.534  -1.361  0.00  0.00    -0.056 A 
HETATM   11  C           1     -22.343 -10.612  -2.229  0.00  0.00     0.007 A 
HETATM   12  C           1     -23.285 -11.601  -1.942  0.00  0.00     0.001 A 
HETATM   13  C           1     -24.060 -11.509  -0.785  0.00  0.00     0.000 A 
HETATM   14  C           1     -23.893 -10.430   0.082  0.00  0.00     0.001 A 
HETATM   15  C           1     -22.951  -9.443  -0.206  0.00  0.00     0.007 A 
ENDBRANCH   9  10
ENDBRANCH   5   9
ENDBRANCH   2   5
BRANCH   3  16
HETATM   16  C           1     -20.183 -10.159  -5.208  0.00  0.00     0.297 C 
BRANCH  16  17
HETATM   17  C           1     -18.749 -10.459  -5.625  0.00  0.00     0.206 C 
BRANCH  17  18
HETATM   18  O           1     -18.157  -9.294  -6.135  0.00  0.00    -0.398 OA
HETATM   19  H           1     -18.106  -8.679  -5.425  0.00  0.00     0.209 HD
ENDBRANCH  17  18
ENDBRANCH  16  17
BRANCH  16  20
HETATM   20  N           1     -21.126 -10.715  -6.234  0.00  0.00    -0.064 N 
HETATM   21  H           1     -20.743 -11.611  -6.610  0.00  0.00     0.275 HD
HETATM   22  H           1     -22.057 -10.893  -5.793  0.00  0.00     0.275 HD
HETATM   23  H           1     -21.236 -10.028  -7.014  0.00  0.00     0.275 HD
ENDBRANCH  16  20
ENDBRANCH   3  16
TORSDOF 8
ENDMDL
MODEL 8
REMARK VINA RESULT:      -6.4     17.232     19.542
REMARK  8 active torsions:
REMARK  status: ('A' for Active; 'I' for Inactive)
REMARK    1  A    between atoms: N_4  and  C_23 
REMARK       I    between atoms: N_4  and  C_5 
REMARK    2  A    between atoms: C_5  and  C_6 
REMARK    3  A    between atoms: C_6  and  C_7 
REMARK    4  A    between atoms: C_6  and  N_9 
REMARK    5  A    between atoms: C_7  and  O_8 
REMARK    6  A    between atoms: C_11  and  C_20 
REMARK    7  A    between atoms: C_17  and  C_23 
REMARK    8  A    between atoms: C_20  and  C_23 
ROOT
HETATM    1  H           1     -19.085  -7.705  -4.839  0.00  0.00     0.163 HD
HETATM    2  N           1     -19.663  -8.375  -4.349  0.00  0.00    -0.344 N 
HETATM    3  C           1     -19.166  -9.614  -4.046  0.00  0.00     0.251 C 
HETATM    4  O           1     -19.299 -10.526  -4.826  0.00  0.00    -0.271 OA
ENDROOT
BRANCH   2   5
HETATM    5  C           1     -21.017  -8.023  -3.967  0.00  0.00     0.189 C 
BRANCH   5   6
HETATM    6  C           1     -21.643  -7.184  -5.053  0.00  0.00     0.197 C 
HETATM    7  O           1     -22.487  -6.310  -4.759  0.00  0.00    -0.646 OA
HETATM    8  O           1     -21.317  -7.362  -6.247  0.00  0.00    -0.646 OA
ENDBRANCH   5   6
BRANCH   5   9
HETATM    9  C           1     -20.987  -7.233  -2.666  0.00  0.00     0.074 C 
BRANCH   9  10
HETATM   10  C           1     -21.792  -7.950  -1.627  0.00  0.00    -0.056 A 
HETATM   11  C           1     -22.371  -7.236  -0.578  0.00  0.00     0.007 A 
HETATM   12  C           1     -23.121  -7.904   0.390  0.00  0.00     0.001 A 
HETATM   13  C           1     -23.291  -9.286   0.309  0.00  0.00     0.000 A 
HETATM   14  C           1     -22.711 -10.000  -0.739  0.00  0.00     0.001 A 
HETATM   15  C           1     -21.962  -9.332  -1.707  0.00  0.00     0.007 A 
ENDBRANCH   9  10
ENDBRANCH   5   9
ENDBRANCH   2   5
BRANCH   3  16
HETATM   16  C           1     -18.452  -9.840  -2.736  0.00  0.00     0.297 C 
BRANCH  16  17
HETATM   17  C           1     -16.984  -9.460  -2.884  0.00  0.00     0.206 C 
BRANCH  17  18
HETATM   18  O           1     -16.581  -9.661  -4.212  0.00  0.00    -0.398 OA
HETATM   19  H           1     -16.988 -10.457  -4.505  0.00  0.00     0.209 HD
ENDBRANCH  17  18
ENDBRANCH  16  17
BRANCH  16  20
HETATM   20  N           1     -18.555 -11.287  -2.353  0.00  0.00    -0.064 N 
HETATM   21  H           1     -18.852 -11.362  -1.354  0.00  0.00     0.275 HD
HETATM   22  H           1     -19.260 -11.760  -2.962  0.00  0.00     0.275 HD
HETATM   23  H           1     -17.625 -11.747  -2.476  0.00  0.00     0.275 HD
ENDBRANCH  16  20
ENDBRANCH   3  16
TORSDOF 8
ENDMDL
MODEL 9
REMARK VINA RESULT:      -6.4      2.475      5.316
REMARK  8 active torsions:
REMARK  status: ('A' for Active; 'I' for Inactive)
REMARK    1  A    between atoms: N_4  and  C_23 
REMARK       I    between atoms: N_4  and  C_5 
REMARK    2  A    between atoms: C_5  and  C_6 
REMARK    3  A    between atoms: C_6  and  C_7 
REMARK    4  A    between atoms: C_6  and  N_9 
REMARK    5  A    between atoms: C_7  and  O_8 
REMARK    6  A    between atoms: C_11  and  C_20 
REMARK    7  A    between atoms: C_17  and  C_23 
REMARK    8  A    between atoms: C_20  and  C_23 
ROOT
HETATM    1  H           1     -36.125  -1.985 -13.219  0.00  0.00     0.163 HD
HETATM    2  N           1     -35.765  -1.844 -12.284  0.00  0.00    -0.344 N 
HETATM    3  C           1     -35.305  -2.911 -11.560  0.00  0.00     0.251 C 
HETATM    4  O           1     -36.060  -3.530 -10.850  0.00  0.00    -0.271 OA
ENDROOT
BRANCH   2   5
HETATM    5  C           1     -35.737  -0.513 -11.710  0.00  0.00     0.189 C 
BRANCH   5   6
HETATM    6  C           1     -37.083  -0.198 -11.105  0.00  0.00     0.197 C 
HETATM    7  O           1     -37.235   0.841 -10.426  0.00  0.00    -0.646 OA
HETATM    8  O           1     -38.046  -0.975 -11.283  0.00  0.00    -0.646 OA
ENDBRANCH   5   6
BRANCH   5   9
HETATM    9  C           1     -35.419   0.502 -12.801  0.00  0.00     0.074 C 
BRANCH   9  10
HETATM   10  C           1     -36.013   0.045 -14.097  0.00  0.00    -0.056 A 
HETATM   11  C           1     -35.193  -0.505 -15.083  0.00  0.00     0.007 A 
HETATM   12  C           1     -35.745  -0.930 -16.291  0.00  0.00     0.001 A 
HETATM   13  C           1     -37.117  -0.805 -16.513  0.00  0.00     0.000 A 
HETATM   14  C           1     -37.936  -0.254 -15.527  0.00  0.00     0.001 A 
HETATM   15  C           1     -37.383   0.170 -14.319  0.00  0.00     0.007 A 
ENDBRANCH   9  10
ENDBRANCH   5   9
ENDBRANCH   2   5
BRANCH   3  16
HETATM   16  C           1     -33.854  -3.314 -11.651  0.00  0.00     0.297 C 
BRANCH  16  17
HETATM   17  C           1     -33.588  -3.957 -13.006  0.00  0.00     0.206 C 
BRANCH  17  18
HETATM   18  O           1     -34.707  -4.706 -13.396  0.00  0.00    -0.398 OA
HETATM   19  H           1     -34.626  -4.860 -14.321  0.00  0.00     0.209 HD
ENDBRANCH  17  18
ENDBRANCH  16  17
BRANCH  16  20
HETATM   20  N           1     -33.538  -4.296 -10.562  0.00  0.00    -0.064 N 
HETATM   21  H           1     -32.502  -4.396 -10.474  0.00  0.00     0.275 HD
HETATM   22  H           1     -33.932  -3.953  -9.657  0.00  0.00     0.275 HD
HETATM   23  H           1     -33.959  -5.223 -10.797  0.00  0.00     0.275 HD
ENDBRANCH  16  20
ENDBRANCH   3  16
TORSDOF 8
ENDMDL
