MODEL 1
REMARK VINA RESULT:      -6.7      0.000      0.000
REMARK  9 active torsions:
REMARK  status: ('A' for Active; 'I' for Inactive)
REMARK    1  A    between atoms: C_2  and  C_8 
REMARK    2  A    between atoms: C_2  and  C_25 
REMARK    3  A    between atoms: C_8  and  C_19 
REMARK    4  A    between atoms: C_8  and  N_22 
REMARK    5  A    between atoms: C_10  and  C_11 
REMARK    6  A    between atoms: C_11  and  C_12 
REMARK    7  A    between atoms: C_12  and  C_14 
REMARK    8  A    between atoms: C_12  and  N_18 
REMARK       I    between atoms: N_18  and  C_19 
REMARK    9  A    between atoms: C_25  and  C_26 
ROOT
HETATM    1  N           1     -22.905  -4.150  -7.907  0.00  0.00    -0.344 N 
HETATM    2  C           1     -21.636  -4.056  -7.402  0.00  0.00     0.249 C 
HETATM    3  H           1     -23.649  -4.531  -7.337  0.00  0.00     0.163 HD
HETATM    4  O           1     -21.290  -3.056  -6.819  0.00  0.00    -0.271 OA
ENDROOT
BRANCH   1   5
HETATM    5  C           1     -23.183  -3.703  -9.259  0.00  0.00     0.191 C 
BRANCH   5   6
HETATM    6  C           1     -22.485  -4.625 -10.250  0.00  0.00     0.094 C 
BRANCH   6   7
HETATM    7  C           1     -22.691  -4.111 -11.641  0.00  0.00     0.028 A 
HETATM    8  C           1     -21.860  -3.218 -12.275  0.00  0.00     0.114 A 
HETATM    9  N           1     -22.419  -3.029 -13.509  0.00  0.00    -0.360 N 
HETATM   10  H           1     -22.049  -2.406 -14.269  0.00  0.00     0.166 HD
HETATM   11  C           1     -23.544  -3.801 -13.572  0.00  0.00     0.180 A 
HETATM   12  N           1     -23.734  -4.467 -12.457  0.00  0.00    -0.354 N 
ATOM     13  HN          1     -24.495  -5.111 -12.244  1.00  0.00     0.166 HD
ENDBRANCH   6   7
ENDBRANCH   5   6
BRANCH   5  14
HETATM   14  C           1     -24.671  -3.736  -9.502  0.00  0.00     0.197 C 
HETATM   15  O           1     -25.247  -4.827  -9.708  0.00  0.00    -0.646 OA
HETATM   16  O           1     -25.329  -2.674  -9.499  0.00  0.00    -0.646 OA
ENDBRANCH   5  14
ENDBRANCH   1   5
BRANCH   2  17
HETATM   17  C           1     -20.668  -5.201  -7.575  0.00  0.00     0.275 C 
BRANCH  17  18
HETATM   18  C           1     -20.258  -5.731  -6.208  0.00  0.00     0.053 C 
BRANCH  18  19
HETATM   19  C           1     -21.192  -6.863  -5.801  0.00  0.00     0.115 C 
BRANCH  19  20
HETATM   20  C           1     -22.230  -6.338  -4.839  0.00  0.00     0.172 C 
HETATM   21  O           1     -21.951  -6.205  -3.628  0.00  0.00    -0.648 OA
HETATM   22  O           1     -23.371  -6.038  -5.254  0.00  0.00    -0.648 OA
ENDBRANCH  19  20
ENDBRANCH  18  19
ENDBRANCH  17  18
BRANCH  17  23
HETATM   23  N           1     -19.452  -4.720  -8.310  0.00  0.00    -0.066 N 
HETATM   24  H           1     -18.594  -4.992  -7.778  0.00  0.00     0.275 HD
HETATM   25  H           1     -19.425  -5.154  -9.260  0.00  0.00     0.275 HD
HETATM   26  H           1     -19.490  -3.680  -8.403  0.00  0.00     0.275 HD
ENDBRANCH  17  23
ENDBRANCH   2  17
TORSDOF 9
ENDMDL
MODEL 2
REMARK VINA RESULT:      -6.6      8.946     11.779
REMARK  9 active torsions:
REMARK  status: ('A' for Active; 'I' for Inactive)
REMARK    1  A    between atoms: C_2  and  C_8 
REMARK    2  A    between atoms: C_2  and  C_25 
REMARK    3  A    between atoms: C_8  and  C_19 
REMARK    4  A    between atoms: C_8  and  N_22 
REMARK    5  A    between atoms: C_10  and  C_11 
REMARK    6  A    between atoms: C_11  and  C_12 
REMARK    7  A    between atoms: C_12  and  C_14 
REMARK    8  A    between atoms: C_12  and  N_18 
REMARK       I    between atoms: N_18  and  C_19 
REMARK    9  A    between atoms: C_25  and  C_26 
ROOT
HETATM    1  N           1     -27.862  -6.713 -16.436  0.00  0.00    -0.344 N 
HETATM    2  C           1     -28.950  -7.454 -16.813  0.00  0.00     0.249 C 
HETATM    3  H           1     -27.966  -5.977 -15.748  0.00  0.00     0.163 HD
HETATM    4  O           1     -29.226  -8.468 -16.216  0.00  0.00    -0.271 OA
ENDROOT
BRANCH   1   5
HETATM    5  C           1     -26.563  -6.981 -17.021  0.00  0.00     0.191 C 
BRANCH   5   6
HETATM    6  C           1     -26.374  -6.109 -18.255  0.00  0.00     0.094 C 
BRANCH   6   7
HETATM    7  C           1     -25.643  -6.884 -19.307  0.00  0.00     0.028 A 
HETATM    8  C           1     -24.298  -7.170 -19.274  0.00  0.00     0.114 A 
HETATM    9  N           1     -24.060  -7.885 -20.415  0.00  0.00    -0.360 N 
HETATM   10  H           1     -23.134  -8.273 -20.722  0.00  0.00     0.166 HD
HETATM   11  C           1     -25.247  -8.003 -21.080  0.00  0.00     0.180 A 
HETATM   12  N           1     -26.222  -7.408 -20.434  0.00  0.00    -0.354 N 
ATOM     13  HN          1     -27.202  -7.349 -20.712  1.00  0.00     0.166 HD
ENDBRANCH   6   7
ENDBRANCH   5   6
BRANCH   5  14
HETATM   14  C           1     -25.485  -6.667 -16.013  0.00  0.00     0.197 C 
HETATM   15  O           1     -25.171  -5.478 -15.782  0.00  0.00    -0.646 OA
HETATM   16  O           1     -24.904  -7.594 -15.409  0.00  0.00    -0.646 OA
ENDBRANCH   5  14
ENDBRANCH   1   5
BRANCH   2  17
HETATM   17  C           1     -29.801  -7.008 -17.976  0.00  0.00     0.275 C 
BRANCH  17  18
HETATM   18  C           1     -31.135  -6.487 -17.459  0.00  0.00     0.053 C 
BRANCH  18  19
HETATM   19  C           1     -30.895  -5.295 -16.542  0.00  0.00     0.115 C 
BRANCH  19  20
HETATM   20  C           1     -31.828  -4.172 -16.920  0.00  0.00     0.172 C 
HETATM   21  O           1     -33.016  -4.187 -16.532  0.00  0.00    -0.648 OA
HETATM   22  O           1     -31.414  -3.225 -17.625  0.00  0.00    -0.648 OA
ENDBRANCH  19  20
ENDBRANCH  18  19
ENDBRANCH  17  18
BRANCH  17  23
HETATM   23  N           1     -30.040  -8.169 -18.895  0.00  0.00    -0.066 N 
HETATM   24  H           1     -29.956  -9.062 -18.358  0.00  0.00     0.275 HD
HETATM   25  H           1     -31.000  -8.098 -19.304  0.00  0.00     0.275 HD
HETATM   26  H           1     -29.333  -8.156 -19.664  0.00  0.00     0.275 HD
ENDBRANCH  17  23
ENDBRANCH   2  17
TORSDOF 9
ENDMDL
MODEL 3
REMARK VINA RESULT:      -6.5      1.927      2.716
REMARK  9 active torsions:
REMARK  status: ('A' for Active; 'I' for Inactive)
REMARK    1  A    between atoms: C_2  and  C_8 
REMARK    2  A    between atoms: C_2  and  C_25 
REMARK    3  A    between atoms: C_8  and  C_19 
REMARK    4  A    between atoms: C_8  and  N_22 
REMARK    5  A    between atoms: C_10  and  C_11 
REMARK    6  A    between atoms: C_11  and  C_12 
REMARK    7  A    between atoms: C_12  and  C_14 
REMARK    8  A    between atoms: C_12  and  N_18 
REMARK       I    between atoms: N_18  and  C_19 
REMARK    9  A    between atoms: C_25  and  C_26 
ROOT
HETATM    1  N           1     -22.180  -3.133 -10.695  0.00  0.00    -0.344 N 
HETATM    2  C           1     -21.919  -4.003  -9.670  0.00  0.00     0.249 C 
HETATM    3  H           1     -21.427  -2.602 -11.112  0.00  0.00     0.163 HD
HETATM    4  O           1     -21.648  -5.156  -9.912  0.00  0.00    -0.271 OA
ENDROOT
BRANCH   1   5
HETATM    5  C           1     -23.537  -2.971 -11.181  0.00  0.00     0.191 C 
BRANCH   5   6
HETATM    6  C           1     -23.694  -3.717 -12.499  0.00  0.00     0.094 C 
BRANCH   6   7
HETATM    7  C           1     -23.574  -2.752 -13.637  0.00  0.00     0.028 A 
HETATM    8  C           1     -22.696  -2.886 -14.686  0.00  0.00     0.114 A 
HETATM    9  N           1     -22.923  -1.796 -15.480  0.00  0.00    -0.360 N 
HETATM   10  H           1     -22.429  -1.568 -16.378  0.00  0.00     0.166 HD
HETATM   11  C           1     -23.912  -1.060 -14.892  0.00  0.00     0.180 A 
HETATM   12  N           1     -24.326  -1.613 -13.777  0.00  0.00    -0.354 N 
ATOM     13  HN          1     -25.052  -1.270 -13.148  1.00  0.00     0.166 HD
ENDBRANCH   6   7
ENDBRANCH   5   6
BRANCH   5  14
HETATM   14  C           1     -24.503  -3.532 -10.167  0.00  0.00     0.197 C 
HETATM   15  O           1     -25.088  -2.766  -9.370  0.00  0.00    -0.646 OA
HETATM   16  O           1     -24.717  -4.763 -10.121  0.00  0.00    -0.646 OA
ENDBRANCH   5  14
ENDBRANCH   1   5
BRANCH   2  17
HETATM   17  C           1     -21.972  -3.525  -8.241  0.00  0.00     0.275 C 
BRANCH  17  18
HETATM   18  C           1     -20.631  -3.786  -7.567  0.00  0.00     0.053 C 
BRANCH  18  19
HETATM   19  C           1     -20.854  -4.560  -6.274  0.00  0.00     0.115 C 
BRANCH  19  20
HETATM   20  C           1     -20.637  -6.032  -6.524  0.00  0.00     0.172 C 
HETATM   21  O           1     -19.635  -6.417  -7.164  0.00  0.00    -0.648 OA
HETATM   22  O           1     -21.461  -6.867  -6.092  0.00  0.00    -0.648 OA
ENDBRANCH  19  20
ENDBRANCH  18  19
ENDBRANCH  17  18
BRANCH  17  23
HETATM   23  N           1     -23.052  -4.262  -7.506  0.00  0.00    -0.066 N 
HETATM   24  H           1     -23.664  -4.758  -8.194  0.00  0.00     0.275 HD
HETATM   25  H           1     -22.620  -4.960  -6.859  0.00  0.00     0.275 HD
HETATM   26  H           1     -23.624  -3.584  -6.955  0.00  0.00     0.275 HD
ENDBRANCH  17  23
ENDBRANCH   2  17
TORSDOF 9
ENDMDL
MODEL 4
REMARK VINA RESULT:      -6.4      2.420      6.734
REMARK  9 active torsions:
REMARK  status: ('A' for Active; 'I' for Inactive)
REMARK    1  A    between atoms: C_2  and  C_8 
REMARK    2  A    between atoms: C_2  and  C_25 
REMARK    3  A    between atoms: C_8  and  C_19 
REMARK    4  A    between atoms: C_8  and  N_22 
REMARK    5  A    between atoms: C_10  and  C_11 
REMARK    6  A    between atoms: C_11  and  C_12 
REMARK    7  A    between atoms: C_12  and  C_14 
REMARK    8  A    between atoms: C_12  and  N_18 
REMARK       I    between atoms: N_18  and  C_19 
REMARK    9  A    between atoms: C_25  and  C_26 
ROOT
HETATM    1  N           1     -21.838  -3.677  -7.400  0.00  0.00    -0.344 N 
HETATM    2  C           1     -23.057  -4.197  -7.745  0.00  0.00     0.249 C 
HETATM    3  H           1     -21.704  -2.675  -7.378  0.00  0.00     0.163 HD
HETATM    4  O           1     -23.886  -4.410  -6.892  0.00  0.00    -0.271 OA
ENDROOT
BRANCH   1   5
HETATM    5  C           1     -20.740  -4.564  -7.067  0.00  0.00     0.191 C 
BRANCH   5   6
HETATM    6  C           1     -21.238  -6.003  -7.053  0.00  0.00     0.094 C 
BRANCH   6   7
HETATM    7  C           1     -21.250  -6.514  -5.646  0.00  0.00     0.028 A 
HETATM    8  C           1     -20.422  -7.501  -5.166  0.00  0.00     0.114 A 
HETATM    9  N           1     -20.770  -7.648  -3.853  0.00  0.00    -0.360 N 
HETATM   10  H           1     -20.341  -8.320  -3.168  0.00  0.00     0.166 HD
HETATM   11  C           1     -21.776  -6.761  -3.593  0.00  0.00     0.180 A 
HETATM   12  N           1     -22.087  -6.061  -4.659  0.00  0.00    -0.354 N 
ATOM     13  HN          1     -22.799  -5.335  -4.735  1.00  0.00     0.166 HD
ENDBRANCH   6   7
ENDBRANCH   5   6
BRANCH   5  14
HETATM   14  C           1     -19.648  -4.419  -8.099  0.00  0.00     0.197 C 
HETATM   15  O           1     -18.513  -4.023  -7.756  0.00  0.00    -0.646 OA
HETATM   16  O           1     -19.879  -4.694  -9.296  0.00  0.00    -0.646 OA
ENDBRANCH   5  14
ENDBRANCH   1   5
BRANCH   2  17
HETATM   17  C           1     -23.366  -4.505  -9.189  0.00  0.00     0.275 C 
BRANCH  17  18
HETATM   18  C           1     -22.812  -3.398 -10.075  0.00  0.00     0.053 C 
BRANCH  18  19
HETATM   19  C           1     -22.786  -3.870 -11.523  0.00  0.00     0.115 C 
BRANCH  19  20
HETATM   20  C           1     -23.776  -3.070 -12.333  0.00  0.00     0.172 C 
HETATM   21  O           1     -24.971  -3.005 -11.973  0.00  0.00    -0.648 OA
HETATM   22  O           1     -23.401  -2.472 -13.365  0.00  0.00    -0.648 OA
ENDBRANCH  19  20
ENDBRANCH  18  19
ENDBRANCH  17  18
BRANCH  17  23
HETATM   23  N           1     -24.851  -4.596  -9.374  0.00  0.00    -0.066 N 
HETATM   24  H           1     -25.064  -5.220 -10.186  0.00  0.00     0.275 HD
HETATM   25  H           1     -25.287  -4.991  -8.510  0.00  0.00     0.275 HD
HETATM   26  H           1     -25.239  -3.643  -9.556  0.00  0.00     0.275 HD
ENDBRANCH  17  23
ENDBRANCH   2  17
TORSDOF 9
ENDMDL
MODEL 5
REMARK VINA RESULT:      -6.3      2.479      3.396
REMARK  9 active torsions:
REMARK  status: ('A' for Active; 'I' for Inactive)
REMARK    1  A    between atoms: C_2  and  C_8 
REMARK    2  A    between atoms: C_2  and  C_25 
REMARK    3  A    between atoms: C_8  and  C_19 
REMARK    4  A    between atoms: C_8  and  N_22 
REMARK    5  A    between atoms: C_10  and  C_11 
REMARK    6  A    between atoms: C_11  and  C_12 
REMARK    7  A    between atoms: C_12  and  C_14 
REMARK    8  A    between atoms: C_12  and  N_18 
REMARK       I    between atoms: N_18  and  C_19 
REMARK    9  A    between atoms: C_25  and  C_26 
ROOT
HETATM    1  N           1     -22.155  -4.674  -6.412  0.00  0.00    -0.344 N 
HETATM    2  C           1     -21.343  -5.342  -5.535  0.00  0.00     0.249 C 
HETATM    3  H           1     -22.887  -4.069  -6.063  0.00  0.00     0.163 HD
HETATM    4  O           1     -20.317  -4.830  -5.152  0.00  0.00    -0.271 OA
ENDROOT
BRANCH   1   5
HETATM    5  C           1     -21.967  -4.835  -7.841  0.00  0.00     0.191 C 
BRANCH   5   6
HETATM    6  C           1     -22.610  -3.663  -8.571  0.00  0.00     0.094 C 
BRANCH   6   7
HETATM    7  C           1     -22.586  -3.919 -10.046  0.00  0.00     0.028 A 
HETATM    8  C           1     -23.412  -4.802 -10.699  0.00  0.00     0.114 A 
HETATM    9  N           1     -23.051  -4.719 -12.015  0.00  0.00    -0.360 N 
HETATM   10  H           1     -23.475  -5.258 -12.810  0.00  0.00     0.166 HD
HETATM   11  C           1     -22.040  -3.806 -12.106  0.00  0.00     0.180 A 
HETATM   12  N           1     -21.737  -3.305 -10.931  0.00  0.00    -0.354 N 
ATOM     13  HN          1     -21.023  -2.607 -10.721  1.00  0.00     0.166 HD
ENDBRANCH   6   7
ENDBRANCH   5   6
BRANCH   5  14
HETATM   14  C           1     -20.491  -4.872  -8.151  0.00  0.00     0.197 C 
HETATM   15  O           1     -19.902  -5.970  -8.259  0.00  0.00    -0.646 OA
HETATM   16  O           1     -19.855  -3.806  -8.297  0.00  0.00    -0.646 OA
ENDBRANCH   5  14
ENDBRANCH   1   5
BRANCH   2  17
HETATM   17  C           1     -21.727  -6.718  -5.048  0.00  0.00     0.275 C 
BRANCH  17  18
HETATM   18  C           1     -21.146  -6.946  -3.660  0.00  0.00     0.053 C 
BRANCH  18  19
HETATM   19  C           1     -22.064  -6.322  -2.616  0.00  0.00     0.115 C 
BRANCH  19  20
HETATM   20  C           1     -21.973  -7.107  -1.331  0.00  0.00     0.172 C 
HETATM   21  O           1     -20.976  -7.828  -1.107  0.00  0.00    -0.648 OA
HETATM   22  O           1     -22.895  -7.038  -0.490  0.00  0.00    -0.648 OA
ENDBRANCH  19  20
ENDBRANCH  18  19
ENDBRANCH  17  18
BRANCH  17  23
HETATM   23  N           1     -21.186  -7.750  -5.992  0.00  0.00    -0.066 N 
HETATM   24  H           1     -20.435  -8.300  -5.515  0.00  0.00     0.275 HD
HETATM   25  H           1     -21.957  -8.394  -6.283  0.00  0.00     0.275 HD
HETATM   26  H           1     -20.790  -7.278  -6.836  0.00  0.00     0.275 HD
ENDBRANCH  17  23
ENDBRANCH   2  17
TORSDOF 9
ENDMDL
MODEL 6
REMARK VINA RESULT:      -6.3      2.246      3.105
REMARK  9 active torsions:
REMARK  status: ('A' for Active; 'I' for Inactive)
REMARK    1  A    between atoms: C_2  and  C_8 
REMARK    2  A    between atoms: C_2  and  C_25 
REMARK    3  A    between atoms: C_8  and  C_19 
REMARK    4  A    between atoms: C_8  and  N_22 
REMARK    5  A    between atoms: C_10  and  C_11 
REMARK    6  A    between atoms: C_11  and  C_12 
REMARK    7  A    between atoms: C_12  and  C_14 
REMARK    8  A    between atoms: C_12  and  N_18 
REMARK       I    between atoms: N_18  and  C_19 
REMARK    9  A    between atoms: C_25  and  C_26 
ROOT
HETATM    1  N           1     -22.934  -4.936 -10.201  0.00  0.00    -0.344 N 
HETATM    2  C           1     -23.124  -4.268  -9.021  0.00  0.00     0.249 C 
HETATM    3  H           1     -23.207  -5.907 -10.282  0.00  0.00     0.163 HD
HETATM    4  O           1     -24.159  -3.677  -8.821  0.00  0.00    -0.271 OA
ENDROOT
BRANCH   1   5
HETATM    5  C           1     -22.340  -4.253 -11.334  0.00  0.00     0.191 C 
BRANCH   5   6
HETATM    6  C           1     -23.076  -2.941 -11.576  0.00  0.00     0.094 C 
BRANCH   6   7
HETATM    7  C           1     -23.112  -2.652 -13.044  0.00  0.00     0.028 A 
HETATM    8  C           1     -23.986  -1.779 -13.648  0.00  0.00     0.114 A 
HETATM    9  N           1     -23.669  -1.823 -14.977  0.00  0.00    -0.360 N 
HETATM   10  H           1     -24.135  -1.279 -15.745  0.00  0.00     0.166 HD
HETATM   11  C           1     -22.635  -2.703 -15.123  0.00  0.00     0.180 A 
HETATM   12  N           1     -22.276  -3.220 -13.972  0.00  0.00    -0.354 N 
ATOM     13  HN          1     -21.534  -3.899 -13.802  1.00  0.00     0.166 HD
ENDBRANCH   6   7
ENDBRANCH   5   6
BRANCH   5  14
HETATM   14  C           1     -20.887  -3.968 -11.043  0.00  0.00     0.197 C 
HETATM   15  O           1     -20.443  -2.804 -11.156  0.00  0.00    -0.646 OA
HETATM   16  O           1     -20.127  -4.895 -10.689  0.00  0.00    -0.646 OA
ENDBRANCH   5  14
ENDBRANCH   1   5
BRANCH   2  17
HETATM   17  C           1     -22.041  -4.268  -7.971  0.00  0.00     0.275 C 
BRANCH  17  18
HETATM   18  C           1     -22.511  -5.053  -6.754  0.00  0.00     0.053 C 
BRANCH  18  19
HETATM   19  C           1     -21.317  -5.377  -5.866  0.00  0.00     0.115 C 
BRANCH  19  20
HETATM   20  C           1     -20.680  -6.665  -6.327  0.00  0.00     0.172 C 
HETATM   21  O           1     -21.234  -7.759  -6.085  0.00  0.00    -0.648 OA
HETATM   22  O           1     -19.597  -6.638  -6.951  0.00  0.00    -0.648 OA
ENDBRANCH  19  20
ENDBRANCH  18  19
ENDBRANCH  17  18
BRANCH  17  23
HETATM   23  N           1     -21.737  -2.855  -7.566  0.00  0.00    -0.066 N 
HETATM   24  H           1     -20.755  -2.797  -7.213  0.00  0.00     0.275 HD
HETATM   25  H           1     -21.848  -2.225  -8.392  0.00  0.00     0.275 HD
HETATM   26  H           1     -22.397  -2.560  -6.812  0.00  0.00     0.275 HD
ENDBRANCH  17  23
ENDBRANCH   2  17
TORSDOF 9
ENDMDL
MODEL 7
REMARK VINA RESULT:      -6.2      2.766      7.051
REMARK  9 active torsions:
REMARK  status: ('A' for Active; 'I' for Inactive)
REMARK    1  A    between atoms: C_2  and  C_8 
REMARK    2  A    between atoms: C_2  and  C_25 
REMARK    3  A    between atoms: C_8  and  C_19 
REMARK    4  A    between atoms: C_8  and  N_22 
REMARK    5  A    between atoms: C_10  and  C_11 
REMARK    6  A    between atoms: C_11  and  C_12 
REMARK    7  A    between atoms: C_12  and  C_14 
REMARK    8  A    between atoms: C_12  and  N_18 
REMARK       I    between atoms: N_18  and  C_19 
REMARK    9  A    between atoms: C_25  and  C_26 
ROOT
HETATM    1  N           1     -20.739  -5.951  -7.260  0.00  0.00    -0.344 N 
HETATM    2  C           1     -21.428  -4.787  -7.478  0.00  0.00     0.249 C 
HETATM    3  H           1     -19.928  -6.171  -7.822  0.00  0.00     0.163 HD
HETATM    4  O           1     -21.119  -3.782  -6.881  0.00  0.00    -0.271 OA
ENDROOT
BRANCH   1   5
HETATM    5  C           1     -21.175  -6.867  -6.223  0.00  0.00     0.191 C 
BRANCH   5   6
HETATM    6  C           1     -19.960  -7.552  -5.611  0.00  0.00     0.094 C 
BRANCH   6   7
HETATM    7  C           1     -20.376  -8.855  -5.002  0.00  0.00     0.028 A 
HETATM    8  C           1     -20.251  -9.170  -3.670  0.00  0.00     0.114 A 
HETATM    9  N           1     -20.747 -10.439  -3.558  0.00  0.00    -0.360 N 
HETATM   10  H           1     -20.811 -11.005  -2.676  0.00  0.00     0.166 HD
HETATM   11  C           1     -21.146 -10.835  -4.803  0.00  0.00     0.180 A 
HETATM   12  N           1     -20.934  -9.897  -5.697  0.00  0.00    -0.354 N 
ATOM     13  HN          1     -21.141  -9.936  -6.694  1.00  0.00     0.166 HD
ENDBRANCH   6   7
ENDBRANCH   5   6
BRANCH   5  14
HETATM   14  C           1     -21.913  -6.100  -5.154  0.00  0.00     0.197 C 
HETATM   15  O           1     -23.157  -5.987  -5.211  0.00  0.00    -0.646 OA
HETATM   16  O           1     -21.280  -5.576  -4.212  0.00  0.00    -0.646 OA
ENDBRANCH   5  14
ENDBRANCH   1   5
BRANCH   2  17
HETATM   17  C           1     -22.571  -4.759  -8.461  0.00  0.00     0.275 C 
BRANCH  17  18
HETATM   18  C           1     -22.206  -3.870  -9.642  0.00  0.00     0.053 C 
BRANCH  18  19
HETATM   19  C           1     -22.947  -4.345 -10.885  0.00  0.00     0.115 C 
BRANCH  19  20
HETATM   20  C           1     -24.020  -3.347 -11.245  0.00  0.00     0.172 C 
HETATM   21  O           1     -25.029  -3.223 -10.517  0.00  0.00    -0.648 OA
HETATM   22  O           1     -23.902  -2.645 -12.272  0.00  0.00    -0.648 OA
ENDBRANCH  19  20
ENDBRANCH  18  19
ENDBRANCH  17  18
BRANCH  17  23
HETATM   23  N           1     -23.797  -4.216  -7.788  0.00  0.00    -0.066 N 
HETATM   24  H           1     -24.491  -3.923  -8.512  0.00  0.00     0.275 HD
HETATM   25  H           1     -24.218  -4.956  -7.181  0.00  0.00     0.275 HD
HETATM   26  H           1     -23.535  -3.392  -7.201  0.00  0.00     0.275 HD
ENDBRANCH  17  23
ENDBRANCH   2  17
TORSDOF 9
ENDMDL
MODEL 8
REMARK VINA RESULT:      -6.2      1.564      1.898
REMARK  9 active torsions:
REMARK  status: ('A' for Active; 'I' for Inactive)
REMARK    1  A    between atoms: C_2  and  C_8 
REMARK    2  A    between atoms: C_2  and  C_25 
REMARK    3  A    between atoms: C_8  and  C_19 
REMARK    4  A    between atoms: C_8  and  N_22 
REMARK    5  A    between atoms: C_10  and  C_11 
REMARK    6  A    between atoms: C_11  and  C_12 
REMARK    7  A    between atoms: C_12  and  C_14 
REMARK    8  A    between atoms: C_12  and  N_18 
REMARK       I    between atoms: N_18  and  C_19 
REMARK    9  A    between atoms: C_25  and  C_26 
ROOT
HETATM    1  N           1     -21.120  -3.675  -7.344  0.00  0.00    -0.344 N 
HETATM    2  C           1     -20.207  -4.689  -7.223  0.00  0.00     0.249 C 
HETATM    3  H           1     -21.173  -2.955  -6.634  0.00  0.00     0.163 HD
HETATM    4  O           1     -19.102  -4.566  -7.696  0.00  0.00    -0.271 OA
ENDROOT
BRANCH   1   5
HETATM    5  C           1     -22.009  -3.633  -8.488  0.00  0.00     0.191 C 
BRANCH   5   6
HETATM    6  C           1     -21.457  -4.525  -9.592  0.00  0.00     0.094 C 
BRANCH   6   7
HETATM    7  C           1     -21.948  -4.040 -10.920  0.00  0.00     0.028 A 
HETATM    8  C           1     -21.469  -2.929 -11.572  0.00  0.00     0.114 A 
HETATM    9  N           1     -22.191  -2.860 -12.731  0.00  0.00    -0.360 N 
HETATM   10  H           1     -22.092  -2.131 -13.481  0.00  0.00     0.166 HD
HETATM   11  C           1     -23.062  -3.911 -12.735  0.00  0.00     0.180 A 
HETATM   12  N           1     -22.938  -4.643 -11.653  0.00  0.00    -0.354 N 
ATOM     13  HN          1     -23.466  -5.481 -11.409  1.00  0.00     0.166 HD
ENDBRANCH   6   7
ENDBRANCH   5   6
BRANCH   5  14
HETATM   14  C           1     -23.375  -4.126  -8.079  0.00  0.00     0.197 C 
HETATM   15  O           1     -23.575  -4.516  -6.907  0.00  0.00    -0.646 OA
HETATM   16  O           1     -24.308  -4.146  -8.911  0.00  0.00    -0.646 OA
ENDBRANCH   5  14
ENDBRANCH   1   5
BRANCH   2  17
HETATM   17  C           1     -20.581  -5.959  -6.500  0.00  0.00     0.275 C 
BRANCH  17  18
HETATM   18  C           1     -20.737  -5.672  -5.013  0.00  0.00     0.053 C 
BRANCH  18  19
HETATM   19  C           1     -21.845  -6.547  -4.440  0.00  0.00     0.115 C 
BRANCH  19  20
HETATM   20  C           1     -21.706  -6.617  -2.939  0.00  0.00     0.172 C 
HETATM   21  O           1     -20.856  -7.376  -2.425  0.00  0.00    -0.648 OA
HETATM   22  O           1     -22.442  -5.918  -2.210  0.00  0.00    -0.648 OA
ENDBRANCH  19  20
ENDBRANCH  18  19
ENDBRANCH  17  18
BRANCH  17  23
HETATM   23  N           1     -19.504  -6.984  -6.701  0.00  0.00    -0.066 N 
HETATM   24  H           1     -19.929  -7.939  -6.708  0.00  0.00     0.275 HD
HETATM   25  H           1     -19.024  -6.810  -7.613  0.00  0.00     0.275 HD
HETATM   26  H           1     -18.810  -6.916  -5.924  0.00  0.00     0.275 HD
ENDBRANCH  17  23
ENDBRANCH   2  17
TORSDOF 9
ENDMDL
MODEL 9
REMARK VINA RESULT:      -6.1      3.029      7.486
REMARK  9 active torsions:
REMARK  status: ('A' for Active; 'I' for Inactive)
REMARK    1  A    between atoms: C_2  and  C_8 
REMARK    2  A    between atoms: C_2  and  C_25 
REMARK    3  A    between atoms: C_8  and  C_19 
REMARK    4  A    between atoms: C_8  and  N_22 
REMARK    5  A    between atoms: C_10  and  C_11 
REMARK    6  A    between atoms: C_11  and  C_12 
REMARK    7  A    between atoms: C_12  and  C_14 
REMARK    8  A    between atoms: C_12  and  N_18 
REMARK       I    between atoms: N_18  and  C_19 
REMARK    9  A    between atoms: C_25  and  C_26 
ROOT
HETATM    1  N           1     -20.550  -6.749  -6.874  0.00  0.00    -0.344 N 
HETATM    2  C           1     -20.503  -5.419  -7.198  0.00  0.00     0.249 C 
HETATM    3  H           1     -20.596  -7.447  -7.605  0.00  0.00     0.163 HD
HETATM    4  O           1     -19.436  -4.876  -7.366  0.00  0.00    -0.271 OA
ENDROOT
BRANCH   1   5
HETATM    5  C           1     -20.534  -7.156  -5.482  0.00  0.00     0.191 C 
BRANCH   5   6
HETATM    6  C           1     -21.958  -7.165  -4.941  0.00  0.00     0.094 C 
BRANCH   6   7
HETATM    7  C           1     -21.925  -7.070  -3.447  0.00  0.00     0.028 A 
HETATM    8  C           1     -21.479  -8.065  -2.611  0.00  0.00     0.114 A 
HETATM    9  N           1     -21.625  -7.559  -1.349  0.00  0.00    -0.360 N 
HETATM   10  H           1     -21.382  -8.048  -0.452  0.00  0.00     0.166 HD
HETATM   11  C           1     -22.143  -6.301  -1.469  0.00  0.00     0.180 A 
HETATM   12  N           1     -22.335  -5.977  -2.726  0.00  0.00    -0.354 N 
ATOM     13  HN          1     -22.708  -5.100  -3.089  1.00  0.00     0.166 HD
ENDBRANCH   6   7
ENDBRANCH   5   6
BRANCH   5  14
HETATM   14  C           1     -19.946  -8.541  -5.372  0.00  0.00     0.197 C 
HETATM   15  O           1     -18.824  -8.704  -4.843  0.00  0.00    -0.646 OA
HETATM   16  O           1     -20.578  -9.526  -5.812  0.00  0.00    -0.646 OA
ENDBRANCH   5  14
ENDBRANCH   1   5
BRANCH   2  17
HETATM   17  C           1     -21.781  -4.632  -7.346  0.00  0.00     0.275 C 
BRANCH  17  18
HETATM   18  C           1     -22.300  -4.768  -8.771  0.00  0.00     0.053 C 
BRANCH  18  19
HETATM   19  C           1     -23.672  -4.113  -8.876  0.00  0.00     0.115 C 
BRANCH  19  20
HETATM   20  C           1     -23.837  -3.507 -10.249  0.00  0.00     0.172 C 
HETATM   21  O           1     -22.831  -3.252 -10.945  0.00  0.00    -0.648 OA
HETATM   22  O           1     -24.980  -3.258 -10.689  0.00  0.00    -0.648 OA
ENDBRANCH  19  20
ENDBRANCH  18  19
ENDBRANCH  17  18
BRANCH  17  23
HETATM   23  N           1     -21.515  -3.186  -7.047  0.00  0.00    -0.066 N 
HETATM   24  H           1     -21.090  -2.729  -7.886  0.00  0.00     0.275 HD
HETATM   25  H           1     -22.413  -2.709  -6.808  0.00  0.00     0.275 HD
HETATM   26  H           1     -20.856  -3.114  -6.239  0.00  0.00     0.275 HD
ENDBRANCH  17  23
ENDBRANCH   2  17
TORSDOF 9
ENDMDL
