MODEL 1
REMARK VINA RESULT:      -7.8      0.000      0.000
REMARK  8 active torsions:
REMARK  status: ('A' for Active; 'I' for Inactive)
REMARK    1  A    between atoms: N_2  and  C_7 
REMARK    2  A    between atoms: C_5  and  C_6 
REMARK    3  A    between atoms: C_6  and  C_29 
REMARK    4  A    between atoms: C_7  and  C_19 
REMARK    5  A    between atoms: C_7  and  C_8 
REMARK    6  A    between atoms: C_8  and  C_9 
REMARK       I    between atoms: C_9  and  N_10 
REMARK    7  A    between atoms: C_12  and  C_29 
REMARK       I    between atoms: C_19  and  N_20 
REMARK    8  A    between atoms: N_20  and  C_29 
ROOT
HETATM    1  O           1     -35.100   0.774 -12.544  0.00  0.00    -0.271 OA
HETATM    2  C           1     -35.404  -0.307 -12.989  0.00  0.00     0.249 C 
HETATM    3  N           1     -34.820  -1.441 -12.492  0.00  0.00    -0.344 N 
HETATM    4  H           1     -33.965  -1.793 -12.905  0.00  0.00     0.163 HD
ENDROOT
BRANCH   3   5
HETATM    5  C           1     -35.425  -2.137 -11.373  0.00  0.00     0.190 C 
BRANCH   5   6
HETATM    6  C           1     -34.343  -2.542 -10.382  0.00  0.00     0.077 C 
BRANCH   6   7
HETATM    7  C           1     -33.699  -3.815 -10.837  0.00  0.00    -0.028 A 
HETATM    8  C           1     -32.619  -3.919 -11.684  0.00  0.00     0.096 A 
HETATM    9  N           1     -32.342  -5.251 -11.846  0.00  0.00    -0.365 N 
HETATM   10  C           1     -33.226  -6.014 -11.116  0.00  0.00     0.042 A 
HETATM   11  H           1     -31.567  -5.635 -12.442  0.00  0.00     0.165 HD
HETATM   12  C           1     -33.322  -7.404 -10.980  0.00  0.00     0.030 A 
HETATM   13  C           1     -34.092  -5.131 -10.470  0.00  0.00    -0.002 A 
HETATM   14  C           1     -34.337  -7.903 -10.158  0.00  0.00     0.002 A 
HETATM   15  C           1     -35.216  -7.045  -9.499  0.00  0.00     0.001 A 
HETATM   16  C           1     -35.105  -5.658  -9.647  0.00  0.00     0.014 A 
ENDBRANCH   6   7
ENDBRANCH   5   6
BRANCH   5  17
HETATM   17  C           1     -36.416  -1.226 -10.692  0.00  0.00     0.197 C 
HETATM   18  O           1     -36.036  -0.454  -9.785  0.00  0.00    -0.646 OA
HETATM   19  O           1     -37.619  -1.244 -11.034  0.00  0.00    -0.646 OA
ENDBRANCH   5  17
ENDBRANCH   3   5
BRANCH   2  20
HETATM   20  C           1     -36.426  -0.408 -14.095  0.00  0.00     0.283 C 
BRANCH  20  21
HETATM   21  N           1     -37.665   0.339 -13.699  0.00  0.00    -0.066 N 
HETATM   22  H           1     -38.186  -0.209 -12.977  0.00  0.00     0.275 HD
HETATM   23  H           1     -37.399   1.270 -13.304  0.00  0.00     0.275 HD
HETATM   24  H           1     -38.273   0.477 -14.537  0.00  0.00     0.275 HD
ENDBRANCH  20  21
BRANCH  20  25
HETATM   25  C           1     -35.855   0.199 -15.371  0.00  0.00     0.145 C 
BRANCH  25  26
HETATM   26  C           1     -35.885  -0.829 -16.476  0.00  0.00     0.217 C 
HETATM   27  O           1     -36.811  -0.858 -17.249  0.00  0.00    -0.274 OA
HETATM   28  N           1     -34.860  -1.728 -16.600  0.00  0.00    -0.370 N 
HETATM   29  H           1     -34.880  -2.418 -17.341  0.00  0.00     0.159 HD
HETATM   30  H           1     -34.083  -1.703 -15.952  0.00  0.00     0.159 HD
ENDBRANCH  25  26
ENDBRANCH  20  25
ENDBRANCH   2  20
TORSDOF 8
ENDMDL
MODEL 2
REMARK VINA RESULT:      -7.7     14.040     17.162
REMARK  8 active torsions:
REMARK  status: ('A' for Active; 'I' for Inactive)
REMARK    1  A    between atoms: N_2  and  C_7 
REMARK    2  A    between atoms: C_5  and  C_6 
REMARK    3  A    between atoms: C_6  and  C_29 
REMARK    4  A    between atoms: C_7  and  C_19 
REMARK    5  A    between atoms: C_7  and  C_8 
REMARK    6  A    between atoms: C_8  and  C_9 
REMARK       I    between atoms: C_9  and  N_10 
REMARK    7  A    between atoms: C_12  and  C_29 
REMARK       I    between atoms: C_19  and  N_20 
REMARK    8  A    between atoms: N_20  and  C_29 
ROOT
HETATM    1  O           1     -21.169  -5.352  -2.725  0.00  0.00    -0.271 OA
HETATM    2  C           1     -21.774  -6.343  -3.059  0.00  0.00     0.249 C 
HETATM    3  N           1     -22.512  -6.337  -4.212  0.00  0.00    -0.344 N 
HETATM    4  H           1     -23.485  -6.059  -4.189  0.00  0.00     0.163 HD
ENDROOT
BRANCH   3   5
HETATM    5  C           1     -21.900  -6.730  -5.467  0.00  0.00     0.190 C 
BRANCH   5   6
HETATM    6  C           1     -21.135  -5.549  -6.049  0.00  0.00     0.077 C 
BRANCH   6   7
HETATM    7  C           1     -21.941  -4.921  -7.144  0.00  0.00    -0.028 A 
HETATM    8  C           1     -23.254  -4.518  -7.055  0.00  0.00     0.096 A 
HETATM    9  N           1     -23.614  -3.997  -8.269  0.00  0.00    -0.365 N 
HETATM   10  C           1     -22.555  -4.054  -9.146  0.00  0.00     0.042 A 
HETATM   11  H           1     -24.564  -3.609  -8.498  0.00  0.00     0.165 HD
HETATM   12  C           1     -22.462  -3.641 -10.480  0.00  0.00     0.030 A 
HETATM   13  C           1     -21.486  -4.633  -8.460  0.00  0.00    -0.002 A 
HETATM   14  C           1     -21.237  -3.828 -11.130  0.00  0.00     0.002 A 
HETATM   15  C           1     -20.153  -4.402 -10.470  0.00  0.00     0.001 A 
HETATM   16  C           1     -20.264  -4.810  -9.136  0.00  0.00     0.014 A 
ENDBRANCH   6   7
ENDBRANCH   5   6
BRANCH   5  17
HETATM   17  C           1     -20.949  -7.876  -5.224  0.00  0.00     0.197 C 
HETATM   18  O           1     -21.392  -9.034  -5.067  0.00  0.00    -0.646 OA
HETATM   19  O           1     -19.717  -7.666  -5.178  0.00  0.00    -0.646 OA
ENDBRANCH   5  17
ENDBRANCH   3   5
BRANCH   2  20
HETATM   20  C           1     -21.718  -7.586  -2.206  0.00  0.00     0.283 C 
BRANCH  20  21
HETATM   21  N           1     -20.295  -8.046  -2.089  0.00  0.00    -0.066 N 
HETATM   22  H           1     -19.720  -7.593  -2.835  0.00  0.00     0.275 HD
HETATM   23  H           1     -19.919  -7.782  -1.150  0.00  0.00     0.275 HD
HETATM   24  H           1     -20.254  -9.085  -2.201  0.00  0.00     0.275 HD
ENDBRANCH  20  21
BRANCH  20  25
HETATM   25  C           1     -22.265  -7.275  -0.819  0.00  0.00     0.145 C 
BRANCH  25  26
HETATM   26  C           1     -22.070  -8.471   0.081  0.00  0.00     0.217 C 
HETATM   27  O           1     -22.481  -9.554  -0.257  0.00  0.00    -0.274 OA
HETATM   28  N           1     -21.427  -8.326   1.281  0.00  0.00    -0.370 N 
HETATM   29  H           1     -21.297  -9.128   1.885  0.00  0.00     0.159 HD
HETATM   30  H           1     -21.083  -7.418   1.564  0.00  0.00     0.159 HD
ENDBRANCH  25  26
ENDBRANCH  20  25
ENDBRANCH   2  20
TORSDOF 8
ENDMDL
MODEL 3
REMARK VINA RESULT:      -7.7     15.330     18.183
REMARK  8 active torsions:
REMARK  status: ('A' for Active; 'I' for Inactive)
REMARK    1  A    between atoms: N_2  and  C_7 
REMARK    2  A    between atoms: C_5  and  C_6 
REMARK    3  A    between atoms: C_6  and  C_29 
REMARK    4  A    between atoms: C_7  and  C_19 
REMARK    5  A    between atoms: C_7  and  C_8 
REMARK    6  A    between atoms: C_8  and  C_9 
REMARK       I    between atoms: C_9  and  N_10 
REMARK    7  A    between atoms: C_12  and  C_29 
REMARK       I    between atoms: C_19  and  N_20 
REMARK    8  A    between atoms: N_20  and  C_29 
ROOT
HETATM    1  O           1     -20.908 -11.403  -2.140  0.00  0.00    -0.271 OA
HETATM    2  C           1     -20.817 -10.202  -2.238  0.00  0.00     0.249 C 
HETATM    3  N           1     -19.998  -9.653  -3.188  0.00  0.00    -0.344 N 
HETATM    4  H           1     -19.030  -9.454  -2.967  0.00  0.00     0.163 HD
ENDROOT
BRANCH   3   5
HETATM    5  C           1     -20.517  -9.357  -4.509  0.00  0.00     0.190 C 
BRANCH   5   6
HETATM    6  C           1     -19.804  -8.134  -5.071  0.00  0.00     0.077 C 
BRANCH   6   7
HETATM    7  C           1     -20.814  -7.092  -5.441  0.00  0.00    -0.028 A 
HETATM    8  C           1     -22.098  -6.998  -4.953  0.00  0.00     0.096 A 
HETATM    9  N           1     -22.690  -5.911  -5.540  0.00  0.00    -0.365 N 
HETATM   10  C           1     -21.810  -5.296  -6.402  0.00  0.00     0.042 A 
HETATM   11  H           1     -23.674  -5.592  -5.358  0.00  0.00     0.165 HD
HETATM   12  C           1     -21.975  -4.165  -7.208  0.00  0.00     0.030 A 
HETATM   13  C           1     -20.618  -6.023  -6.357  0.00  0.00    -0.002 A 
HETATM   14  C           1     -20.888  -3.766  -7.992  0.00  0.00     0.002 A 
HETATM   15  C           1     -19.686  -4.471  -7.967  0.00  0.00     0.001 A 
HETATM   16  C           1     -19.539  -5.601  -7.155  0.00  0.00     0.014 A 
ENDBRANCH   6   7
ENDBRANCH   5   6
BRANCH   5  17
HETATM   17  C           1     -20.282 -10.538  -5.417  0.00  0.00     0.197 C 
HETATM   18  O           1     -19.285 -11.272  -5.244  0.00  0.00    -0.646 OA
HETATM   19  O           1     -21.084 -10.782  -6.345  0.00  0.00    -0.646 OA
ENDBRANCH   5  17
ENDBRANCH   3   5
BRANCH   2  20
HETATM   20  C           1     -21.606  -9.308  -1.313  0.00  0.00     0.283 C 
BRANCH  20  21
HETATM   21  N           1     -21.446  -9.787   0.099  0.00  0.00    -0.066 N 
HETATM   22  H           1     -22.378 -10.073   0.477  0.00  0.00     0.275 HD
HETATM   23  H           1     -20.796 -10.605   0.118  0.00  0.00     0.275 HD
HETATM   24  H           1     -21.054  -9.017   0.687  0.00  0.00     0.275 HD
ENDBRANCH  20  21
BRANCH  20  25
HETATM   25  C           1     -21.089  -7.879  -1.425  0.00  0.00     0.145 C 
BRANCH  25  26
HETATM   26  C           1     -22.214  -6.912  -1.149  0.00  0.00     0.217 C 
HETATM   27  O           1     -23.056  -7.183  -0.328  0.00  0.00    -0.274 OA
HETATM   28  N           1     -22.279  -5.727  -1.831  0.00  0.00    -0.370 N 
HETATM   29  H           1     -23.034  -5.078  -1.647  0.00  0.00     0.159 HD
HETATM   30  H           1     -21.573  -5.499  -2.520  0.00  0.00     0.159 HD
ENDBRANCH  25  26
ENDBRANCH  20  25
ENDBRANCH   2  20
TORSDOF 8
ENDMDL
MODEL 4
REMARK VINA RESULT:      -7.6     14.587     16.629
REMARK  8 active torsions:
REMARK  status: ('A' for Active; 'I' for Inactive)
REMARK    1  A    between atoms: N_2  and  C_7 
REMARK    2  A    between atoms: C_5  and  C_6 
REMARK    3  A    between atoms: C_6  and  C_29 
REMARK    4  A    between atoms: C_7  and  C_19 
REMARK    5  A    between atoms: C_7  and  C_8 
REMARK    6  A    between atoms: C_8  and  C_9 
REMARK       I    between atoms: C_9  and  N_10 
REMARK    7  A    between atoms: C_12  and  C_29 
REMARK       I    between atoms: C_19  and  N_20 
REMARK    8  A    between atoms: N_20  and  C_29 
ROOT
HETATM    1  O           1     -19.144  -4.922  -6.772  0.00  0.00    -0.271 OA
HETATM    2  C           1     -20.163  -5.570  -6.727  0.00  0.00     0.249 C 
HETATM    3  N           1     -20.106  -6.918  -6.497  0.00  0.00    -0.344 N 
HETATM    4  H           1     -20.030  -7.562  -7.274  0.00  0.00     0.163 HD
ENDROOT
BRANCH   3   5
HETATM    5  C           1     -20.155  -7.424  -5.139  0.00  0.00     0.190 C 
BRANCH   5   6
HETATM    6  C           1     -21.604  -7.682  -4.746  0.00  0.00     0.077 C 
BRANCH   6   7
HETATM    7  C           1     -21.815  -7.285  -3.318  0.00  0.00    -0.028 A 
HETATM    8  C           1     -22.118  -6.021  -2.865  0.00  0.00     0.096 A 
HETATM    9  N           1     -22.229  -6.082  -1.501  0.00  0.00    -0.365 N 
HETATM   10  C           1     -22.002  -7.367  -1.061  0.00  0.00     0.042 A 
HETATM   11  H           1     -22.453  -5.265  -0.880  0.00  0.00     0.165 HD
HETATM   12  C           1     -22.011  -7.893   0.236  0.00  0.00     0.030 A 
HETATM   13  C           1     -21.739  -8.145  -2.189  0.00  0.00    -0.002 A 
HETATM   14  C           1     -21.742  -9.258   0.380  0.00  0.00     0.002 A 
HETATM   15  C           1     -21.477 -10.060  -0.728  0.00  0.00     0.001 A 
HETATM   16  C           1     -21.472  -9.517  -2.017  0.00  0.00     0.014 A 
ENDBRANCH   6   7
ENDBRANCH   5   6
BRANCH   5  17
HETATM   17  C           1     -19.373  -8.711  -5.053  0.00  0.00     0.197 C 
HETATM   18  O           1     -19.481  -9.569  -5.954  0.00  0.00    -0.646 OA
HETATM   19  O           1     -18.617  -8.918  -4.079  0.00  0.00    -0.646 OA
ENDBRANCH   5  17
ENDBRANCH   3   5
BRANCH   2  20
HETATM   20  C           1     -21.497  -4.894  -6.928  0.00  0.00     0.283 C 
BRANCH  20  21
HETATM   21  N           1     -21.315  -3.406  -6.874  0.00  0.00    -0.066 N 
HETATM   22  H           1     -20.399  -3.151  -7.307  0.00  0.00     0.275 HD
HETATM   23  H           1     -22.090  -2.941  -7.399  0.00  0.00     0.275 HD
HETATM   24  H           1     -21.330  -3.089  -5.878  0.00  0.00     0.275 HD
ENDBRANCH  20  21
BRANCH  20  25
HETATM   25  C           1     -22.066  -5.286  -8.286  0.00  0.00     0.145 C 
BRANCH  25  26
HETATM   26  C           1     -22.888  -4.146  -8.836  0.00  0.00     0.217 C 
HETATM   27  O           1     -22.416  -3.407  -9.665  0.00  0.00    -0.274 OA
HETATM   28  N           1     -24.169  -3.952  -8.395  0.00  0.00    -0.370 N 
HETATM   29  H           1     -24.721  -3.187  -8.764  0.00  0.00     0.159 HD
HETATM   30  H           1     -24.565  -4.572  -7.700  0.00  0.00     0.159 HD
ENDBRANCH  25  26
ENDBRANCH  20  25
ENDBRANCH   2  20
TORSDOF 8
ENDMDL
MODEL 5
REMARK VINA RESULT:      -7.6      1.877      2.853
REMARK  8 active torsions:
REMARK  status: ('A' for Active; 'I' for Inactive)
REMARK    1  A    between atoms: N_2  and  C_7 
REMARK    2  A    between atoms: C_5  and  C_6 
REMARK    3  A    between atoms: C_6  and  C_29 
REMARK    4  A    between atoms: C_7  and  C_19 
REMARK    5  A    between atoms: C_7  and  C_8 
REMARK    6  A    between atoms: C_8  and  C_9 
REMARK       I    between atoms: C_9  and  N_10 
REMARK    7  A    between atoms: C_12  and  C_29 
REMARK       I    between atoms: C_19  and  N_20 
REMARK    8  A    between atoms: N_20  and  C_29 
ROOT
HETATM    1  O           1     -37.719  -0.832 -13.734  0.00  0.00    -0.271 OA
HETATM    2  C           1     -36.855  -0.240 -13.131  0.00  0.00     0.249 C 
HETATM    3  N           1     -37.137   0.332 -11.919  0.00  0.00    -0.344 N 
HETATM    4  H           1     -37.470   1.287 -11.875  0.00  0.00     0.163 HD
ENDROOT
BRANCH   3   5
HETATM    5  C           1     -36.957  -0.431 -10.699  0.00  0.00     0.190 C 
BRANCH   5   6
HETATM    6  C           1     -35.527  -0.949 -10.631  0.00  0.00     0.077 C 
BRANCH   6   7
HETATM    7  C           1     -35.533  -2.445 -10.672  0.00  0.00    -0.028 A 
HETATM    8  C           1     -36.597  -3.260 -10.359  0.00  0.00     0.096 A 
HETATM    9  N           1     -36.193  -4.558 -10.524  0.00  0.00    -0.365 N 
HETATM   10  C           1     -34.881  -4.600 -10.940  0.00  0.00     0.042 A 
HETATM   11  H           1     -36.797  -5.401 -10.358  0.00  0.00     0.165 HD
HETATM   12  C           1     -34.059  -5.694 -11.231  0.00  0.00     0.030 A 
HETATM   13  C           1     -34.442  -3.278 -11.040  0.00  0.00    -0.002 A 
HETATM   14  C           1     -32.747  -5.426 -11.638  0.00  0.00     0.002 A 
HETATM   15  C           1     -32.282  -4.118 -11.748  0.00  0.00     0.001 A 
HETATM   16  C           1     -33.118  -3.035 -11.452  0.00  0.00     0.014 A 
ENDBRANCH   6   7
ENDBRANCH   5   6
BRANCH   5  17
HETATM   17  C           1     -37.230   0.455  -9.509  0.00  0.00     0.197 C 
HETATM   18  O           1     -37.892   1.505  -9.649  0.00  0.00    -0.646 OA
HETATM   19  O           1     -36.792   0.138  -8.381  0.00  0.00    -0.646 OA
ENDBRANCH   5  17
ENDBRANCH   3   5
BRANCH   2  20
HETATM   20  C           1     -35.468  -0.128 -13.714  0.00  0.00     0.283 C 
BRANCH  20  21
HETATM   21  N           1     -35.107  -1.417 -14.392  0.00  0.00    -0.066 N 
HETATM   22  H           1     -34.612  -1.211 -15.290  0.00  0.00     0.275 HD
HETATM   23  H           1     -34.480  -1.974 -13.769  0.00  0.00     0.275 HD
HETATM   24  H           1     -35.976  -1.961 -14.592  0.00  0.00     0.275 HD
ENDBRANCH  20  21
BRANCH  20  25
HETATM   25  C           1     -35.435   1.006 -14.731  0.00  0.00     0.145 C 
BRANCH  25  26
HETATM   26  C           1     -36.383   0.697 -15.863  0.00  0.00     0.217 C 
HETATM   27  O           1     -36.101  -0.154 -16.672  0.00  0.00    -0.274 OA
HETATM   28  N           1     -37.563   1.382 -15.973  0.00  0.00    -0.370 N 
HETATM   29  H           1     -38.199   1.175 -16.733  0.00  0.00     0.159 HD
HETATM   30  H           1     -37.800   2.095 -15.295  0.00  0.00     0.159 HD
ENDBRANCH  25  26
ENDBRANCH  20  25
ENDBRANCH   2  20
TORSDOF 8
ENDMDL
MODEL 6
REMARK VINA RESULT:      -7.4     15.901     18.266
REMARK  8 active torsions:
REMARK  status: ('A' for Active; 'I' for Inactive)
REMARK    1  A    between atoms: N_2  and  C_7 
REMARK    2  A    between atoms: C_5  and  C_6 
REMARK    3  A    between atoms: C_6  and  C_29 
REMARK    4  A    between atoms: C_7  and  C_19 
REMARK    5  A    between atoms: C_7  and  C_8 
REMARK    6  A    between atoms: C_8  and  C_9 
REMARK       I    between atoms: C_9  and  N_10 
REMARK    7  A    between atoms: C_12  and  C_29 
REMARK       I    between atoms: C_19  and  N_20 
REMARK    8  A    between atoms: N_20  and  C_29 
ROOT
HETATM    1  O           1     -22.474  -5.843  -2.371  0.00  0.00    -0.271 OA
HETATM    2  C           1     -21.699  -6.548  -2.973  0.00  0.00     0.249 C 
HETATM    3  N           1     -20.864  -7.388  -2.287  0.00  0.00    -0.344 N 
HETATM    4  H           1     -19.950  -7.066  -1.994  0.00  0.00     0.163 HD
ENDROOT
BRANCH   3   5
HETATM    5  C           1     -21.289  -8.740  -1.980  0.00  0.00     0.190 C 
BRANCH   5   6
HETATM    6  C           1     -20.083  -9.670  -2.014  0.00  0.00     0.077 C 
BRANCH   6   7
HETATM    7  C           1     -19.576  -9.782  -3.418  0.00  0.00    -0.028 A 
HETATM    8  C           1     -20.347  -9.925  -4.549  0.00  0.00     0.096 A 
HETATM    9  N           1     -19.503  -9.990  -5.626  0.00  0.00    -0.365 N 
HETATM   10  C           1     -18.193  -9.892  -5.211  0.00  0.00     0.042 A 
HETATM   11  H           1     -19.809 -10.100  -6.625  0.00  0.00     0.165 HD
HETATM   12  C           1     -17.006  -9.908  -5.952  0.00  0.00     0.030 A 
HETATM   13  C           1     -18.213  -9.759  -3.822  0.00  0.00    -0.002 A 
HETATM   14  C           1     -15.804  -9.787  -5.248  0.00  0.00     0.002 A 
HETATM   15  C           1     -15.793  -9.652  -3.861  0.00  0.00     0.001 A 
HETATM   16  C           1     -16.990  -9.638  -3.136  0.00  0.00     0.014 A 
ENDBRANCH   6   7
ENDBRANCH   5   6
BRANCH   5  17
HETATM   17  C           1     -21.911  -8.772  -0.606  0.00  0.00     0.197 C 
HETATM   18  O           1     -21.346  -8.198   0.349  0.00  0.00    -0.646 OA
HETATM   19  O           1     -22.992  -9.373  -0.424  0.00  0.00    -0.646 OA
ENDBRANCH   5  17
ENDBRANCH   3   5
BRANCH   2  20
HETATM   20  C           1     -21.649  -6.500  -4.481  0.00  0.00     0.283 C 
BRANCH  20  21
HETATM   21  N           1     -23.006  -6.145  -5.013  0.00  0.00    -0.066 N 
HETATM   22  H           1     -22.971  -5.196  -5.452  0.00  0.00     0.275 HD
HETATM   23  H           1     -23.294  -6.849  -5.730  0.00  0.00     0.275 HD
HETATM   24  H           1     -23.698  -6.141  -4.230  0.00  0.00     0.275 HD
ENDBRANCH  20  21
BRANCH  20  25
HETATM   25  C           1     -20.640  -5.447  -4.922  0.00  0.00     0.145 C 
BRANCH  25  26
HETATM   26  C           1     -20.696  -5.293  -6.422  0.00  0.00     0.217 C 
HETATM   27  O           1     -21.292  -4.365  -6.912  0.00  0.00    -0.274 OA
HETATM   28  N           1     -20.071  -6.206  -7.227  0.00  0.00    -0.370 N 
HETATM   29  H           1     -20.108  -6.104  -8.234  0.00  0.00     0.159 HD
HETATM   30  H           1     -19.571  -6.985  -6.817  0.00  0.00     0.159 HD
ENDBRANCH  25  26
ENDBRANCH  20  25
ENDBRANCH   2  20
TORSDOF 8
ENDMDL
MODEL 7
REMARK VINA RESULT:      -7.3     14.256     17.213
REMARK  8 active torsions:
REMARK  status: ('A' for Active; 'I' for Inactive)
REMARK    1  A    between atoms: N_2  and  C_7 
REMARK    2  A    between atoms: C_5  and  C_6 
REMARK    3  A    between atoms: C_6  and  C_29 
REMARK    4  A    between atoms: C_7  and  C_19 
REMARK    5  A    between atoms: C_7  and  C_8 
REMARK    6  A    between atoms: C_8  and  C_9 
REMARK       I    between atoms: C_9  and  N_10 
REMARK    7  A    between atoms: C_12  and  C_29 
REMARK       I    between atoms: C_19  and  N_20 
REMARK    8  A    between atoms: N_20  and  C_29 
ROOT
HETATM    1  O           1     -21.729  -5.522  -2.312  0.00  0.00    -0.271 OA
HETATM    2  C           1     -21.934  -6.582  -2.855  0.00  0.00     0.249 C 
HETATM    3  N           1     -22.538  -6.616  -4.084  0.00  0.00    -0.344 N 
HETATM    4  H           1     -23.546  -6.674  -4.151  0.00  0.00     0.163 HD
ENDROOT
BRANCH   3   5
HETATM    5  C           1     -21.732  -6.568  -5.288  0.00  0.00     0.190 C 
BRANCH   5   6
HETATM    6  C           1     -20.847  -5.329  -5.258  0.00  0.00     0.077 C 
BRANCH   6   7
HETATM    7  C           1     -20.553  -4.889  -6.658  0.00  0.00    -0.028 A 
HETATM    8  C           1     -19.304  -4.772  -7.225  0.00  0.00     0.096 A 
HETATM    9  N           1     -19.470  -4.343  -8.516  0.00  0.00    -0.365 N 
HETATM   10  C           1     -20.808  -4.180  -8.796  0.00  0.00     0.042 A 
HETATM   11  H           1     -18.688  -4.164  -9.194  0.00  0.00     0.165 HD
HETATM   12  C           1     -21.441  -3.763  -9.972  0.00  0.00     0.030 A 
HETATM   13  C           1     -21.512  -4.518  -7.640  0.00  0.00    -0.002 A 
HETATM   14  C           1     -22.838  -3.691  -9.963  0.00  0.00     0.002 A 
HETATM   15  C           1     -23.567  -4.024  -8.824  0.00  0.00     0.001 A 
HETATM   16  C           1     -22.918  -4.438  -7.656  0.00  0.00     0.014 A 
ENDBRANCH   6   7
ENDBRANCH   5   6
BRANCH   5  17
HETATM   17  C           1     -20.868  -7.802  -5.364  0.00  0.00     0.197 C 
HETATM   18  O           1     -19.663  -7.743  -5.040  0.00  0.00    -0.646 OA
HETATM   19  O           1     -21.359  -8.885  -5.753  0.00  0.00    -0.646 OA
ENDBRANCH   5  17
ENDBRANCH   3   5
BRANCH   2  20
HETATM   20  C           1     -21.526  -7.868  -2.179  0.00  0.00     0.283 C 
BRANCH  20  21
HETATM   21  N           1     -20.050  -7.844  -1.910  0.00  0.00    -0.066 N 
HETATM   22  H           1     -19.530  -7.975  -2.807  0.00  0.00     0.275 HD
HETATM   23  H           1     -19.789  -6.924  -1.487  0.00  0.00     0.275 HD
HETATM   24  H           1     -19.804  -8.614  -1.249  0.00  0.00     0.275 HD
ENDBRANCH  20  21
BRANCH  20  25
HETATM   25  C           1     -22.279  -8.011  -0.863  0.00  0.00     0.145 C 
BRANCH  25  26
HETATM   26  C           1     -22.562  -9.469  -0.599  0.00  0.00     0.217 C 
HETATM   27  O           1     -21.812 -10.316  -1.020  0.00  0.00    -0.274 OA
HETATM   28  N           1     -23.670  -9.832   0.119  0.00  0.00    -0.370 N 
HETATM   29  H           1     -23.861 -10.810   0.296  0.00  0.00     0.159 HD
HETATM   30  H           1     -24.299  -9.121   0.472  0.00  0.00     0.159 HD
ENDBRANCH  25  26
ENDBRANCH  20  25
ENDBRANCH   2  20
TORSDOF 8
ENDMDL
MODEL 8
REMARK VINA RESULT:      -7.0      3.211      5.543
REMARK  8 active torsions:
REMARK  status: ('A' for Active; 'I' for Inactive)
REMARK    1  A    between atoms: N_2  and  C_7 
REMARK    2  A    between atoms: C_5  and  C_6 
REMARK    3  A    between atoms: C_6  and  C_29 
REMARK    4  A    between atoms: C_7  and  C_19 
REMARK    5  A    between atoms: C_7  and  C_8 
REMARK    6  A    between atoms: C_8  and  C_9 
REMARK       I    between atoms: C_9  and  N_10 
REMARK    7  A    between atoms: C_12  and  C_29 
REMARK       I    between atoms: C_19  and  N_20 
REMARK    8  A    between atoms: N_20  and  C_29 
ROOT
HETATM    1  O           1     -34.764  -2.093 -13.879  0.00  0.00    -0.271 OA
HETATM    2  C           1     -35.550  -1.308 -13.406  0.00  0.00     0.249 C 
HETATM    3  N           1     -36.232  -1.627 -12.262  0.00  0.00    -0.344 N 
HETATM    4  H           1     -37.126  -2.098 -12.320  0.00  0.00     0.163 HD
ENDROOT
BRANCH   3   5
HETATM    5  C           1     -35.673  -1.290 -10.967  0.00  0.00     0.190 C 
BRANCH   5   6
HETATM    6  C           1     -36.724  -1.511  -9.888  0.00  0.00     0.077 C 
BRANCH   6   7
HETATM    7  C           1     -36.887  -0.259  -9.084  0.00  0.00    -0.028 A 
HETATM    8  C           1     -36.650   1.024  -9.524  0.00  0.00     0.096 A 
HETATM    9  N           1     -36.918   1.878  -8.487  0.00  0.00    -0.365 N 
HETATM   10  C           1     -37.326   1.169  -7.379  0.00  0.00     0.042 A 
HETATM   11  H           1     -36.824   2.924  -8.530  0.00  0.00     0.165 HD
HETATM   12  C           1     -37.701   1.617  -6.107  0.00  0.00     0.030 A 
HETATM   13  C           1     -37.316  -0.181  -7.730  0.00  0.00    -0.002 A 
HETATM   14  C           1     -38.075   0.651  -5.167  0.00  0.00     0.002 A 
HETATM   15  C           1     -38.075  -0.705  -5.490  0.00  0.00     0.001 A 
HETATM   16  C           1     -37.697  -1.134  -6.767  0.00  0.00     0.014 A 
ENDBRANCH   6   7
ENDBRANCH   5   6
BRANCH   5  17
HETATM   17  C           1     -34.477  -2.167 -10.693  0.00  0.00     0.197 C 
HETATM   18  O           1     -34.594  -3.411 -10.724  0.00  0.00    -0.646 OA
HETATM   19  O           1     -33.369  -1.650 -10.432  0.00  0.00    -0.646 OA
ENDBRANCH   5  17
ENDBRANCH   3   5
BRANCH   2  20
HETATM   20  C           1     -35.783   0.025 -14.076  0.00  0.00     0.283 C 
BRANCH  20  21
HETATM   21  N           1     -34.603   0.919 -13.829  0.00  0.00    -0.066 N 
HETATM   22  H           1     -34.832   1.594 -13.064  0.00  0.00     0.275 HD
HETATM   23  H           1     -33.780   0.339 -13.547  0.00  0.00     0.275 HD
HETATM   24  H           1     -34.377   1.446 -14.702  0.00  0.00     0.275 HD
ENDBRANCH  20  21
BRANCH  20  25
HETATM   25  C           1     -35.955  -0.184 -15.575  0.00  0.00     0.145 C 
BRANCH  25  26
HETATM   26  C           1     -37.415  -0.062 -15.936  0.00  0.00     0.217 C 
HETATM   27  O           1     -38.002  -1.007 -16.404  0.00  0.00    -0.274 OA
HETATM   28  N           1     -38.073   1.121 -15.734  0.00  0.00    -0.370 N 
HETATM   29  H           1     -39.052   1.204 -15.978  0.00  0.00     0.159 HD
HETATM   30  H           1     -37.580   1.914 -15.342  0.00  0.00     0.159 HD
ENDBRANCH  25  26
ENDBRANCH  20  25
ENDBRANCH   2  20
TORSDOF 8
ENDMDL
MODEL 9
REMARK VINA RESULT:      -6.9     14.866     17.542
REMARK  8 active torsions:
REMARK  status: ('A' for Active; 'I' for Inactive)
REMARK    1  A    between atoms: N_2  and  C_7 
REMARK    2  A    between atoms: C_5  and  C_6 
REMARK    3  A    between atoms: C_6  and  C_29 
REMARK    4  A    between atoms: C_7  and  C_19 
REMARK    5  A    between atoms: C_7  and  C_8 
REMARK    6  A    between atoms: C_8  and  C_9 
REMARK       I    between atoms: C_9  and  N_10 
REMARK    7  A    between atoms: C_12  and  C_29 
REMARK       I    between atoms: C_19  and  N_20 
REMARK    8  A    between atoms: N_20  and  C_29 
ROOT
HETATM    1  O           1     -21.321 -10.036  -2.489  0.00  0.00    -0.271 OA
HETATM    2  C           1     -21.256  -9.652  -3.633  0.00  0.00     0.249 C 
HETATM    3  N           1     -21.988  -8.567  -4.033  0.00  0.00    -0.344 N 
HETATM    4  H           1     -22.925  -8.694  -4.396  0.00  0.00     0.163 HD
ENDROOT
BRANCH   3   5
HETATM    5  C           1     -21.423  -7.236  -3.937  0.00  0.00     0.190 C 
BRANCH   5   6
HETATM    6  C           1     -22.130  -6.312  -4.920  0.00  0.00     0.077 C 
BRANCH   6   7
HETATM    7  C           1     -21.236  -6.048  -6.092  0.00  0.00    -0.028 A 
HETATM    8  C           1     -19.966  -6.550  -6.271  0.00  0.00     0.096 A 
HETATM    9  N           1     -19.493  -6.072  -7.465  0.00  0.00    -0.365 N 
HETATM   10  C           1     -20.437  -5.268  -8.064  0.00  0.00     0.042 A 
HETATM   11  H           1     -18.546  -6.288  -7.865  0.00  0.00     0.165 HD
HETATM   12  C           1     -20.393  -4.573  -9.278  0.00  0.00     0.030 A 
HETATM   13  C           1     -21.546  -5.237  -7.217  0.00  0.00    -0.002 A 
HETATM   14  C           1     -21.520  -3.825  -9.635  0.00  0.00     0.002 A 
HETATM   15  C           1     -22.641  -3.777  -8.810  0.00  0.00     0.001 A 
HETATM   16  C           1     -22.667  -4.477  -7.599  0.00  0.00     0.014 A 
ENDBRANCH   6   7
ENDBRANCH   5   6
BRANCH   5  17
HETATM   17  C           1     -21.605  -6.712  -2.534  0.00  0.00     0.197 C 
HETATM   18  O           1     -20.829  -7.075  -1.625  0.00  0.00    -0.646 OA
HETATM   19  O           1     -22.535  -5.916  -2.281  0.00  0.00    -0.646 OA
ENDBRANCH   5  17
ENDBRANCH   3   5
BRANCH   2  20
HETATM   20  C           1     -20.368 -10.369  -4.621  0.00  0.00     0.283 C 
BRANCH  20  21
HETATM   21  N           1     -20.910 -10.179  -6.007  0.00  0.00    -0.066 N 
HETATM   22  H           1     -20.118 -10.052  -6.676  0.00  0.00     0.275 HD
HETATM   23  H           1     -21.466 -11.021  -6.282  0.00  0.00     0.275 HD
HETATM   24  H           1     -21.523  -9.333  -6.028  0.00  0.00     0.275 HD
ENDBRANCH  20  21
BRANCH  20  25
HETATM   25  C           1     -18.958  -9.798  -4.545  0.00  0.00     0.145 C 
BRANCH  25  26
HETATM   26  C           1     -18.179 -10.214  -5.769  0.00  0.00     0.217 C 
HETATM   27  O           1     -17.963 -11.383  -5.979  0.00  0.00    -0.274 OA
HETATM   28  N           1     -17.718  -9.265  -6.641  0.00  0.00    -0.370 N 
HETATM   29  H           1     -17.194  -9.543  -7.461  0.00  0.00     0.159 HD
HETATM   30  H           1     -17.899  -8.285  -6.465  0.00  0.00     0.159 HD
ENDBRANCH  25  26
ENDBRANCH  20  25
ENDBRANCH   2  20
TORSDOF 8
ENDMDL
