MODEL 1
REMARK VINA RESULT:      -8.2      0.000      0.000
REMARK  10 active torsions:
REMARK  status: ('A' for Active; 'I' for Inactive)
REMARK    1  A    between atoms: C_2  and  C_16 
REMARK    2  A    between atoms: C_2  and  C_9 
REMARK    3  A    between atoms: C_6  and  C_7 
REMARK    4  A    between atoms: C_7  and  C_8 
REMARK    5  A    between atoms: C_8  and  C_10 
REMARK    6  A    between atoms: C_8  and  N_23 
REMARK    7  A    between atoms: C_9  and  C_20 
REMARK       I    between atoms: C_10  and  N_15 
REMARK    8  A    between atoms: N_15  and  C_20 
REMARK    9  A    between atoms: C_16  and  N_17 
REMARK   10  A    between atoms: C_20  and  C_28 
ROOT
HETATM    1  C           1     -21.016  -5.415  -6.575  0.00  0.00     0.278 C 
ENDROOT
BRANCH   1   2
HETATM    2  C           1     -22.140  -5.899  -5.668  0.00  0.00     0.083 C 
BRANCH   2   3
HETATM    3  C           1     -21.646  -7.029  -4.821  0.00  0.00    -0.028 A 
HETATM    4  C           1     -21.040  -8.179  -5.274  0.00  0.00     0.096 A 
HETATM    5  N           1     -20.741  -8.952  -4.184  0.00  0.00    -0.365 N 
HETATM    6  C           1     -21.143  -8.322  -3.027  0.00  0.00     0.042 A 
HETATM    7  H           1     -20.272  -9.890  -4.224  0.00  0.00     0.165 HD
HETATM    8  C           1     -21.045  -8.732  -1.692  0.00  0.00     0.030 A 
HETATM    9  C           1     -21.717  -7.107  -3.402  0.00  0.00    -0.002 A 
HETATM   10  C           1     -21.548  -7.870  -0.713  0.00  0.00     0.002 A 
HETATM   11  C           1     -22.127  -6.650  -1.058  0.00  0.00     0.001 A 
HETATM   12  C           1     -22.218  -6.256  -2.398  0.00  0.00     0.014 A 
ENDBRANCH   2   3
ENDBRANCH   1   2
BRANCH   1  13
HETATM   13  C           1     -21.550  -4.372  -7.526  0.00  0.00     0.249 C 
HETATM   14  N           1     -22.104  -4.753  -8.719  0.00  0.00    -0.345 N 
HETATM   15  H           1     -22.153  -5.734  -8.963  0.00  0.00     0.163 HD
HETATM   16  O           1     -21.491  -3.202  -7.235  0.00  0.00    -0.271 OA
BRANCH  14  17
HETATM   17  C           1     -22.618  -3.752  -9.633  0.00  0.00     0.185 C 
BRANCH  17  18
HETATM   18  C           1     -22.025  -3.977 -11.019  0.00  0.00     0.038 C 
BRANCH  18  19
HETATM   19  C           1     -22.161  -2.702 -11.842  0.00  0.00     0.030 C 
BRANCH  19  20
HETATM   20  C           1     -23.182  -2.920 -12.950  0.00  0.00     0.230 C 
BRANCH  20  21
HETATM   21  N           1     -22.470  -3.171 -14.246  0.00  0.00    -0.079 N 
HETATM   22  H           1     -21.588  -3.703 -14.060  0.00  0.00     0.274 HD
HETATM   23  H           1     -22.236  -2.258 -14.699  0.00  0.00     0.274 HD
HETATM   24  H           1     -23.085  -3.728 -14.880  0.00  0.00     0.274 HD
ENDBRANCH  20  21
ENDBRANCH  19  20
ENDBRANCH  18  19
ENDBRANCH  17  18
BRANCH  17  25
HETATM   25  C           1     -24.120  -3.862  -9.706  0.00  0.00     0.196 C 
HETATM   26  O           1     -24.653  -4.944 -10.035  0.00  0.00    -0.646 OA
HETATM   27  O           1     -24.834  -2.871  -9.440  0.00  0.00    -0.646 OA
ENDBRANCH  17  25
ENDBRANCH  14  17
ENDBRANCH   1  13
BRANCH   1  28
HETATM   28  N           1     -19.923  -4.815  -5.740  0.00  0.00    -0.066 N 
HETATM   29  H           1     -20.324  -4.466  -4.842  0.00  0.00     0.275 HD
HETATM   30  H           1     -19.485  -4.021  -6.258  0.00  0.00     0.275 HD
HETATM   31  H           1     -19.199  -5.543  -5.541  0.00  0.00     0.275 HD
ENDBRANCH   1  28
TORSDOF 10
ENDMDL
MODEL 2
REMARK VINA RESULT:      -7.7      2.712      8.242
REMARK  10 active torsions:
REMARK  status: ('A' for Active; 'I' for Inactive)
REMARK    1  A    between atoms: C_2  and  C_16 
REMARK    2  A    between atoms: C_2  and  C_9 
REMARK    3  A    between atoms: C_6  and  C_7 
REMARK    4  A    between atoms: C_7  and  C_8 
REMARK    5  A    between atoms: C_8  and  C_10 
REMARK    6  A    between atoms: C_8  and  N_23 
REMARK    7  A    between atoms: C_9  and  C_20 
REMARK       I    between atoms: C_10  and  N_15 
REMARK    8  A    between atoms: N_15  and  C_20 
REMARK    9  A    between atoms: C_16  and  N_17 
REMARK   10  A    between atoms: C_20  and  C_28 
ROOT
HETATM    1  C           1     -22.121  -5.398  -6.624  0.00  0.00     0.278 C 
ENDROOT
BRANCH   1   2
HETATM    2  C           1     -21.480  -4.100  -7.102  0.00  0.00     0.083 C 
BRANCH   2   3
HETATM    3  C           1     -21.298  -4.151  -8.586  0.00  0.00    -0.028 A 
HETATM    4  C           1     -20.132  -4.458  -9.251  0.00  0.00     0.096 A 
HETATM    5  N           1     -20.388  -4.394 -10.595  0.00  0.00    -0.365 N 
HETATM    6  C           1     -21.703  -4.051 -10.815  0.00  0.00     0.042 A 
HETATM    7  H           1     -19.683  -4.581 -11.350  0.00  0.00     0.165 HD
HETATM    8  C           1     -22.403  -3.869 -12.014  0.00  0.00     0.030 A 
HETATM    9  C           1     -22.299  -3.892  -9.563  0.00  0.00    -0.002 A 
HETATM   10  C           1     -23.753  -3.516 -11.926  0.00  0.00     0.002 A 
HETATM   11  C           1     -24.375  -3.350 -10.690  0.00  0.00     0.001 A 
HETATM   12  C           1     -23.660  -3.535  -9.500  0.00  0.00     0.014 A 
ENDBRANCH   2   3
ENDBRANCH   1   2
BRANCH   1  13
HETATM   13  C           1     -21.298  -5.982  -5.503  0.00  0.00     0.249 C 
HETATM   14  N           1     -21.156  -7.339  -5.393  0.00  0.00    -0.345 N 
HETATM   15  H           1     -21.605  -7.950  -6.064  0.00  0.00     0.163 HD
HETATM   16  O           1     -20.763  -5.253  -4.702  0.00  0.00    -0.271 OA
BRANCH  14  17
HETATM   17  C           1     -20.365  -7.902  -4.316  0.00  0.00     0.185 C 
BRANCH  17  18
HETATM   18  C           1     -21.291  -8.418  -3.221  0.00  0.00     0.038 C 
BRANCH  18  19
HETATM   19  C           1     -20.910  -7.780  -1.891  0.00  0.00     0.030 C 
BRANCH  19  20
HETATM   20  C           1     -22.116  -7.049  -1.316  0.00  0.00     0.230 C 
BRANCH  20  21
HETATM   21  N           1     -22.321  -5.762  -2.057  0.00  0.00    -0.079 N 
HETATM   22  H           1     -22.241  -4.960  -1.391  0.00  0.00     0.274 HD
HETATM   23  H           1     -23.271  -5.757  -2.494  0.00  0.00     0.274 HD
HETATM   24  H           1     -21.595  -5.669  -2.803  0.00  0.00     0.274 HD
ENDBRANCH  20  21
ENDBRANCH  19  20
ENDBRANCH  18  19
ENDBRANCH  17  18
BRANCH  17  25
HETATM   25  C           1     -19.532  -9.042  -4.847  0.00  0.00     0.196 C 
HETATM   26  O           1     -18.412  -9.283  -4.346  0.00  0.00    -0.646 OA
HETATM   27  O           1     -19.960  -9.744  -5.788  0.00  0.00    -0.646 OA
ENDBRANCH  17  25
ENDBRANCH  14  17
ENDBRANCH   1  13
BRANCH   1  28
HETATM   28  N           1     -23.510  -5.116  -6.130  0.00  0.00    -0.066 N 
HETATM   29  H           1     -23.571  -4.123  -5.813  0.00  0.00     0.275 HD
HETATM   30  H           1     -23.730  -5.751  -5.330  0.00  0.00     0.275 HD
HETATM   31  H           1     -24.193  -5.279  -6.903  0.00  0.00     0.275 HD
ENDBRANCH   1  28
TORSDOF 10
ENDMDL
MODEL 3
REMARK VINA RESULT:      -7.6      2.840      8.211
REMARK  10 active torsions:
REMARK  status: ('A' for Active; 'I' for Inactive)
REMARK    1  A    between atoms: C_2  and  C_16 
REMARK    2  A    between atoms: C_2  and  C_9 
REMARK    3  A    between atoms: C_6  and  C_7 
REMARK    4  A    between atoms: C_7  and  C_8 
REMARK    5  A    between atoms: C_8  and  C_10 
REMARK    6  A    between atoms: C_8  and  N_23 
REMARK    7  A    between atoms: C_9  and  C_20 
REMARK       I    between atoms: C_10  and  N_15 
REMARK    8  A    between atoms: N_15  and  C_20 
REMARK    9  A    between atoms: C_16  and  N_17 
REMARK   10  A    between atoms: C_20  and  C_28 
ROOT
HETATM    1  C           1     -21.204  -5.316  -5.579  0.00  0.00     0.278 C 
ENDROOT
BRANCH   1   2
HETATM    2  C           1     -21.013  -5.678  -7.047  0.00  0.00     0.083 C 
BRANCH   2   3
HETATM    3  C           1     -21.965  -4.884  -7.885  0.00  0.00    -0.028 A 
HETATM    4  C           1     -23.232  -4.489  -7.521  0.00  0.00     0.096 A 
HETATM    5  N           1     -23.768  -3.785  -8.567  0.00  0.00    -0.365 N 
HETATM    6  C           1     -22.867  -3.715  -9.606  0.00  0.00     0.042 A 
HETATM    7  H           1     -24.727  -3.359  -8.575  0.00  0.00     0.165 HD
HETATM    8  C           1     -22.978  -3.104 -10.861  0.00  0.00     0.030 A 
HETATM    9  C           1     -21.721  -4.401  -9.201  0.00  0.00    -0.002 A 
HETATM   10  C           1     -21.883  -3.199 -11.725  0.00  0.00     0.002 A 
HETATM   11  C           1     -20.725  -3.878 -11.347  0.00  0.00     0.001 A 
HETATM   12  C           1     -20.631  -4.483 -10.089  0.00  0.00     0.014 A 
ENDBRANCH   2   3
ENDBRANCH   1   2
BRANCH   1  13
HETATM   13  C           1     -21.403  -6.575  -4.772  0.00  0.00     0.249 C 
HETATM   14  N           1     -21.177  -6.566  -3.422  0.00  0.00    -0.345 N 
HETATM   15  H           1     -20.874  -5.714  -2.966  0.00  0.00     0.163 HD
HETATM   16  O           1     -21.764  -7.591  -5.317  0.00  0.00    -0.271 OA
BRANCH  14  17
HETATM   17  C           1     -21.368  -7.775  -2.646  0.00  0.00     0.185 C 
BRANCH  17  18
HETATM   18  C           1     -20.013  -8.382  -2.306  0.00  0.00     0.038 C 
BRANCH  18  19
HETATM   19  C           1     -19.761  -9.593  -3.195  0.00  0.00     0.030 C 
BRANCH  19  20
HETATM   20  C           1     -18.627  -9.285  -4.163  0.00  0.00     0.230 C 
BRANCH  20  21
HETATM   21  N           1     -19.174  -9.170  -5.555  0.00  0.00    -0.079 N 
HETATM   22  H           1     -20.142  -9.566  -5.582  0.00  0.00     0.274 HD
HETATM   23  H           1     -18.563  -9.701  -6.216  0.00  0.00     0.274 HD
HETATM   24  H           1     -19.202  -8.164  -5.837  0.00  0.00     0.274 HD
ENDBRANCH  20  21
ENDBRANCH  19  20
ENDBRANCH  18  19
ENDBRANCH  17  18
BRANCH  17  25
HETATM   25  C           1     -22.103  -7.443  -1.371  0.00  0.00     0.196 C 
HETATM   26  O           1     -22.294  -8.330  -0.510  0.00  0.00    -0.646 OA
HETATM   27  O           1     -22.523  -6.282  -1.175  0.00  0.00    -0.646 OA
ENDBRANCH  17  25
ENDBRANCH  14  17
ENDBRANCH   1  13
BRANCH   1  28
HETATM   28  N           1     -19.988  -4.591  -5.081  0.00  0.00    -0.066 N 
HETATM   29  H           1     -19.846  -4.806  -4.069  0.00  0.00     0.275 HD
HETATM   30  H           1     -20.122  -3.562  -5.203  0.00  0.00     0.275 HD
HETATM   31  H           1     -19.151  -4.900  -5.625  0.00  0.00     0.275 HD
ENDBRANCH   1  28
TORSDOF 10
ENDMDL
MODEL 4
REMARK VINA RESULT:      -7.5      2.927      8.377
REMARK  10 active torsions:
REMARK  status: ('A' for Active; 'I' for Inactive)
REMARK    1  A    between atoms: C_2  and  C_16 
REMARK    2  A    between atoms: C_2  and  C_9 
REMARK    3  A    between atoms: C_6  and  C_7 
REMARK    4  A    between atoms: C_7  and  C_8 
REMARK    5  A    between atoms: C_8  and  C_10 
REMARK    6  A    between atoms: C_8  and  N_23 
REMARK    7  A    between atoms: C_9  and  C_20 
REMARK       I    between atoms: C_10  and  N_15 
REMARK    8  A    between atoms: N_15  and  C_20 
REMARK    9  A    between atoms: C_16  and  N_17 
REMARK   10  A    between atoms: C_20  and  C_28 
ROOT
HETATM    1  C           1     -20.746  -5.476  -6.118  0.00  0.00     0.278 C 
ENDROOT
BRANCH   1   2
HETATM    2  C           1     -20.519  -5.159  -7.591  0.00  0.00     0.083 C 
BRANCH   2   3
HETATM    3  C           1     -21.781  -4.616  -8.185  0.00  0.00    -0.028 A 
HETATM    4  C           1     -22.976  -4.433  -7.525  0.00  0.00     0.096 A 
HETATM    5  N           1     -23.874  -3.919  -8.422  0.00  0.00    -0.365 N 
HETATM    6  C           1     -23.282  -3.764  -9.655  0.00  0.00     0.042 A 
HETATM    7  H           1     -24.871  -3.676  -8.200  0.00  0.00     0.165 HD
HETATM    8  C           1     -23.810  -3.279 -10.858  0.00  0.00     0.030 A 
HETATM    9  C           1     -21.962  -4.197  -9.532  0.00  0.00    -0.002 A 
HETATM   10  C           1     -22.959  -3.238 -11.966  0.00  0.00     0.002 A 
HETATM   11  C           1     -21.635  -3.664 -11.873  0.00  0.00     0.001 A 
HETATM   12  C           1     -21.123  -4.146 -10.663  0.00  0.00     0.014 A 
ENDBRANCH   2   3
ENDBRANCH   1   2
BRANCH   1  13
HETATM   13  C           1     -20.163  -6.831  -5.800  0.00  0.00     0.249 C 
HETATM   14  N           1     -20.577  -7.510  -4.685  0.00  0.00    -0.345 N 
HETATM   15  H           1     -21.273  -7.101  -4.074  0.00  0.00     0.163 HD
HETATM   16  O           1     -19.333  -7.318  -6.529  0.00  0.00    -0.271 OA
BRANCH  14  17
HETATM   17  C           1     -20.018  -8.812  -4.379  0.00  0.00     0.185 C 
BRANCH  17  18
HETATM   18  C           1     -19.833  -8.943  -2.872  0.00  0.00     0.038 C 
BRANCH  18  19
HETATM   19  C           1     -20.469  -7.747  -2.175  0.00  0.00     0.030 C 
BRANCH  19  20
HETATM   20  C           1     -21.550  -8.233  -1.219  0.00  0.00     0.230 C 
BRANCH  20  21
HETATM   21  N           1     -22.325  -7.059  -0.701  0.00  0.00    -0.079 N 
HETATM   22  H           1     -22.839  -6.606  -1.491  0.00  0.00     0.274 HD
HETATM   23  H           1     -21.669  -6.367  -0.272  0.00  0.00     0.274 HD
HETATM   24  H           1     -23.010  -7.383   0.019  0.00  0.00     0.274 HD
ENDBRANCH  20  21
ENDBRANCH  19  20
ENDBRANCH  18  19
ENDBRANCH  17  18
BRANCH  17  25
HETATM   25  C           1     -20.955  -9.888  -4.865  0.00  0.00     0.196 C 
HETATM   26  O           1     -20.838 -10.343  -6.024  0.00  0.00    -0.646 OA
HETATM   27  O           1     -21.851 -10.326  -4.111  0.00  0.00    -0.646 OA
ENDBRANCH  17  25
ENDBRANCH  14  17
ENDBRANCH   1  13
BRANCH   1  28
HETATM   28  N           1     -20.075  -4.433  -5.274  0.00  0.00    -0.066 N 
HETATM   29  H           1     -19.936  -4.805  -4.308  0.00  0.00     0.275 HD
HETATM   30  H           1     -20.674  -3.579  -5.234  0.00  0.00     0.275 HD
HETATM   31  H           1     -19.149  -4.190  -5.692  0.00  0.00     0.275 HD
ENDBRANCH   1  28
TORSDOF 10
ENDMDL
MODEL 5
REMARK VINA RESULT:      -7.2      3.446      8.652
REMARK  10 active torsions:
REMARK  status: ('A' for Active; 'I' for Inactive)
REMARK    1  A    between atoms: C_2  and  C_16 
REMARK    2  A    between atoms: C_2  and  C_9 
REMARK    3  A    between atoms: C_6  and  C_7 
REMARK    4  A    between atoms: C_7  and  C_8 
REMARK    5  A    between atoms: C_8  and  C_10 
REMARK    6  A    between atoms: C_8  and  N_23 
REMARK    7  A    between atoms: C_9  and  C_20 
REMARK       I    between atoms: C_10  and  N_15 
REMARK    8  A    between atoms: N_15  and  C_20 
REMARK    9  A    between atoms: C_16  and  N_17 
REMARK   10  A    between atoms: C_20  and  C_28 
ROOT
HETATM    1  C           1     -21.342  -6.244  -5.575  0.00  0.00     0.278 C 
ENDROOT
BRANCH   1   2
HETATM    2  C           1     -20.876  -4.964  -6.259  0.00  0.00     0.083 C 
BRANCH   2   3
HETATM    3  C           1     -21.850  -4.589  -7.332  0.00  0.00    -0.028 A 
HETATM    4  C           1     -23.204  -4.396  -7.168  0.00  0.00     0.096 A 
HETATM    5  N           1     -23.730  -4.066  -8.389  0.00  0.00    -0.365 N 
HETATM    6  C           1     -22.738  -4.040  -9.344  0.00  0.00     0.042 A 
HETATM    7  H           1     -24.743  -3.861  -8.570  0.00  0.00     0.165 HD
HETATM    8  C           1     -22.808  -3.757 -10.714  0.00  0.00     0.030 A 
HETATM    9  C           1     -21.543  -4.367  -8.703  0.00  0.00    -0.002 A 
HETATM   10  C           1     -21.619  -3.809 -11.446  0.00  0.00     0.002 A 
HETATM   11  C           1     -20.410  -4.132 -10.832  0.00  0.00     0.001 A 
HETATM   12  C           1     -20.358  -4.414  -9.461  0.00  0.00     0.014 A 
ENDBRANCH   2   3
ENDBRANCH   1   2
BRANCH   1  13
HETATM   13  C           1     -20.227  -7.261  -5.598  0.00  0.00     0.249 C 
HETATM   14  N           1     -20.075  -8.133  -4.554  0.00  0.00    -0.345 N 
HETATM   15  H           1     -20.711  -8.095  -3.767  0.00  0.00     0.163 HD
HETATM   16  O           1     -19.470  -7.305  -6.537  0.00  0.00    -0.271 OA
BRANCH  14  17
HETATM   17  C           1     -19.005  -9.111  -4.575  0.00  0.00     0.185 C 
BRANCH  17  18
HETATM   18  C           1     -18.433  -9.269  -3.172  0.00  0.00     0.038 C 
BRANCH  18  19
HETATM   19  C           1     -16.955  -9.629  -3.264  0.00  0.00     0.030 C 
BRANCH  19  20
HETATM   20  C           1     -16.627 -10.692  -2.223  0.00  0.00     0.230 C 
BRANCH  20  21
HETATM   21  N           1     -17.468 -11.909  -2.469  0.00  0.00    -0.079 N 
HETATM   22  H           1     -18.222 -11.679  -3.157  0.00  0.00     0.274 HD
HETATM   23  H           1     -17.902 -12.222  -1.571  0.00  0.00     0.274 HD
HETATM   24  H           1     -16.870 -12.675  -2.853  0.00  0.00     0.274 HD
ENDBRANCH  20  21
ENDBRANCH  19  20
ENDBRANCH  18  19
ENDBRANCH  17  18
BRANCH  17  25
HETATM   25  C           1     -19.545 -10.438  -5.049  0.00  0.00     0.196 C 
HETATM   26  O           1     -19.584 -10.696  -6.272  0.00  0.00    -0.646 OA
HETATM   27  O           1     -19.955 -11.278  -4.219  0.00  0.00    -0.646 OA
ENDBRANCH  17  25
ENDBRANCH  14  17
ENDBRANCH   1  13
BRANCH   1  28
HETATM   28  N           1     -21.714  -5.942  -4.153  0.00  0.00    -0.066 N 
HETATM   29  H           1     -22.013  -6.823  -3.678  0.00  0.00     0.275 HD
HETATM   30  H           1     -22.500  -5.255  -4.137  0.00  0.00     0.275 HD
HETATM   31  H           1     -20.888  -5.540  -3.655  0.00  0.00     0.275 HD
ENDBRANCH   1  28
TORSDOF 10
ENDMDL
MODEL 6
REMARK VINA RESULT:      -7.1      2.200      3.338
REMARK  10 active torsions:
REMARK  status: ('A' for Active; 'I' for Inactive)
REMARK    1  A    between atoms: C_2  and  C_16 
REMARK    2  A    between atoms: C_2  and  C_9 
REMARK    3  A    between atoms: C_6  and  C_7 
REMARK    4  A    between atoms: C_7  and  C_8 
REMARK    5  A    between atoms: C_8  and  C_10 
REMARK    6  A    between atoms: C_8  and  N_23 
REMARK    7  A    between atoms: C_9  and  C_20 
REMARK       I    between atoms: C_10  and  N_15 
REMARK    8  A    between atoms: N_15  and  C_20 
REMARK    9  A    between atoms: C_16  and  N_17 
REMARK   10  A    between atoms: C_20  and  C_28 
ROOT
HETATM    1  C           1     -21.336  -7.559  -5.267  0.00  0.00     0.278 C 
ENDROOT
BRANCH   1   2
HETATM    2  C           1     -20.369  -7.212  -4.141  0.00  0.00     0.083 C 
BRANCH   2   3
HETATM    3  C           1     -21.129  -7.060  -2.861  0.00  0.00    -0.028 A 
HETATM    4  C           1     -21.925  -5.993  -2.510  0.00  0.00     0.096 A 
HETATM    5  N           1     -22.435  -6.243  -1.264  0.00  0.00    -0.365 N 
HETATM    6  C           1     -21.984  -7.458  -0.799  0.00  0.00     0.042 A 
HETATM    7  H           1     -23.080  -5.602  -0.739  0.00  0.00     0.165 HD
HETATM    8  C           1     -22.240  -8.116   0.410  0.00  0.00     0.030 A 
HETATM    9  C           1     -21.158  -7.993  -1.787  0.00  0.00    -0.002 A 
HETATM   10  C           1     -21.633  -9.359   0.610  0.00  0.00     0.002 A 
HETATM   11  C           1     -20.802  -9.919  -0.360  0.00  0.00     0.001 A 
HETATM   12  C           1     -20.556  -9.247  -1.563  0.00  0.00     0.014 A 
ENDBRANCH   2   3
ENDBRANCH   1   2
BRANCH   1  13
HETATM   13  C           1     -21.040  -6.696  -6.468  0.00  0.00     0.249 C 
HETATM   14  N           1     -21.979  -5.809  -6.922  0.00  0.00    -0.345 N 
HETATM   15  H           1     -22.872  -5.733  -6.451  0.00  0.00     0.163 HD
HETATM   16  O           1     -19.975  -6.787  -7.030  0.00  0.00    -0.271 OA
BRANCH  14  17
HETATM   17  C           1     -21.696  -4.979  -8.077  0.00  0.00     0.185 C 
BRANCH  17  18
HETATM   18  C           1     -23.002  -4.456  -8.659  0.00  0.00     0.038 C 
BRANCH  18  19
HETATM   19  C           1     -22.778  -4.023 -10.103  0.00  0.00     0.030 C 
BRANCH  19  20
HETATM   20  C           1     -24.046  -3.375 -10.641  0.00  0.00     0.230 C 
BRANCH  20  21
HETATM   21  N           1     -25.204  -3.731  -9.757  0.00  0.00    -0.079 N 
HETATM   22  H           1     -25.322  -2.994  -9.025  0.00  0.00     0.274 HD
HETATM   23  H           1     -25.023  -4.652  -9.297  0.00  0.00     0.274 HD
HETATM   24  H           1     -26.075  -3.794 -10.331  0.00  0.00     0.274 HD
ENDBRANCH  20  21
ENDBRANCH  19  20
ENDBRANCH  18  19
ENDBRANCH  17  18
BRANCH  17  25
HETATM   25  C           1     -20.831  -3.816  -7.659  0.00  0.00     0.196 C 
HETATM   26  O           1     -19.698  -3.666  -8.166  0.00  0.00    -0.646 OA
HETATM   27  O           1     -21.246  -3.002  -6.806  0.00  0.00    -0.646 OA
ENDBRANCH  17  25
ENDBRANCH  14  17
ENDBRANCH   1  13
BRANCH   1  28
HETATM   28  N           1     -21.172  -9.004  -5.637  0.00  0.00    -0.066 N 
HETATM   29  H           1     -20.554  -9.474  -4.939  0.00  0.00     0.275 HD
HETATM   30  H           1     -20.742  -9.074  -6.586  0.00  0.00     0.275 HD
HETATM   31  H           1     -22.108  -9.469  -5.643  0.00  0.00     0.275 HD
ENDBRANCH   1  28
TORSDOF 10
ENDMDL
MODEL 7
REMARK VINA RESULT:      -7.0      3.302      8.549
REMARK  10 active torsions:
REMARK  status: ('A' for Active; 'I' for Inactive)
REMARK    1  A    between atoms: C_2  and  C_16 
REMARK    2  A    between atoms: C_2  and  C_9 
REMARK    3  A    between atoms: C_6  and  C_7 
REMARK    4  A    between atoms: C_7  and  C_8 
REMARK    5  A    between atoms: C_8  and  C_10 
REMARK    6  A    between atoms: C_8  and  N_23 
REMARK    7  A    between atoms: C_9  and  C_20 
REMARK       I    between atoms: C_10  and  N_15 
REMARK    8  A    between atoms: N_15  and  C_20 
REMARK    9  A    between atoms: C_16  and  N_17 
REMARK   10  A    between atoms: C_20  and  C_28 
ROOT
HETATM    1  C           1     -21.641  -6.403  -5.626  0.00  0.00     0.278 C 
ENDROOT
BRANCH   1   2
HETATM    2  C           1     -20.921  -5.067  -5.756  0.00  0.00     0.083 C 
BRANCH   2   3
HETATM    3  C           1     -20.737  -4.738  -7.204  0.00  0.00    -0.028 A 
HETATM    4  C           1     -19.544  -4.736  -7.891  0.00  0.00     0.096 A 
HETATM    5  N           1     -19.807  -4.382  -9.188  0.00  0.00    -0.365 N 
HETATM    6  C           1     -21.155  -4.156  -9.355  0.00  0.00     0.042 A 
HETATM    7  H           1     -19.086  -4.298  -9.946  0.00  0.00     0.165 HD
HETATM    8  C           1     -21.875  -3.777 -10.495  0.00  0.00     0.030 A 
HETATM    9  C           1     -21.764  -4.373  -8.119  0.00  0.00    -0.002 A 
HETATM   10  C           1     -23.257  -3.618 -10.363  0.00  0.00     0.002 A 
HETATM   11  C           1     -23.892  -3.828  -9.141  0.00  0.00     0.001 A 
HETATM   12  C           1     -23.158  -4.206  -8.010  0.00  0.00     0.014 A 
ENDBRANCH   2   3
ENDBRANCH   1   2
BRANCH   1  13
HETATM   13  C           1     -20.806  -7.346  -4.795  0.00  0.00     0.249 C 
HETATM   14  N           1     -21.253  -7.756  -3.568  0.00  0.00    -0.345 N 
HETATM   15  H           1     -22.144  -7.425  -3.218  0.00  0.00     0.163 HD
HETATM   16  O           1     -19.744  -7.740  -5.213  0.00  0.00    -0.271 OA
BRANCH  14  17
HETATM   17  C           1     -20.451  -8.662  -2.769  0.00  0.00     0.185 C 
BRANCH  17  18
HETATM   18  C           1     -20.417  -8.173  -1.326  0.00  0.00     0.038 C 
BRANCH  18  19
HETATM   19  C           1     -21.751  -7.526  -0.977  0.00  0.00     0.030 C 
BRANCH  19  20
HETATM   20  C           1     -22.142  -7.905   0.445  0.00  0.00     0.230 C 
BRANCH  20  21
HETATM   21  N           1     -23.632  -8.039   0.536  0.00  0.00    -0.079 N 
HETATM   22  H           1     -24.064  -7.752  -0.372  0.00  0.00     0.274 HD
HETATM   23  H           1     -23.993  -7.424   1.301  0.00  0.00     0.274 HD
HETATM   24  H           1     -23.881  -9.033   0.741  0.00  0.00     0.274 HD
ENDBRANCH  20  21
ENDBRANCH  19  20
ENDBRANCH  18  19
ENDBRANCH  17  18
BRANCH  17  25
HETATM   25  C           1     -21.056 -10.043  -2.816  0.00  0.00     0.196 C 
HETATM   26  O           1     -20.393 -11.029  -2.426  0.00  0.00    -0.646 OA
HETATM   27  O           1     -22.218 -10.203  -3.247  0.00  0.00    -0.646 OA
ENDBRANCH  17  25
ENDBRANCH  14  17
ENDBRANCH   1  13
BRANCH   1  28
HETATM   28  N           1     -22.969  -6.192  -4.959  0.00  0.00    -0.066 N 
HETATM   29  H           1     -23.539  -5.524  -5.524  0.00  0.00     0.275 HD
HETATM   30  H           1     -22.820  -5.800  -4.003  0.00  0.00     0.275 HD
HETATM   31  H           1     -23.471  -7.106  -4.888  0.00  0.00     0.275 HD
ENDBRANCH   1  28
TORSDOF 10
ENDMDL
MODEL 8
REMARK VINA RESULT:      -6.9      2.804      8.467
REMARK  10 active torsions:
REMARK  status: ('A' for Active; 'I' for Inactive)
REMARK    1  A    between atoms: C_2  and  C_16 
REMARK    2  A    between atoms: C_2  and  C_9 
REMARK    3  A    between atoms: C_6  and  C_7 
REMARK    4  A    between atoms: C_7  and  C_8 
REMARK    5  A    between atoms: C_8  and  C_10 
REMARK    6  A    between atoms: C_8  and  N_23 
REMARK    7  A    between atoms: C_9  and  C_20 
REMARK       I    between atoms: C_10  and  N_15 
REMARK    8  A    between atoms: N_15  and  C_20 
REMARK    9  A    between atoms: C_16  and  N_17 
REMARK   10  A    between atoms: C_20  and  C_28 
ROOT
HETATM    1  C           1     -20.171  -6.042  -5.859  0.00  0.00     0.278 C 
ENDROOT
BRANCH   1   2
HETATM    2  C           1     -20.626  -4.590  -5.925  0.00  0.00     0.083 C 
BRANCH   2   3
HETATM    3  C           1     -21.650  -4.437  -7.006  0.00  0.00    -0.028 A 
HETATM    4  C           1     -23.016  -4.514  -6.847  0.00  0.00     0.096 A 
HETATM    5  N           1     -23.591  -4.319  -8.075  0.00  0.00    -0.365 N 
HETATM    6  C           1     -22.620  -4.115  -9.030  0.00  0.00     0.042 A 
HETATM    7  H           1     -24.624  -4.323  -8.261  0.00  0.00     0.165 HD
HETATM    8  C           1     -22.739  -3.878 -10.405  0.00  0.00     0.030 A 
HETATM    9  C           1     -21.387  -4.185  -8.381  0.00  0.00    -0.002 A 
HETATM   10  C           1     -21.559  -3.707 -11.135  0.00  0.00     0.002 A 
HETATM   11  C           1     -20.313  -3.772 -10.514  0.00  0.00     0.001 A 
HETATM   12  C           1     -20.212  -4.010  -9.138  0.00  0.00     0.014 A 
ENDBRANCH   2   3
ENDBRANCH   1   2
BRANCH   1  13
HETATM   13  C           1     -21.043  -6.798  -4.887  0.00  0.00     0.249 C 
HETATM   14  N           1     -20.735  -6.807  -3.553  0.00  0.00    -0.345 N 
HETATM   15  H           1     -19.920  -6.306  -3.220  0.00  0.00     0.163 HD
HETATM   16  O           1     -22.014  -7.396  -5.286  0.00  0.00    -0.271 OA
BRANCH  14  17
HETATM   17  C           1     -21.572  -7.533  -2.619  0.00  0.00     0.185 C 
BRANCH  17  18
HETATM   18  C           1     -20.726  -8.548  -1.861  0.00  0.00     0.038 C 
BRANCH  18  19
HETATM   19  C           1     -21.230  -9.954  -2.160  0.00  0.00     0.030 C 
BRANCH  19  20
HETATM   20  C           1     -22.120 -10.428  -1.019  0.00  0.00     0.230 C 
BRANCH  20  21
HETATM   21  N           1     -21.703  -9.754   0.254  0.00  0.00    -0.079 N 
HETATM   22  H           1     -22.515  -9.229   0.652  0.00  0.00     0.274 HD
HETATM   23  H           1     -20.922  -9.087   0.057  0.00  0.00     0.274 HD
HETATM   24  H           1     -21.383 -10.473   0.940  0.00  0.00     0.274 HD
ENDBRANCH  20  21
ENDBRANCH  19  20
ENDBRANCH  18  19
ENDBRANCH  17  18
BRANCH  17  25
HETATM   25  C           1     -22.191  -6.565  -1.641  0.00  0.00     0.196 C 
HETATM   26  O           1     -22.082  -5.333  -1.827  0.00  0.00    -0.646 OA
HETATM   27  O           1     -22.810  -6.994  -0.643  0.00  0.00    -0.646 OA
ENDBRANCH  17  25
ENDBRANCH  14  17
ENDBRANCH   1  13
BRANCH   1  28
HETATM   28  N           1     -20.284  -6.664  -7.220  0.00  0.00    -0.066 N 
HETATM   29  H           1     -20.898  -7.507  -7.166  0.00  0.00     0.275 HD
HETATM   30  H           1     -19.336  -6.945  -7.554  0.00  0.00     0.275 HD
HETATM   31  H           1     -20.698  -5.972  -7.885  0.00  0.00     0.275 HD
ENDBRANCH   1  28
TORSDOF 10
ENDMDL
MODEL 9
REMARK VINA RESULT:      -6.8      4.485      8.914
REMARK  10 active torsions:
REMARK  status: ('A' for Active; 'I' for Inactive)
REMARK    1  A    between atoms: C_2  and  C_16 
REMARK    2  A    between atoms: C_2  and  C_9 
REMARK    3  A    between atoms: C_6  and  C_7 
REMARK    4  A    between atoms: C_7  and  C_8 
REMARK    5  A    between atoms: C_8  and  C_10 
REMARK    6  A    between atoms: C_8  and  N_23 
REMARK    7  A    between atoms: C_9  and  C_20 
REMARK       I    between atoms: C_10  and  N_15 
REMARK    8  A    between atoms: N_15  and  C_20 
REMARK    9  A    between atoms: C_16  and  N_17 
REMARK   10  A    between atoms: C_20  and  C_28 
ROOT
HETATM    1  C           1     -19.607  -8.497  -3.675  0.00  0.00     0.278 C 
ENDROOT
BRANCH   1   2
HETATM    2  C           1     -20.215  -8.594  -5.069  0.00  0.00     0.083 C 
BRANCH   2   3
HETATM    3  C           1     -21.036  -7.373  -5.341  0.00  0.00    -0.028 A 
HETATM    4  C           1     -22.280  -7.098  -4.821  0.00  0.00     0.096 A 
HETATM    5  N           1     -22.683  -5.887  -5.316  0.00  0.00    -0.365 N 
HETATM    6  C           1     -21.719  -5.368  -6.151  0.00  0.00     0.042 A 
HETATM    7  H           1     -23.596  -5.420  -5.091  0.00  0.00     0.165 HD
HETATM    8  C           1     -21.696  -4.168  -6.873  0.00  0.00     0.030 A 
HETATM    9  C           1     -20.669  -6.286  -6.183  0.00  0.00    -0.002 A 
HETATM   10  C           1     -20.565  -3.903  -7.650  0.00  0.00     0.002 A 
HETATM   11  C           1     -19.501  -4.802  -7.701  0.00  0.00     0.001 A 
HETATM   12  C           1     -19.540  -5.998  -6.974  0.00  0.00     0.014 A 
ENDBRANCH   2   3
ENDBRANCH   1   2
BRANCH   1  13
HETATM   13  C           1     -20.592  -9.018  -2.659  0.00  0.00     0.249 C 
HETATM   14  N           1     -20.739  -8.379  -1.456  0.00  0.00    -0.345 N 
HETATM   15  H           1     -20.184  -7.558  -1.250  0.00  0.00     0.163 HD
HETATM   16  O           1     -21.254  -9.998  -2.906  0.00  0.00    -0.271 OA
BRANCH  14  17
HETATM   17  C           1     -21.686  -8.879  -0.479  0.00  0.00     0.185 C 
BRANCH  17  18
HETATM   18  C           1     -20.948  -9.246   0.802  0.00  0.00     0.038 C 
BRANCH  18  19
HETATM   19  C           1     -20.660 -10.742   0.812  0.00  0.00     0.030 C 
BRANCH  19  20
HETATM   20  C           1     -21.850 -11.491   0.227  0.00  0.00     0.230 C 
BRANCH  20  21
HETATM   21  N           1     -21.382 -12.386  -0.882  0.00  0.00    -0.079 N 
HETATM   22  H           1     -21.398 -13.380  -0.557  0.00  0.00     0.274 HD
HETATM   23  H           1     -20.407 -12.125  -1.154  0.00  0.00     0.274 HD
HETATM   24  H           1     -22.014 -12.278  -1.706  0.00  0.00     0.274 HD
ENDBRANCH  20  21
ENDBRANCH  19  20
ENDBRANCH  18  19
ENDBRANCH  17  18
BRANCH  17  25
HETATM   25  C           1     -22.710  -7.813  -0.181  0.00  0.00     0.196 C 
HETATM   26  O           1     -23.560  -7.996   0.717  0.00  0.00    -0.646 OA
HETATM   27  O           1     -22.711  -6.746  -0.833  0.00  0.00    -0.646 OA
ENDBRANCH  17  25
ENDBRANCH  14  17
ENDBRANCH   1  13
BRANCH   1  28
HETATM   28  N           1     -18.351  -9.317  -3.619  0.00  0.00    -0.066 N 
HETATM   29  H           1     -17.782  -9.139  -4.476  0.00  0.00     0.275 HD
HETATM   30  H           1     -18.599 -10.330  -3.571  0.00  0.00     0.275 HD
HETATM   31  H           1     -17.800  -9.052  -2.772  0.00  0.00     0.275 HD
ENDBRANCH   1  28
TORSDOF 10
ENDMDL
