MODEL 1
REMARK VINA RESULT:      -7.0      0.000      0.000
REMARK  15 active torsions:
REMARK  status: ('A' for Active; 'I' for Inactive)
REMARK    1  A    between atoms: C_10  and  C_34 
REMARK    2  A    between atoms: N_11  and  C_14 
REMARK       I    between atoms: N_12  and  C_25 
REMARK    3  A    between atoms: C_13  and  C_14 
REMARK    4  A    between atoms: C_13  and  C_33 
REMARK    5  A    between atoms: C_14  and  C_15 
REMARK       I    between atoms: C_15  and  N_17 
REMARK    6  A    between atoms: N_17  and  C_21 
REMARK    7  A    between atoms: C_20  and  C_21 
REMARK    8  A    between atoms: C_21  and  C_22 
REMARK    9  A    between atoms: C_22  and  C_23 
REMARK   10  A    between atoms: C_23  and  N_27 
REMARK   11  A    between atoms: C_24  and  C_33 
REMARK   12  A    between atoms: C_24  and  N_29 
REMARK       I    between atoms: C_25  and  N_26 
REMARK   13  A    between atoms: N_27  and  C_34 
REMARK   14  A    between atoms: C_34  and  C_35 
REMARK   15  A    between atoms: C_35  and  S_36 
ROOT
HETATM    1  C           1     -20.963  -5.198  -7.114  0.00  0.00     0.249 C 
HETATM    2  N           1     -21.690  -5.978  -6.255  0.00  0.00    -0.345 N 
HETATM    3  H           1     -22.655  -6.198  -6.465  0.00  0.00     0.163 HD
HETATM    4  O           1     -19.811  -4.935  -6.864  0.00  0.00    -0.271 OA
ENDROOT
BRANCH   1   5
HETATM    5  C           1     -21.602  -4.666  -8.374  0.00  0.00     0.274 C 
BRANCH   5   6
HETATM    6  N           1     -22.694  -3.703  -8.012  0.00  0.00    -0.067 N 
HETATM    7  H           1     -22.533  -3.342  -7.045  0.00  0.00     0.275 HD
HETATM    8  H           1     -23.617  -4.192  -8.053  0.00  0.00     0.275 HD
HETATM    9  H           1     -22.692  -2.905  -8.686  0.00  0.00     0.275 HD
ENDBRANCH   5   6
BRANCH   5  10
HETATM   10  C           1     -20.552  -3.950  -9.213  0.00  0.00     0.044 C 
BRANCH  10  11
HETATM   11  C           1     -20.695  -4.368 -10.670  0.00  0.00     0.023 C 
BRANCH  11  12
HETATM   12  C           1     -21.961  -3.755 -11.254  0.00  0.00     0.138 C 
BRANCH  12  13
HETATM   13  N           1     -21.851  -3.703 -12.719  0.00  0.00    -0.227 N 
HETATM   14  H           1     -21.091  -4.239 -13.207  0.00  0.00     0.177 HD
HETATM   15  C           1     -22.670  -3.011 -13.391  0.00  0.00     0.665 C 
HETATM   16  N           1     -23.611  -2.348 -12.786  0.00  0.00    -0.235 N 
HETATM   17  N           1     -22.576  -2.966 -14.653  0.00  0.00    -0.235 N 
HETATM   18  H           1     -23.689  -2.385 -11.745  0.00  0.00     0.174 HD
HETATM   19  H           1     -24.288  -1.777 -13.341  0.00  0.00     0.174 HD
HETATM   20  H           1     -21.816  -3.502 -15.142  0.00  0.00     0.174 HD
HETATM   21  H           1     -23.256  -2.393 -15.211  0.00  0.00     0.174 HD
ENDBRANCH  12  13
ENDBRANCH  11  12
ENDBRANCH  10  11
ENDBRANCH   5  10
ENDBRANCH   1   5
BRANCH   2  22
HETATM   22  C           1     -21.075  -6.489  -5.045  0.00  0.00     0.187 C 
BRANCH  22  23
HETATM   23  C           1     -20.577  -7.892  -5.288  0.00  0.00     0.196 C 
HETATM   24  O           1     -19.502  -8.272  -4.777  0.00  0.00    -0.646 OA
HETATM   25  O           1     -21.240  -8.675  -6.003  0.00  0.00    -0.646 OA
ENDBRANCH  22  23
BRANCH  22  26
HETATM   26  C           1     -22.104  -6.502  -3.922  0.00  0.00     0.066 C 
BRANCH  26  27
HETATM   27  C           1     -21.434  -6.101  -2.614  0.00  0.00     0.273 C 
BRANCH  27  28
HETATM   28  N           1     -22.275  -6.474  -1.510  0.00  0.00     0.099 N 
HETATM   29  H           1     -23.254  -6.359  -1.773  0.00  0.00     0.317 HD
BRANCH  28  30
HETATM   30  C           1     -22.018  -7.857  -1.210  0.00  0.00     0.329 C 
BRANCH  30  31
HETATM   31  C           1     -22.444  -8.151   0.208  0.00  0.00     0.208 C 
HETATM   32  O           1     -23.600  -8.566   0.440  0.00  0.00    -0.646 OA
HETATM   33  O           1     -21.641  -7.978   1.149  0.00  0.00    -0.646 OA
ENDBRANCH  30  31
BRANCH  30  34
HETATM   34  C           1     -20.531  -8.141  -1.364  0.00  0.00     0.117 C 
BRANCH  34  35
HETATM   35  S           1     -20.274  -9.925  -1.576  0.00  0.00    -0.180 SA
HETATM   36  H           1     -18.940  -9.897  -1.406  0.00  0.00     0.101 HD
ENDBRANCH  34  35
ENDBRANCH  30  34
ENDBRANCH  28  30
ENDBRANCH  27  28
ENDBRANCH  26  27
ENDBRANCH  22  26
ENDBRANCH   2  22
TORSDOF 15
ENDMDL
MODEL 2
REMARK VINA RESULT:      -6.8      3.738      8.710
REMARK  15 active torsions:
REMARK  status: ('A' for Active; 'I' for Inactive)
REMARK    1  A    between atoms: C_10  and  C_34 
REMARK    2  A    between atoms: N_11  and  C_14 
REMARK       I    between atoms: N_12  and  C_25 
REMARK    3  A    between atoms: C_13  and  C_14 
REMARK    4  A    between atoms: C_13  and  C_33 
REMARK    5  A    between atoms: C_14  and  C_15 
REMARK       I    between atoms: C_15  and  N_17 
REMARK    6  A    between atoms: N_17  and  C_21 
REMARK    7  A    between atoms: C_20  and  C_21 
REMARK    8  A    between atoms: C_21  and  C_22 
REMARK    9  A    between atoms: C_22  and  C_23 
REMARK   10  A    between atoms: C_23  and  N_27 
REMARK   11  A    between atoms: C_24  and  C_33 
REMARK   12  A    between atoms: C_24  and  N_29 
REMARK       I    between atoms: C_25  and  N_26 
REMARK   13  A    between atoms: N_27  and  C_34 
REMARK   14  A    between atoms: C_34  and  C_35 
REMARK   15  A    between atoms: C_35  and  S_36 
ROOT
HETATM    1  C           1     -21.454  -6.630  -4.270  0.00  0.00     0.249 C 
HETATM    2  N           1     -21.102  -5.527  -5.003  0.00  0.00    -0.345 N 
HETATM    3  H           1     -20.751  -4.701  -4.537  0.00  0.00     0.163 HD
HETATM    4  O           1     -21.872  -7.617  -4.827  0.00  0.00    -0.271 OA
ENDROOT
BRANCH   1   5
HETATM    5  C           1     -21.320  -6.611  -2.767  0.00  0.00     0.274 C 
BRANCH   5   6
HETATM    6  N           1     -22.448  -5.819  -2.175  0.00  0.00    -0.067 N 
HETATM    7  H           1     -23.216  -6.466  -1.890  0.00  0.00     0.275 HD
HETATM    8  H           1     -22.808  -5.142  -2.886  0.00  0.00     0.275 HD
HETATM    9  H           1     -22.104  -5.295  -1.339  0.00  0.00     0.275 HD
ENDBRANCH   5   6
BRANCH   5  10
HETATM   10  C           1     -21.368  -8.037  -2.235  0.00  0.00     0.044 C 
BRANCH  10  11
HETATM   11  C           1     -19.961  -8.488  -1.865  0.00  0.00     0.023 C 
BRANCH  11  12
HETATM   12  C           1     -19.632  -9.783  -2.595  0.00  0.00     0.138 C 
BRANCH  12  13
HETATM   13  N           1     -19.647  -9.545  -4.046  0.00  0.00    -0.227 N 
HETATM   14  H           1     -20.560  -9.420  -4.548  0.00  0.00     0.177 HD
HETATM   15  C           1     -18.558  -9.492  -4.689  0.00  0.00     0.665 C 
HETATM   16  N           1     -17.426  -9.647  -4.068  0.00  0.00    -0.235 N 
HETATM   17  N           1     -18.570  -9.287  -5.939  0.00  0.00    -0.235 N 
HETATM   18  H           1     -17.417  -9.816  -3.036  0.00  0.00     0.174 HD
HETATM   19  H           1     -16.528  -9.602  -4.599  0.00  0.00     0.174 HD
HETATM   20  H           1     -19.483  -9.162  -6.441  0.00  0.00     0.174 HD
HETATM   21  H           1     -17.667  -9.243  -6.473  0.00  0.00     0.174 HD
ENDBRANCH  12  13
ENDBRANCH  11  12
ENDBRANCH  10  11
ENDBRANCH   5  10
ENDBRANCH   1   5
BRANCH   2  22
HETATM   22  C           1     -21.231  -5.546  -6.447  0.00  0.00     0.187 C 
BRANCH  22  23
HETATM   23  C           1     -19.863  -5.662  -7.072  0.00  0.00     0.196 C 
HETATM   24  O           1     -19.336  -6.786  -7.220  0.00  0.00    -0.646 OA
HETATM   25  O           1     -19.256  -4.634  -7.442  0.00  0.00    -0.646 OA
ENDBRANCH  22  23
BRANCH  22  26
HETATM   26  C           1     -21.895  -4.257  -6.913  0.00  0.00     0.066 C 
BRANCH  26  27
HETATM   27  C           1     -22.774  -4.546  -8.122  0.00  0.00     0.273 C 
BRANCH  27  28
HETATM   28  N           1     -23.359  -3.321  -8.595  0.00  0.00     0.099 N 
HETATM   29  H           1     -22.859  -2.528  -8.192  0.00  0.00     0.317 HD
BRANCH  28  30
HETATM   30  C           1     -23.224  -3.295 -10.027  0.00  0.00     0.329 C 
BRANCH  30  31
HETATM   31  C           1     -24.594  -3.287 -10.659  0.00  0.00     0.208 C 
HETATM   32  O           1     -25.614  -3.231  -9.940  0.00  0.00    -0.646 OA
HETATM   33  O           1     -24.708  -3.336 -11.903  0.00  0.00    -0.646 OA
ENDBRANCH  30  31
BRANCH  30  34
HETATM   34  C           1     -22.459  -4.528 -10.486  0.00  0.00     0.117 C 
BRANCH  34  35
HETATM   35  S           1     -20.881  -4.021 -11.226  0.00  0.00    -0.180 SA
HETATM   36  H           1     -20.907  -2.759 -10.761  0.00  0.00     0.101 HD
ENDBRANCH  34  35
ENDBRANCH  30  34
ENDBRANCH  28  30
ENDBRANCH  27  28
ENDBRANCH  26  27
ENDBRANCH  22  26
ENDBRANCH   2  22
TORSDOF 15
ENDMDL
MODEL 3
REMARK VINA RESULT:      -6.6      2.546      4.645
REMARK  15 active torsions:
REMARK  status: ('A' for Active; 'I' for Inactive)
REMARK    1  A    between atoms: C_10  and  C_34 
REMARK    2  A    between atoms: N_11  and  C_14 
REMARK       I    between atoms: N_12  and  C_25 
REMARK    3  A    between atoms: C_13  and  C_14 
REMARK    4  A    between atoms: C_13  and  C_33 
REMARK    5  A    between atoms: C_14  and  C_15 
REMARK       I    between atoms: C_15  and  N_17 
REMARK    6  A    between atoms: N_17  and  C_21 
REMARK    7  A    between atoms: C_20  and  C_21 
REMARK    8  A    between atoms: C_21  and  C_22 
REMARK    9  A    between atoms: C_22  and  C_23 
REMARK   10  A    between atoms: C_23  and  N_27 
REMARK   11  A    between atoms: C_24  and  C_33 
REMARK   12  A    between atoms: C_24  and  N_29 
REMARK       I    between atoms: C_25  and  N_26 
REMARK   13  A    between atoms: N_27  and  C_34 
REMARK   14  A    between atoms: C_34  and  C_35 
REMARK   15  A    between atoms: C_35  and  S_36 
ROOT
HETATM    1  C           1     -21.219  -6.788  -5.071  0.00  0.00     0.249 C 
HETATM    2  N           1     -21.039  -6.516  -3.740  0.00  0.00    -0.345 N 
HETATM    3  H           1     -20.663  -5.622  -3.453  0.00  0.00     0.163 HD
HETATM    4  O           1     -21.669  -7.856  -5.414  0.00  0.00    -0.271 OA
ENDROOT
BRANCH   1   5
HETATM    5  C           1     -20.854  -5.754  -6.108  0.00  0.00     0.274 C 
BRANCH   5   6
HETATM    6  N           1     -20.083  -6.409  -7.215  0.00  0.00    -0.067 N 
HETATM    7  H           1     -19.113  -6.023  -7.240  0.00  0.00     0.275 HD
HETATM    8  H           1     -20.557  -6.219  -8.128  0.00  0.00     0.275 HD
HETATM    9  H           1     -20.045  -7.440  -7.052  0.00  0.00     0.275 HD
ENDBRANCH   5   6
BRANCH   5  10
HETATM   10  C           1     -22.123  -5.131  -6.672  0.00  0.00     0.044 C 
BRANCH  10  11
HETATM   11  C           1     -21.786  -3.799  -7.328  0.00  0.00     0.023 C 
BRANCH  11  12
HETATM   12  C           1     -22.369  -3.762  -8.735  0.00  0.00     0.138 C 
BRANCH  12  13
HETATM   13  N           1     -23.833  -3.655  -8.656  0.00  0.00    -0.227 N 
HETATM   14  H           1     -24.307  -3.607  -7.720  0.00  0.00     0.177 HD
HETATM   15  C           1     -24.523  -3.620  -9.717  0.00  0.00     0.665 C 
HETATM   16  N           1     -23.937  -3.679 -10.876  0.00  0.00    -0.235 N 
HETATM   17  N           1     -25.784  -3.528  -9.650  0.00  0.00    -0.235 N 
HETATM   18  H           1     -22.896  -3.755 -10.931  0.00  0.00     0.174 HD
HETATM   19  H           1     -24.506  -3.651 -11.752  0.00  0.00     0.174 HD
HETATM   20  H           1     -26.258  -3.481  -8.714  0.00  0.00     0.174 HD
HETATM   21  H           1     -26.357  -3.500 -10.530  0.00  0.00     0.174 HD
ENDBRANCH  12  13
ENDBRANCH  11  12
ENDBRANCH  10  11
ENDBRANCH   5  10
ENDBRANCH   1   5
BRANCH   2  22
HETATM   22  C           1     -21.390  -7.510  -2.744  0.00  0.00     0.187 C 
BRANCH  22  23
HETATM   23  C           1     -22.137  -6.846  -1.614  0.00  0.00     0.196 C 
HETATM   24  O           1     -22.440  -5.636  -1.690  0.00  0.00    -0.646 OA
HETATM   25  O           1     -22.452  -7.506  -0.600  0.00  0.00    -0.646 OA
ENDBRANCH  22  23
BRANCH  22  26
HETATM   26  C           1     -20.121  -8.156  -2.205  0.00  0.00     0.066 C 
BRANCH  26  27
HETATM   27  C           1     -20.210  -9.667  -2.371  0.00  0.00     0.273 C 
BRANCH  27  28
HETATM   28  N           1     -20.112 -10.003  -3.766  0.00  0.00     0.099 N 
HETATM   29  H           1     -20.783  -9.449  -4.297  0.00  0.00     0.317 HD
BRANCH  28  30
HETATM   30  C           1     -18.778  -9.685  -4.200  0.00  0.00     0.329 C 
BRANCH  30  31
HETATM   31  C           1     -18.715  -9.742  -5.707  0.00  0.00     0.208 C 
HETATM   32  O           1     -18.987 -10.805  -6.305  0.00  0.00    -0.646 OA
HETATM   33  O           1     -18.390  -8.724  -6.357  0.00  0.00    -0.646 OA
ENDBRANCH  30  31
BRANCH  30  34
HETATM   34  C           1     -17.800 -10.692  -3.612  0.00  0.00     0.117 C 
BRANCH  34  35
HETATM   35  S           1     -16.106 -10.066  -3.789  0.00  0.00    -0.180 SA
HETATM   36  H           1     -16.012 -10.285  -5.113  0.00  0.00     0.101 HD
ENDBRANCH  34  35
ENDBRANCH  30  34
ENDBRANCH  28  30
ENDBRANCH  27  28
ENDBRANCH  26  27
ENDBRANCH  22  26
ENDBRANCH   2  22
TORSDOF 15
ENDMDL
MODEL 4
REMARK VINA RESULT:      -6.5      3.915      9.047
REMARK  15 active torsions:
REMARK  status: ('A' for Active; 'I' for Inactive)
REMARK    1  A    between atoms: C_10  and  C_34 
REMARK    2  A    between atoms: N_11  and  C_14 
REMARK       I    between atoms: N_12  and  C_25 
REMARK    3  A    between atoms: C_13  and  C_14 
REMARK    4  A    between atoms: C_13  and  C_33 
REMARK    5  A    between atoms: C_14  and  C_15 
REMARK       I    between atoms: C_15  and  N_17 
REMARK    6  A    between atoms: N_17  and  C_21 
REMARK    7  A    between atoms: C_20  and  C_21 
REMARK    8  A    between atoms: C_21  and  C_22 
REMARK    9  A    between atoms: C_22  and  C_23 
REMARK   10  A    between atoms: C_23  and  N_27 
REMARK   11  A    between atoms: C_24  and  C_33 
REMARK   12  A    between atoms: C_24  and  N_29 
REMARK       I    between atoms: C_25  and  N_26 
REMARK   13  A    between atoms: N_27  and  C_34 
REMARK   14  A    between atoms: C_34  and  C_35 
REMARK   15  A    between atoms: C_35  and  S_36 
ROOT
HETATM    1  C           1     -21.408  -6.379  -4.101  0.00  0.00     0.249 C 
HETATM    2  N           1     -20.916  -5.384  -4.903  0.00  0.00    -0.345 N 
HETATM    3  H           1     -20.404  -4.612  -4.495  0.00  0.00     0.163 HD
HETATM    4  O           1     -22.019  -7.301  -4.588  0.00  0.00    -0.271 OA
ENDROOT
BRANCH   1   5
HETATM    5  C           1     -21.188  -6.324  -2.609  0.00  0.00     0.274 C 
BRANCH   5   6
HETATM    6  N           1     -22.461  -5.913  -1.931  0.00  0.00    -0.067 N 
HETATM    7  H           1     -22.625  -6.522  -1.098  0.00  0.00     0.275 HD
HETATM    8  H           1     -23.259  -6.013  -2.599  0.00  0.00     0.275 HD
HETATM    9  H           1     -22.387  -4.917  -1.625  0.00  0.00     0.275 HD
ENDBRANCH   5   6
BRANCH   5  10
HETATM   10  C           1     -20.766  -7.698  -2.106  0.00  0.00     0.044 C 
BRANCH  10  11
HETATM   11  C           1     -21.718  -8.151  -1.007  0.00  0.00     0.023 C 
BRANCH  11  12
HETATM   12  C           1     -22.177  -9.576  -1.286  0.00  0.00     0.138 C 
BRANCH  12  13
HETATM   13  N           1     -21.954  -9.894  -2.704  0.00  0.00    -0.227 N 
HETATM   14  H           1     -21.473  -9.200  -3.328  0.00  0.00     0.177 HD
HETATM   15  C           1     -22.343 -11.004  -3.172  0.00  0.00     0.665 C 
HETATM   16  N           1     -22.939 -11.863  -2.398  0.00  0.00    -0.235 N 
HETATM   17  N           1     -22.152 -11.279  -4.393  0.00  0.00    -0.235 N 
HETATM   18  H           1     -23.097 -11.636  -1.390  0.00  0.00     0.174 HD
HETATM   19  H           1     -23.260 -12.780  -2.784  0.00  0.00     0.174 HD
HETATM   20  H           1     -21.671 -10.585  -5.017  0.00  0.00     0.174 HD
HETATM   21  H           1     -22.474 -12.200  -4.781  0.00  0.00     0.174 HD
ENDBRANCH  12  13
ENDBRANCH  11  12
ENDBRANCH  10  11
ENDBRANCH   5  10
ENDBRANCH   1   5
BRANCH   2  22
HETATM   22  C           1     -21.128  -5.437  -6.336  0.00  0.00     0.187 C 
BRANCH  22  23
HETATM   23  C           1     -19.859  -5.888  -7.015  0.00  0.00     0.196 C 
HETATM   24  O           1     -19.423  -7.043  -6.823  0.00  0.00    -0.646 OA
HETATM   25  O           1     -19.241  -5.105  -7.769  0.00  0.00    -0.646 OA
ENDBRANCH  22  23
BRANCH  22  26
HETATM   26  C           1     -21.512  -4.053  -6.843  0.00  0.00     0.066 C 
BRANCH  26  27
HETATM   27  C           1     -22.684  -4.173  -7.808  0.00  0.00     0.273 C 
BRANCH  27  28
HETATM   28  N           1     -22.193  -4.466  -9.127  0.00  0.00     0.099 N 
HETATM   29  H           1     -22.391  -5.441  -9.354  0.00  0.00     0.317 HD
BRANCH  28  30
HETATM   30  C           1     -22.882  -3.608 -10.052  0.00  0.00     0.329 C 
BRANCH  30  31
HETATM   31  C           1     -24.371  -3.799  -9.899  0.00  0.00     0.208 C 
HETATM   32  O           1     -24.875  -4.932 -10.049  0.00  0.00    -0.646 OA
HETATM   33  O           1     -25.100  -2.822  -9.621  0.00  0.00    -0.646 OA
ENDBRANCH  30  31
BRANCH  30  34
HETATM   34  C           1     -22.468  -3.959 -11.474  0.00  0.00     0.117 C 
BRANCH  34  35
HETATM   35  S           1     -23.161  -2.740 -12.626  0.00  0.00    -0.180 SA
HETATM   36  H           1     -22.352  -3.044 -13.657  0.00  0.00     0.101 HD
ENDBRANCH  34  35
ENDBRANCH  30  34
ENDBRANCH  28  30
ENDBRANCH  27  28
ENDBRANCH  26  27
ENDBRANCH  22  26
ENDBRANCH   2  22
TORSDOF 15
ENDMDL
MODEL 5
REMARK VINA RESULT:      -6.5      1.504      1.913
REMARK  15 active torsions:
REMARK  status: ('A' for Active; 'I' for Inactive)
REMARK    1  A    between atoms: C_10  and  C_34 
REMARK    2  A    between atoms: N_11  and  C_14 
REMARK       I    between atoms: N_12  and  C_25 
REMARK    3  A    between atoms: C_13  and  C_14 
REMARK    4  A    between atoms: C_13  and  C_33 
REMARK    5  A    between atoms: C_14  and  C_15 
REMARK       I    between atoms: C_15  and  N_17 
REMARK    6  A    between atoms: N_17  and  C_21 
REMARK    7  A    between atoms: C_20  and  C_21 
REMARK    8  A    between atoms: C_21  and  C_22 
REMARK    9  A    between atoms: C_22  and  C_23 
REMARK   10  A    between atoms: C_23  and  N_27 
REMARK   11  A    between atoms: C_24  and  C_33 
REMARK   12  A    between atoms: C_24  and  N_29 
REMARK       I    between atoms: C_25  and  N_26 
REMARK   13  A    between atoms: N_27  and  C_34 
REMARK   14  A    between atoms: C_34  and  C_35 
REMARK   15  A    between atoms: C_35  and  S_36 
ROOT
HETATM    1  C           1     -21.280  -5.463  -6.118  0.00  0.00     0.249 C 
HETATM    2  N           1     -21.360  -6.796  -5.810  0.00  0.00    -0.345 N 
HETATM    3  H           1     -21.926  -7.413  -6.378  0.00  0.00     0.163 HD
HETATM    4  O           1     -20.604  -4.726  -5.441  0.00  0.00    -0.271 OA
ENDROOT
BRANCH   1   5
HETATM    5  C           1     -22.038  -4.916  -7.303  0.00  0.00     0.274 C 
BRANCH   5   6
HETATM    6  N           1     -23.429  -4.548  -6.880  0.00  0.00    -0.067 N 
HETATM    7  H           1     -23.546  -4.741  -5.861  0.00  0.00     0.275 HD
HETATM    8  H           1     -24.119  -5.114  -7.425  0.00  0.00     0.275 HD
HETATM    9  H           1     -23.591  -3.532  -7.064  0.00  0.00     0.275 HD
ENDBRANCH   5   6
BRANCH   5  10
HETATM   10  C           1     -21.325  -3.680  -7.835  0.00  0.00     0.044 C 
BRANCH  10  11
HETATM   11  C           1     -20.274  -4.100  -8.854  0.00  0.00     0.023 C 
BRANCH  11  12
HETATM   12  C           1     -20.953  -4.451 -10.171  0.00  0.00     0.138 C 
BRANCH  12  13
HETATM   13  N           1     -21.922  -3.401 -10.518  0.00  0.00    -0.227 N 
HETATM   14  H           1     -22.361  -2.820  -9.761  0.00  0.00     0.177 HD
HETATM   15  C           1     -22.228  -3.197 -11.730  0.00  0.00     0.665 C 
HETATM   16  N           1     -21.685  -3.916 -12.667  0.00  0.00    -0.235 N 
HETATM   17  N           1     -23.062  -2.293 -12.030  0.00  0.00    -0.235 N 
HETATM   18  H           1     -20.996  -4.663 -12.420  0.00  0.00     0.174 HD
HETATM   19  H           1     -21.937  -3.749 -13.667  0.00  0.00     0.174 HD
HETATM   20  H           1     -23.501  -1.713 -11.272  0.00  0.00     0.174 HD
HETATM   21  H           1     -23.316  -2.125 -13.034  0.00  0.00     0.174 HD
ENDBRANCH  12  13
ENDBRANCH  11  12
ENDBRANCH  10  11
ENDBRANCH   5  10
ENDBRANCH   1   5
BRANCH   2  22
HETATM   22  C           1     -20.633  -7.321  -4.671  0.00  0.00     0.187 C 
BRANCH  22  23
HETATM   23  C           1     -19.887  -8.566  -5.082  0.00  0.00     0.196 C 
HETATM   24  O           1     -20.039  -9.627  -4.440  0.00  0.00    -0.646 OA
HETATM   25  O           1     -19.116  -8.536  -6.065  0.00  0.00    -0.646 OA
ENDBRANCH  22  23
BRANCH  22  26
HETATM   26  C           1     -21.614  -7.661  -3.557  0.00  0.00     0.066 C 
BRANCH  26  27
HETATM   27  C           1     -20.972  -7.365  -2.207  0.00  0.00     0.273 C 
BRANCH  27  28
HETATM   28  N           1     -20.782  -8.595  -1.487  0.00  0.00     0.099 N 
HETATM   29  H           1     -20.140  -8.438  -0.710  0.00  0.00     0.317 HD
BRANCH  28  30
HETATM   30  C           1     -22.062  -9.005  -0.975  0.00  0.00     0.329 C 
BRANCH  30  31
HETATM   31  C           1     -22.406  -8.176   0.239  0.00  0.00     0.208 C 
HETATM   32  O           1     -21.631  -8.153   1.219  0.00  0.00    -0.646 OA
HETATM   33  O           1     -23.466  -7.514   0.263  0.00  0.00    -0.646 OA
ENDBRANCH  30  31
BRANCH  30  34
HETATM   34  C           1     -22.006 -10.476  -0.588  0.00  0.00     0.117 C 
BRANCH  34  35
HETATM   35  S           1     -23.693 -11.130  -0.447  0.00  0.00    -0.180 SA
HETATM   36  H           1     -23.706 -11.197   0.897  0.00  0.00     0.101 HD
ENDBRANCH  34  35
ENDBRANCH  30  34
ENDBRANCH  28  30
ENDBRANCH  27  28
ENDBRANCH  26  27
ENDBRANCH  22  26
ENDBRANCH   2  22
TORSDOF 15
ENDMDL
MODEL 6
REMARK VINA RESULT:      -6.5      2.420      3.104
REMARK  15 active torsions:
REMARK  status: ('A' for Active; 'I' for Inactive)
REMARK    1  A    between atoms: C_10  and  C_34 
REMARK    2  A    between atoms: N_11  and  C_14 
REMARK       I    between atoms: N_12  and  C_25 
REMARK    3  A    between atoms: C_13  and  C_14 
REMARK    4  A    between atoms: C_13  and  C_33 
REMARK    5  A    between atoms: C_14  and  C_15 
REMARK       I    between atoms: C_15  and  N_17 
REMARK    6  A    between atoms: N_17  and  C_21 
REMARK    7  A    between atoms: C_20  and  C_21 
REMARK    8  A    between atoms: C_21  and  C_22 
REMARK    9  A    between atoms: C_22  and  C_23 
REMARK   10  A    between atoms: C_23  and  N_27 
REMARK   11  A    between atoms: C_24  and  C_33 
REMARK   12  A    between atoms: C_24  and  N_29 
REMARK       I    between atoms: C_25  and  N_26 
REMARK   13  A    between atoms: N_27  and  C_34 
REMARK   14  A    between atoms: C_34  and  C_35 
REMARK   15  A    between atoms: C_35  and  S_36 
ROOT
HETATM    1  C           1     -21.271  -5.889  -5.583  0.00  0.00     0.249 C 
HETATM    2  N           1     -20.683  -6.816  -4.764  0.00  0.00    -0.345 N 
HETATM    3  H           1     -19.679  -6.940  -4.780  0.00  0.00     0.163 HD
HETATM    4  O           1     -22.470  -5.740  -5.563  0.00  0.00    -0.271 OA
ENDROOT
BRANCH   1   5
HETATM    5  C           1     -20.422  -5.054  -6.510  0.00  0.00     0.274 C 
BRANCH   5   6
HETATM    6  N           1     -19.997  -5.886  -7.683  0.00  0.00    -0.067 N 
HETATM    7  H           1     -20.744  -5.866  -8.413  0.00  0.00     0.275 HD
HETATM    8  H           1     -19.840  -6.871  -7.372  0.00  0.00     0.275 HD
HETATM    9  H           1     -19.111  -5.501  -8.081  0.00  0.00     0.275 HD
ENDBRANCH   5   6
BRANCH   5  10
HETATM   10  C           1     -21.230  -3.859  -7.000  0.00  0.00     0.044 C 
BRANCH  10  11
HETATM   11  C           1     -21.499  -4.006  -8.492  0.00  0.00     0.023 C 
BRANCH  11  12
HETATM   12  C           1     -23.001  -4.030  -8.739  0.00  0.00     0.138 C 
BRANCH  12  13
HETATM   13  N           1     -23.272  -3.707 -10.148  0.00  0.00    -0.227 N 
HETATM   14  H           1     -22.478  -3.640 -10.832  0.00  0.00     0.177 HD
HETATM   15  C           1     -24.461  -3.510 -10.534  0.00  0.00     0.665 C 
HETATM   16  N           1     -25.443  -3.593  -9.686  0.00  0.00    -0.235 N 
HETATM   17  N           1     -24.695  -3.232 -11.748  0.00  0.00    -0.235 N 
HETATM   18  H           1     -25.250  -3.822  -8.685  0.00  0.00     0.174 HD
HETATM   19  H           1     -26.424  -3.430 -10.005  0.00  0.00     0.174 HD
HETATM   20  H           1     -23.901  -3.164 -12.432  0.00  0.00     0.174 HD
HETATM   21  H           1     -25.680  -3.067 -12.069  0.00  0.00     0.174 HD
ENDBRANCH  12  13
ENDBRANCH  11  12
ENDBRANCH  10  11
ENDBRANCH   5  10
ENDBRANCH   1   5
BRANCH   2  22
HETATM   22  C           1     -21.499  -7.618  -3.874  0.00  0.00     0.187 C 
BRANCH  22  23
HETATM   23  C           1     -21.526  -6.981  -2.507  0.00  0.00     0.196 C 
HETATM   24  O           1     -22.370  -6.097  -2.245  0.00  0.00    -0.646 OA
HETATM   25  O           1     -20.704  -7.336  -1.635  0.00  0.00    -0.646 OA
ENDBRANCH  22  23
BRANCH  22  26
HETATM   26  C           1     -20.909  -9.018  -3.770  0.00  0.00     0.066 C 
BRANCH  26  27
HETATM   27  C           1     -22.008 -10.007  -3.403  0.00  0.00     0.273 C 
BRANCH  27  28
HETATM   28  N           1     -21.797 -10.485  -2.064  0.00  0.00     0.099 N 
HETATM   29  H           1     -21.036  -9.960  -1.632  0.00  0.00     0.317 HD
BRANCH  28  30
HETATM   30  C           1     -23.010 -10.266  -1.324  0.00  0.00     0.329 C 
BRANCH  30  31
HETATM   31  C           1     -22.694  -9.521  -0.051  0.00  0.00     0.208 C 
HETATM   32  O           1     -23.508  -8.690   0.405  0.00  0.00    -0.646 OA
HETATM   33  O           1     -21.618  -9.735   0.548  0.00  0.00    -0.646 OA
ENDBRANCH  30  31
BRANCH  30  34
HETATM   34  C           1     -23.645 -11.608  -0.985  0.00  0.00     0.117 C 
BRANCH  34  35
HETATM   35  S           1     -22.404 -12.922  -1.143  0.00  0.00    -0.180 SA
HETATM   36  H           1     -21.529 -12.397  -0.266  0.00  0.00     0.101 HD
ENDBRANCH  34  35
ENDBRANCH  30  34
ENDBRANCH  28  30
ENDBRANCH  27  28
ENDBRANCH  26  27
ENDBRANCH  22  26
ENDBRANCH   2  22
TORSDOF 15
ENDMDL
MODEL 7
REMARK VINA RESULT:      -6.4      2.959      4.348
REMARK  15 active torsions:
REMARK  status: ('A' for Active; 'I' for Inactive)
REMARK    1  A    between atoms: C_10  and  C_34 
REMARK    2  A    between atoms: N_11  and  C_14 
REMARK       I    between atoms: N_12  and  C_25 
REMARK    3  A    between atoms: C_13  and  C_14 
REMARK    4  A    between atoms: C_13  and  C_33 
REMARK    5  A    between atoms: C_14  and  C_15 
REMARK       I    between atoms: C_15  and  N_17 
REMARK    6  A    between atoms: N_17  and  C_21 
REMARK    7  A    between atoms: C_20  and  C_21 
REMARK    8  A    between atoms: C_21  and  C_22 
REMARK    9  A    between atoms: C_22  and  C_23 
REMARK   10  A    between atoms: C_23  and  N_27 
REMARK   11  A    between atoms: C_24  and  C_33 
REMARK   12  A    between atoms: C_24  and  N_29 
REMARK       I    between atoms: C_25  and  N_26 
REMARK   13  A    between atoms: N_27  and  C_34 
REMARK   14  A    between atoms: C_34  and  C_35 
REMARK   15  A    between atoms: C_35  and  S_36 
ROOT
HETATM    1  C           1     -21.340  -5.704  -5.660  0.00  0.00     0.249 C 
HETATM    2  N           1     -20.775  -6.617  -4.809  0.00  0.00    -0.345 N 
HETATM    3  H           1     -19.770  -6.736  -4.790  0.00  0.00     0.163 HD
HETATM    4  O           1     -22.539  -5.561  -5.682  0.00  0.00    -0.271 OA
ENDROOT
BRANCH   1   5
HETATM    5  C           1     -20.464  -4.877  -6.569  0.00  0.00     0.274 C 
BRANCH   5   6
HETATM    6  N           1     -19.904  -5.749  -7.652  0.00  0.00    -0.067 N 
HETATM    7  H           1     -20.645  -6.402  -7.993  0.00  0.00     0.275 HD
HETATM    8  H           1     -19.100  -6.301  -7.274  0.00  0.00     0.275 HD
HETATM    9  H           1     -19.573  -5.153  -8.444  0.00  0.00     0.275 HD
ENDBRANCH   5   6
BRANCH   5  10
HETATM   10  C           1     -21.291  -3.760  -7.193  0.00  0.00     0.044 C 
BRANCH  10  11
HETATM   11  C           1     -21.492  -4.045  -8.675  0.00  0.00     0.023 C 
BRANCH  11  12
HETATM   12  C           1     -22.970  -4.283  -8.953  0.00  0.00     0.138 C 
BRANCH  12  13
HETATM   13  N           1     -23.279  -3.890 -10.335  0.00  0.00    -0.227 N 
HETATM   14  H           1     -22.525  -3.909 -11.067  0.00  0.00     0.177 HD
HETATM   15  C           1     -24.452  -3.529 -10.644  0.00  0.00     0.665 C 
HETATM   16  N           1     -25.385  -3.506  -9.738  0.00  0.00    -0.235 N 
HETATM   17  N           1     -24.719  -3.191 -11.835  0.00  0.00    -0.235 N 
HETATM   18  H           1     -25.164  -3.785  -8.755  0.00  0.00     0.174 HD
HETATM   19  H           1     -26.353  -3.208  -9.992  0.00  0.00     0.174 HD
HETATM   20  H           1     -23.965  -3.210 -12.566  0.00  0.00     0.174 HD
HETATM   21  H           1     -25.691  -2.891 -12.091  0.00  0.00     0.174 HD
ENDBRANCH  12  13
ENDBRANCH  11  12
ENDBRANCH  10  11
ENDBRANCH   5  10
ENDBRANCH   1   5
BRANCH   2  22
HETATM   22  C           1     -21.617  -7.411  -3.936  0.00  0.00     0.187 C 
BRANCH  22  23
HETATM   23  C           1     -21.546  -6.861  -2.533  0.00  0.00     0.196 C 
HETATM   24  O           1     -20.783  -7.385  -1.693  0.00  0.00    -0.646 OA
HETATM   25  O           1     -22.251  -5.881  -2.210  0.00  0.00    -0.646 OA
ENDBRANCH  22  23
BRANCH  22  26
HETATM   26  C           1     -21.131  -8.855  -3.941  0.00  0.00     0.066 C 
BRANCH  26  27
HETATM   27  C           1     -19.741  -8.921  -4.559  0.00  0.00     0.273 C 
BRANCH  27  28
HETATM   28  N           1     -18.786  -9.303  -3.555  0.00  0.00     0.099 N 
HETATM   29  H           1     -19.268  -9.777  -2.790  0.00  0.00     0.317 HD
BRANCH  28  30
HETATM   30  C           1     -17.848 -10.208  -4.163  0.00  0.00     0.329 C 
BRANCH  30  31
HETATM   31  C           1     -16.443  -9.713  -3.918  0.00  0.00     0.208 C 
HETATM   32  O           1     -15.614  -9.701  -4.852  0.00  0.00    -0.646 OA
HETATM   33  O           1     -16.111  -9.315  -2.781  0.00  0.00    -0.646 OA
ENDBRANCH  30  31
BRANCH  30  34
HETATM   34  C           1     -18.110 -10.277  -5.661  0.00  0.00     0.117 C 
BRANCH  34  35
HETATM   35  S           1     -18.130 -12.013  -6.192  0.00  0.00    -0.180 SA
HETATM   36  H           1     -19.462 -12.175  -6.092  0.00  0.00     0.101 HD
ENDBRANCH  34  35
ENDBRANCH  30  34
ENDBRANCH  28  30
ENDBRANCH  27  28
ENDBRANCH  26  27
ENDBRANCH  22  26
ENDBRANCH   2  22
TORSDOF 15
ENDMDL
MODEL 8
REMARK VINA RESULT:      -6.4      2.024      2.530
REMARK  15 active torsions:
REMARK  status: ('A' for Active; 'I' for Inactive)
REMARK    1  A    between atoms: C_10  and  C_34 
REMARK    2  A    between atoms: N_11  and  C_14 
REMARK       I    between atoms: N_12  and  C_25 
REMARK    3  A    between atoms: C_13  and  C_14 
REMARK    4  A    between atoms: C_13  and  C_33 
REMARK    5  A    between atoms: C_14  and  C_15 
REMARK       I    between atoms: C_15  and  N_17 
REMARK    6  A    between atoms: N_17  and  C_21 
REMARK    7  A    between atoms: C_20  and  C_21 
REMARK    8  A    between atoms: C_21  and  C_22 
REMARK    9  A    between atoms: C_22  and  C_23 
REMARK   10  A    between atoms: C_23  and  N_27 
REMARK   11  A    between atoms: C_24  and  C_33 
REMARK   12  A    between atoms: C_24  and  N_29 
REMARK       I    between atoms: C_25  and  N_26 
REMARK   13  A    between atoms: N_27  and  C_34 
REMARK   14  A    between atoms: C_34  and  C_35 
REMARK   15  A    between atoms: C_35  and  S_36 
ROOT
HETATM    1  C           1     -20.363  -4.853  -6.189  0.00  0.00     0.249 C 
HETATM    2  N           1     -20.650  -6.191  -6.259  0.00  0.00    -0.345 N 
HETATM    3  H           1     -20.933  -6.601  -7.139  0.00  0.00     0.163 HD
HETATM    4  O           1     -20.025  -4.362  -5.138  0.00  0.00    -0.271 OA
ENDROOT
BRANCH   1   5
HETATM    5  C           1     -20.470  -3.993  -7.424  0.00  0.00     0.274 C 
BRANCH   5   6
HETATM    6  N           1     -19.142  -3.948  -8.118  0.00  0.00    -0.067 N 
HETATM    7  H           1     -18.380  -3.864  -7.408  0.00  0.00     0.275 HD
HETATM    8  H           1     -19.113  -3.123  -8.760  0.00  0.00     0.275 HD
HETATM    9  H           1     -19.008  -4.824  -8.672  0.00  0.00     0.275 HD
ENDBRANCH   5   6
BRANCH   5  10
HETATM   10  C           1     -21.515  -4.581  -8.364  0.00  0.00     0.044 C 
BRANCH  10  11
HETATM   11  C           1     -21.090  -4.344  -9.807  0.00  0.00     0.023 C 
BRANCH  11  12
HETATM   12  C           1     -22.203  -3.620 -10.553  0.00  0.00     0.138 C 
BRANCH  12  13
HETATM   13  N           1     -23.435  -3.656  -9.751  0.00  0.00    -0.227 N 
HETATM   14  H           1     -23.381  -3.809  -8.714  0.00  0.00     0.177 HD
HETATM   15  C           1     -24.559  -3.504 -10.312  0.00  0.00     0.665 C 
HETATM   16  N           1     -24.625  -3.315 -11.597  0.00  0.00    -0.235 N 
HETATM   17  N           1     -25.621  -3.535  -9.623  0.00  0.00    -0.235 N 
HETATM   18  H           1     -23.749  -3.290 -12.167  0.00  0.00     0.174 HD
HETATM   19  H           1     -25.553  -3.190 -12.060  0.00  0.00     0.174 HD
HETATM   20  H           1     -25.568  -3.688  -8.585  0.00  0.00     0.174 HD
HETATM   21  H           1     -26.553  -3.409 -10.088  0.00  0.00     0.174 HD
ENDBRANCH  12  13
ENDBRANCH  11  12
ENDBRANCH  10  11
ENDBRANCH   5  10
ENDBRANCH   1   5
BRANCH   2  22
HETATM   22  C           1     -20.548  -7.017  -5.072  0.00  0.00     0.187 C 
BRANCH  22  23
HETATM   23  C           1     -20.236  -8.437  -5.474  0.00  0.00     0.196 C 
HETATM   24  O           1     -19.052  -8.783  -5.682  0.00  0.00    -0.646 OA
HETATM   25  O           1     -21.161  -9.268  -5.601  0.00  0.00    -0.646 OA
ENDBRANCH  22  23
BRANCH  22  26
HETATM   26  C           1     -21.869  -6.982  -4.315  0.00  0.00     0.066 C 
BRANCH  26  27
HETATM   27  C           1     -21.612  -6.606  -2.862  0.00  0.00     0.273 C 
BRANCH  27  28
HETATM   28  N           1     -21.965  -7.710  -2.011  0.00  0.00     0.099 N 
HETATM   29  H           1     -22.274  -8.496  -2.584  0.00  0.00     0.317 HD
BRANCH  28  30
HETATM   30  C           1     -20.790  -8.089  -1.274  0.00  0.00     0.329 C 
BRANCH  30  31
HETATM   31  C           1     -20.179  -9.318  -1.901  0.00  0.00     0.208 C 
HETATM   32  O           1     -20.846 -10.371  -1.991  0.00  0.00    -0.646 OA
HETATM   33  O           1     -19.005  -9.283  -2.329  0.00  0.00    -0.646 OA
ENDBRANCH  30  31
BRANCH  30  34
HETATM   34  C           1     -21.171  -8.390   0.169  0.00  0.00     0.117 C 
BRANCH  34  35
HETATM   35  S           1     -22.957  -8.150   0.386  0.00  0.00    -0.180 SA
HETATM   36  H           1     -22.864  -7.386   1.489  0.00  0.00     0.101 HD
ENDBRANCH  34  35
ENDBRANCH  30  34
ENDBRANCH  28  30
ENDBRANCH  27  28
ENDBRANCH  26  27
ENDBRANCH  22  26
ENDBRANCH   2  22
TORSDOF 15
ENDMDL
MODEL 9
REMARK VINA RESULT:      -6.2      2.483      3.738
REMARK  15 active torsions:
REMARK  status: ('A' for Active; 'I' for Inactive)
REMARK    1  A    between atoms: C_10  and  C_34 
REMARK    2  A    between atoms: N_11  and  C_14 
REMARK       I    between atoms: N_12  and  C_25 
REMARK    3  A    between atoms: C_13  and  C_14 
REMARK    4  A    between atoms: C_13  and  C_33 
REMARK    5  A    between atoms: C_14  and  C_15 
REMARK       I    between atoms: C_15  and  N_17 
REMARK    6  A    between atoms: N_17  and  C_21 
REMARK    7  A    between atoms: C_20  and  C_21 
REMARK    8  A    between atoms: C_21  and  C_22 
REMARK    9  A    between atoms: C_22  and  C_23 
REMARK   10  A    between atoms: C_23  and  N_27 
REMARK   11  A    between atoms: C_24  and  C_33 
REMARK   12  A    between atoms: C_24  and  N_29 
REMARK       I    between atoms: C_25  and  N_26 
REMARK   13  A    between atoms: N_27  and  C_34 
REMARK   14  A    between atoms: C_34  and  C_35 
REMARK   15  A    between atoms: C_35  and  S_36 
ROOT
HETATM    1  C           1     -20.689  -7.948  -5.280  0.00  0.00     0.249 C 
HETATM    2  N           1     -21.349  -9.118  -5.544  0.00  0.00    -0.345 N 
HETATM    3  H           1     -22.201  -9.106  -6.091  0.00  0.00     0.163 HD
HETATM    4  O           1     -19.672  -7.962  -4.628  0.00  0.00    -0.271 OA
ENDROOT
BRANCH   1   5
HETATM    5  C           1     -21.233  -6.640  -5.802  0.00  0.00     0.274 C 
BRANCH   5   6
HETATM    6  N           1     -21.898  -5.893  -4.684  0.00  0.00    -0.067 N 
HETATM    7  H           1     -22.587  -5.215  -5.079  0.00  0.00     0.275 HD
HETATM    8  H           1     -21.175  -5.376  -4.134  0.00  0.00     0.275 HD
HETATM    9  H           1     -22.392  -6.569  -4.060  0.00  0.00     0.275 HD
ENDBRANCH   5   6
BRANCH   5  10
HETATM   10  C           1     -20.091  -5.803  -6.364  0.00  0.00     0.044 C 
BRANCH  10  11
HETATM   11  C           1     -20.441  -5.349  -7.774  0.00  0.00     0.023 C 
BRANCH  11  12
HETATM   12  C           1     -20.924  -3.905  -7.739  0.00  0.00     0.138 C 
BRANCH  12  13
HETATM   13  N           1     -22.394  -3.880  -7.712  0.00  0.00    -0.227 N 
HETATM   14  H           1     -22.904  -4.000  -6.802  0.00  0.00     0.177 HD
HETATM   15  C           1     -23.044  -3.716  -8.786  0.00  0.00     0.665 C 
HETATM   16  N           1     -22.412  -3.567  -9.913  0.00  0.00    -0.235 N 
HETATM   17  N           1     -24.310  -3.695  -8.764  0.00  0.00    -0.235 N 
HETATM   18  H           1     -21.367  -3.585  -9.931  0.00  0.00     0.174 HD
HETATM   19  H           1     -22.948  -3.431 -10.799  0.00  0.00     0.174 HD
HETATM   20  H           1     -24.820  -3.815  -7.854  0.00  0.00     0.174 HD
HETATM   21  H           1     -24.849  -3.558  -9.654  0.00  0.00     0.174 HD
ENDBRANCH  12  13
ENDBRANCH  11  12
ENDBRANCH  10  11
ENDBRANCH   5  10
ENDBRANCH   1   5
BRANCH   2  22
HETATM   22  C           1     -20.826 -10.374  -5.042  0.00  0.00     0.187 C 
BRANCH  22  23
HETATM   23  C           1     -21.003 -11.446  -6.089  0.00  0.00     0.196 C 
HETATM   24  O           1     -22.030 -12.159  -6.086  0.00  0.00    -0.646 OA
HETATM   25  O           1     -20.123 -11.622  -6.958  0.00  0.00    -0.646 OA
ENDBRANCH  22  23
BRANCH  22  26
HETATM   26  C           1     -21.581 -10.767  -3.779  0.00  0.00     0.066 C 
BRANCH  26  27
HETATM   27  C           1     -20.626 -10.757  -2.593  0.00  0.00     0.273 C 
BRANCH  27  28
HETATM   28  N           1     -20.571  -9.435  -2.032  0.00  0.00     0.099 N 
HETATM   29  H           1     -20.302  -8.769  -2.756  0.00  0.00     0.317 HD
BRANCH  28  30
HETATM   30  C           1     -21.885  -9.110  -1.546  0.00  0.00     0.329 C 
BRANCH  30  31
HETATM   31  C           1     -21.986  -7.619  -1.334  0.00  0.00     0.208 C 
HETATM   32  O           1     -22.831  -7.158  -0.537  0.00  0.00    -0.646 OA
HETATM   33  O           1     -21.225  -6.847  -1.955  0.00  0.00    -0.646 OA
ENDBRANCH  30  31
BRANCH  30  34
HETATM   34  C           1     -22.130  -9.830  -0.227  0.00  0.00     0.117 C 
BRANCH  34  35
HETATM   35  S           1     -23.696 -10.743  -0.318  0.00  0.00    -0.180 SA
HETATM   36  H           1     -23.302 -11.775   0.451  0.00  0.00     0.101 HD
ENDBRANCH  34  35
ENDBRANCH  30  34
ENDBRANCH  28  30
ENDBRANCH  27  28
ENDBRANCH  26  27
ENDBRANCH  22  26
ENDBRANCH   2  22
TORSDOF 15
ENDMDL
