MODEL 1
REMARK VINA RESULT:      -8.1      0.000      0.000
REMARK  11 active torsions:
REMARK  status: ('A' for Active; 'I' for Inactive)
REMARK    1  A    between atoms: C_4  and  O_5 
REMARK    2  A    between atoms: O_5  and  P_24 
REMARK    3  A    between atoms: C_6  and  C_22 
REMARK    4  A    between atoms: C_6  and  C_9 
REMARK    5  A    between atoms: C_6  and  N_28 
REMARK    6  A    between atoms: C_9  and  C_25 
REMARK    7  A    between atoms: N_12  and  C_18 
REMARK    8  A    between atoms: C_15  and  C_17 
REMARK    9  A    between atoms: C_17  and  C_18 
REMARK   10  A    between atoms: C_18  and  C_27 
REMARK   11  A    between atoms: P_24  and  O_30 
REMARK       I    between atoms: C_27  and  N_28 
ROOT
HETATM    1  C           1     -21.659  -6.627  -5.552  0.00  0.00     0.189 C 
ENDROOT
BRANCH   1   2
HETATM    2  C           1     -20.846  -7.891  -5.406  0.00  0.00     0.197 C 
HETATM    3  O           1     -19.617  -7.822  -5.191  0.00  0.00    -0.646 OA
HETATM    4  O           1     -21.403  -9.006  -5.500  0.00  0.00    -0.646 OA
ENDBRANCH   1   2
BRANCH   1   5
HETATM    5  C           1     -20.732  -5.461  -5.869  0.00  0.00     0.074 C 
BRANCH   5   6
HETATM    6  C           1     -21.100  -4.878  -7.197  0.00  0.00    -0.056 A 
HETATM    7  C           1     -22.337  -4.255  -7.368  0.00  0.00     0.010 A 
HETATM    8  C           1     -22.679  -3.711  -8.605  0.00  0.00     0.038 A 
HETATM    9  C           1     -21.785  -3.790  -9.673  0.00  0.00     0.081 A 
HETATM   10  C           1     -20.549  -4.412  -9.503  0.00  0.00     0.038 A 
HETATM   11  C           1     -20.206  -4.956  -8.265  0.00  0.00     0.010 A 
BRANCH   9  12
HETATM   12  O           1     -22.118  -3.261 -10.876  0.00  0.00    -0.247 OA
BRANCH  12  13
HETATM   13  P           1     -23.427  -3.843 -11.623  0.00  0.00     0.411 P 
HETATM   14  O           1     -23.670  -5.234 -11.179  0.00  0.00    -0.624 OA
HETATM   15  O           1     -24.601  -3.007 -11.286  0.00  0.00    -0.624 OA
BRANCH  13  16
HETATM   16  O           1     -23.189  -3.819 -13.220  0.00  0.00    -0.300 OA
HETATM   17  H           1     -23.438  -4.679 -13.516  0.00  0.00     0.223 HD
ENDBRANCH  13  16
ENDBRANCH  12  13
ENDBRANCH   9  12
ENDBRANCH   5   6
ENDBRANCH   1   5
BRANCH   1  18
HETATM   18  N           1     -22.363  -6.361  -4.312  0.00  0.00    -0.344 N 
HETATM   19  H           1     -23.357  -6.172  -4.325  0.00  0.00     0.163 HD
HETATM   20  C           1     -21.682  -6.362  -3.125  0.00  0.00     0.249 C 
HETATM   21  O           1     -21.186  -5.341  -2.711  0.00  0.00    -0.271 OA
BRANCH  20  22
HETATM   22  C           1     -21.550  -7.639  -2.333  0.00  0.00     0.275 C 
BRANCH  22  23
HETATM   23  N           1     -20.097  -7.954  -2.132  0.00  0.00    -0.066 N 
HETATM   24  H           1     -19.597  -7.902  -3.048  0.00  0.00     0.275 HD
HETATM   25  H           1     -19.679  -7.262  -1.468  0.00  0.00     0.275 HD
HETATM   26  H           1     -20.001  -8.917  -1.737  0.00  0.00     0.275 HD
ENDBRANCH  22  23
BRANCH  22  27
HETATM   27  C           1     -22.224  -7.470  -0.978  0.00  0.00     0.046 C 
BRANCH  27  28
HETATM   28  C           1     -21.980  -8.711  -0.130  0.00  0.00    -0.020 C 
HETATM   29  C           1     -23.258  -9.535  -0.057  0.00  0.00     0.009 C 
HETATM   30  C           1     -21.564  -8.293   1.274  0.00  0.00     0.009 C 
ENDBRANCH  27  28
ENDBRANCH  22  27
ENDBRANCH  20  22
ENDBRANCH   1  18
TORSDOF 11
ENDMDL
MODEL 2
REMARK VINA RESULT:      -7.3      1.555      2.171
REMARK  11 active torsions:
REMARK  status: ('A' for Active; 'I' for Inactive)
REMARK    1  A    between atoms: C_4  and  O_5 
REMARK    2  A    between atoms: O_5  and  P_24 
REMARK    3  A    between atoms: C_6  and  C_22 
REMARK    4  A    between atoms: C_6  and  C_9 
REMARK    5  A    between atoms: C_6  and  N_28 
REMARK    6  A    between atoms: C_9  and  C_25 
REMARK    7  A    between atoms: N_12  and  C_18 
REMARK    8  A    between atoms: C_15  and  C_17 
REMARK    9  A    between atoms: C_17  and  C_18 
REMARK   10  A    between atoms: C_18  and  C_27 
REMARK   11  A    between atoms: P_24  and  O_30 
REMARK       I    between atoms: C_27  and  N_28 
ROOT
HETATM    1  C           1     -20.648  -7.624  -5.376  0.00  0.00     0.189 C 
ENDROOT
BRANCH   1   2
HETATM    2  C           1     -20.264  -9.038  -5.738  0.00  0.00     0.197 C 
HETATM    3  O           1     -21.143  -9.924  -5.816  0.00  0.00    -0.646 OA
HETATM    4  O           1     -19.067  -9.323  -5.958  0.00  0.00    -0.646 OA
ENDBRANCH   1   2
BRANCH   1   5
HETATM    5  C           1     -19.792  -6.646  -6.172  0.00  0.00     0.074 C 
BRANCH   5   6
HETATM    6  C           1     -20.680  -5.716  -6.938  0.00  0.00    -0.056 A 
HETATM    7  C           1     -21.937  -5.378  -6.436  0.00  0.00     0.010 A 
HETATM    8  C           1     -22.764  -4.511  -7.150  0.00  0.00     0.038 A 
HETATM    9  C           1     -22.333  -3.981  -8.366  0.00  0.00     0.081 A 
HETATM   10  C           1     -21.076  -4.317  -8.868  0.00  0.00     0.038 A 
HETATM   11  C           1     -20.249  -5.185  -8.153  0.00  0.00     0.010 A 
BRANCH   9  12
HETATM   12  O           1     -23.136  -3.138  -9.060  0.00  0.00    -0.247 OA
BRANCH  12  13
HETATM   13  P           1     -24.154  -3.777 -10.138  0.00  0.00     0.411 P 
HETATM   14  O           1     -23.844  -3.246 -11.485  0.00  0.00    -0.624 OA
HETATM   15  O           1     -24.007  -5.250 -10.144  0.00  0.00    -0.624 OA
BRANCH  13  16
HETATM   16  O           1     -25.671  -3.390  -9.741  0.00  0.00    -0.300 OA
HETATM   17  H           1     -25.700  -3.453  -8.801  0.00  0.00     0.223 HD
ENDBRANCH  13  16
ENDBRANCH  12  13
ENDBRANCH   9  12
ENDBRANCH   5   6
ENDBRANCH   1   5
BRANCH   1  18
HETATM   18  N           1     -20.430  -7.412  -3.958  0.00  0.00    -0.344 N 
HETATM   19  H           1     -20.335  -6.472  -3.595  0.00  0.00     0.163 HD
HETATM   20  C           1     -20.349  -8.483  -3.111  0.00  0.00     0.249 C 
HETATM   21  O           1     -19.280  -9.001  -2.890  0.00  0.00    -0.271 OA
BRANCH  20  22
HETATM   22  C           1     -21.596  -9.019  -2.452  0.00  0.00     0.275 C 
BRANCH  22  23
HETATM   23  N           1     -21.840 -10.426  -2.913  0.00  0.00    -0.066 N 
HETATM   24  H           1     -22.586 -10.862  -2.324  0.00  0.00     0.275 HD
HETATM   25  H           1     -22.148 -10.417  -3.912  0.00  0.00     0.275 HD
HETATM   26  H           1     -20.958 -10.979  -2.824  0.00  0.00     0.275 HD
ENDBRANCH  22  23
BRANCH  22  27
HETATM   27  C           1     -21.420  -9.005  -0.940  0.00  0.00     0.046 C 
BRANCH  27  28
HETATM   28  C           1     -22.467  -8.094  -0.314  0.00  0.00    -0.020 C 
HETATM   29  C           1     -22.393  -6.717  -0.960  0.00  0.00     0.009 C 
HETATM   30  C           1     -22.204  -7.968   1.180  0.00  0.00     0.009 C 
ENDBRANCH  27  28
ENDBRANCH  22  27
ENDBRANCH  20  22
ENDBRANCH   1  18
TORSDOF 11
ENDMDL
MODEL 3
REMARK VINA RESULT:      -7.2      2.041      2.597
REMARK  11 active torsions:
REMARK  status: ('A' for Active; 'I' for Inactive)
REMARK    1  A    between atoms: C_4  and  O_5 
REMARK    2  A    between atoms: O_5  and  P_24 
REMARK    3  A    between atoms: C_6  and  C_22 
REMARK    4  A    between atoms: C_6  and  C_9 
REMARK    5  A    between atoms: C_6  and  N_28 
REMARK    6  A    between atoms: C_9  and  C_25 
REMARK    7  A    between atoms: N_12  and  C_18 
REMARK    8  A    between atoms: C_15  and  C_17 
REMARK    9  A    between atoms: C_17  and  C_18 
REMARK   10  A    between atoms: C_18  and  C_27 
REMARK   11  A    between atoms: P_24  and  O_30 
REMARK       I    between atoms: C_27  and  N_28 
ROOT
HETATM    1  C           1     -21.399  -5.691  -6.637  0.00  0.00     0.189 C 
ENDROOT
BRANCH   1   2
HETATM    2  C           1     -19.895  -5.725  -6.509  0.00  0.00     0.197 C 
HETATM    3  O           1     -19.276  -6.795  -6.694  0.00  0.00    -0.646 OA
HETATM    4  O           1     -19.270  -4.682  -6.219  0.00  0.00    -0.646 OA
ENDBRANCH   1   2
BRANCH   1   5
HETATM    5  C           1     -21.841  -4.298  -7.067  0.00  0.00     0.074 C 
BRANCH   5   6
HETATM    6  C           1     -22.343  -4.347  -8.476  0.00  0.00    -0.056 A 
HETATM    7  C           1     -23.709  -4.236  -8.736  0.00  0.00     0.010 A 
HETATM    8  C           1     -24.176  -4.281 -10.049  0.00  0.00     0.038 A 
HETATM    9  C           1     -23.276  -4.436 -11.104  0.00  0.00     0.081 A 
HETATM   10  C           1     -21.911  -4.546 -10.846  0.00  0.00     0.038 A 
HETATM   11  C           1     -21.443  -4.501  -9.531  0.00  0.00     0.010 A 
BRANCH   9  12
HETATM   12  O           1     -23.731  -4.480 -12.380  0.00  0.00    -0.247 OA
BRANCH  12  13
HETATM   13  P           1     -24.081  -3.081 -13.107  0.00  0.00     0.411 P 
HETATM   14  O           1     -23.770  -3.184 -14.551  0.00  0.00    -0.624 OA
HETATM   15  O           1     -25.520  -2.780 -12.934  0.00  0.00    -0.624 OA
BRANCH  13  16
HETATM   16  O           1     -23.201  -1.897 -12.449  0.00  0.00    -0.300 OA
HETATM   17  H           1     -23.141  -2.118 -11.535  0.00  0.00     0.223 HD
ENDBRANCH  13  16
ENDBRANCH  12  13
ENDBRANCH   9  12
ENDBRANCH   5   6
ENDBRANCH   1   5
BRANCH   1  18
HETATM   18  N           1     -21.999  -6.014  -5.357  0.00  0.00    -0.344 N 
HETATM   19  H           1     -22.858  -5.561  -5.073  0.00  0.00     0.163 HD
HETATM   20  C           1     -21.404  -6.930  -4.534  0.00  0.00     0.249 C 
HETATM   21  O           1     -20.587  -6.571  -3.719  0.00  0.00    -0.271 OA
BRANCH  20  22
HETATM   22  C           1     -21.765  -8.391  -4.644  0.00  0.00     0.275 C 
BRANCH  22  23
HETATM   23  N           1     -20.644  -9.136  -5.305  0.00  0.00    -0.066 N 
HETATM   24  H           1     -20.585  -8.858  -6.311  0.00  0.00     0.275 HD
HETATM   25  H           1     -19.743  -8.904  -4.828  0.00  0.00     0.275 HD
HETATM   26  H           1     -20.820 -10.163  -5.237  0.00  0.00     0.275 HD
ENDBRANCH  22  23
BRANCH  22  27
HETATM   27  C           1     -22.003  -8.963  -3.253  0.00  0.00     0.046 C 
BRANCH  27  28
HETATM   28  C           1     -21.272 -10.293  -3.118  0.00  0.00    -0.020 C 
HETATM   29  C           1     -22.285 -11.408  -2.897  0.00  0.00     0.009 C 
HETATM   30  C           1     -20.319 -10.231  -1.933  0.00  0.00     0.009 C 
ENDBRANCH  27  28
ENDBRANCH  22  27
ENDBRANCH  20  22
ENDBRANCH   1  18
TORSDOF 11
ENDMDL
MODEL 4
REMARK VINA RESULT:      -7.1      1.133      1.997
REMARK  11 active torsions:
REMARK  status: ('A' for Active; 'I' for Inactive)
REMARK    1  A    between atoms: C_4  and  O_5 
REMARK    2  A    between atoms: O_5  and  P_24 
REMARK    3  A    between atoms: C_6  and  C_22 
REMARK    4  A    between atoms: C_6  and  C_9 
REMARK    5  A    between atoms: C_6  and  N_28 
REMARK    6  A    between atoms: C_9  and  C_25 
REMARK    7  A    between atoms: N_12  and  C_18 
REMARK    8  A    between atoms: C_15  and  C_17 
REMARK    9  A    between atoms: C_17  and  C_18 
REMARK   10  A    between atoms: C_18  and  C_27 
REMARK   11  A    between atoms: P_24  and  O_30 
REMARK       I    between atoms: C_27  and  N_28 
ROOT
HETATM    1  C           1     -21.347  -7.700  -5.581  0.00  0.00     0.189 C 
ENDROOT
BRANCH   1   2
HETATM    2  C           1     -20.467  -8.927  -5.577  0.00  0.00     0.197 C 
HETATM    3  O           1     -20.960 -10.051  -5.812  0.00  0.00    -0.646 OA
HETATM    4  O           1     -19.245  -8.817  -5.338  0.00  0.00    -0.646 OA
ENDBRANCH   1   2
BRANCH   1   5
HETATM    5  C           1     -20.483  -6.456  -5.750  0.00  0.00     0.074 C 
BRANCH   5   6
HETATM    6  C           1     -21.056  -5.595  -6.832  0.00  0.00    -0.056 A 
HETATM    7  C           1     -20.324  -5.354  -7.994  0.00  0.00     0.010 A 
HETATM    8  C           1     -20.858  -4.552  -9.003  0.00  0.00     0.038 A 
HETATM    9  C           1     -22.125  -3.991  -8.848  0.00  0.00     0.081 A 
HETATM   10  C           1     -22.858  -4.231  -7.687  0.00  0.00     0.038 A 
HETATM   11  C           1     -22.324  -5.034  -6.678  0.00  0.00     0.010 A 
BRANCH   9  12
HETATM   12  O           1     -22.644  -3.211  -9.828  0.00  0.00    -0.247 OA
BRANCH  12  13
HETATM   13  P           1     -23.617  -3.906 -10.914  0.00  0.00     0.411 P 
HETATM   14  O           1     -24.899  -3.169 -10.970  0.00  0.00    -0.624 OA
HETATM   15  O           1     -22.973  -3.876 -12.246  0.00  0.00    -0.624 OA
BRANCH  13  16
HETATM   16  O           1     -23.893  -5.439 -10.485  0.00  0.00    -0.300 OA
HETATM   17  H           1     -24.552  -5.388  -9.812  0.00  0.00     0.223 HD
ENDBRANCH  13  16
ENDBRANCH  12  13
ENDBRANCH   9  12
ENDBRANCH   5   6
ENDBRANCH   1   5
BRANCH   1  18
HETATM   18  N           1     -22.068  -7.620  -4.326  0.00  0.00    -0.344 N 
HETATM   19  H           1     -23.077  -7.536  -4.326  0.00  0.00     0.163 HD
HETATM   20  C           1     -21.385  -7.655  -3.141  0.00  0.00     0.249 C 
HETATM   21  O           1     -20.996  -6.628  -2.636  0.00  0.00    -0.271 OA
BRANCH  20  22
HETATM   22  C           1     -21.115  -8.976  -2.465  0.00  0.00     0.275 C 
BRANCH  22  23
HETATM   23  N           1     -19.652  -9.088  -2.150  0.00  0.00    -0.066 N 
HETATM   24  H           1     -19.101  -8.547  -2.855  0.00  0.00     0.275 HD
HETATM   25  H           1     -19.471  -8.700  -1.196  0.00  0.00     0.275 HD
HETATM   26  H           1     -19.365 -10.092  -2.179  0.00  0.00     0.275 HD
ENDBRANCH  22  23
BRANCH  22  27
HETATM   27  C           1     -21.919  -9.061  -1.174  0.00  0.00     0.046 C 
BRANCH  27  28
HETATM   28  C           1     -22.485 -10.466  -1.019  0.00  0.00    -0.020 C 
HETATM   29  C           1     -22.826 -11.030  -2.392  0.00  0.00     0.009 C 
HETATM   30  C           1     -23.743 -10.416  -0.164  0.00  0.00     0.009 C 
ENDBRANCH  27  28
ENDBRANCH  22  27
ENDBRANCH  20  22
ENDBRANCH   1  18
TORSDOF 11
ENDMDL
MODEL 5
REMARK VINA RESULT:      -6.9      3.817      8.844
REMARK  11 active torsions:
REMARK  status: ('A' for Active; 'I' for Inactive)
REMARK    1  A    between atoms: C_4  and  O_5 
REMARK    2  A    between atoms: O_5  and  P_24 
REMARK    3  A    between atoms: C_6  and  C_22 
REMARK    4  A    between atoms: C_6  and  C_9 
REMARK    5  A    between atoms: C_6  and  N_28 
REMARK    6  A    between atoms: C_9  and  C_25 
REMARK    7  A    between atoms: N_12  and  C_18 
REMARK    8  A    between atoms: C_15  and  C_17 
REMARK    9  A    between atoms: C_17  and  C_18 
REMARK   10  A    between atoms: C_18  and  C_27 
REMARK   11  A    between atoms: P_24  and  O_30 
REMARK       I    between atoms: C_27  and  N_28 
ROOT
HETATM    1  C           1     -21.242  -5.539  -6.734  0.00  0.00     0.189 C 
ENDROOT
BRANCH   1   2
HETATM    2  C           1     -19.999  -4.886  -6.178  0.00  0.00     0.197 C 
HETATM    3  O           1     -18.947  -4.868  -6.854  0.00  0.00    -0.646 OA
HETATM    4  O           1     -20.023  -4.364  -5.043  0.00  0.00    -0.646 OA
ENDBRANCH   1   2
BRANCH   1   5
HETATM    5  C           1     -21.222  -7.027  -6.408  0.00  0.00     0.074 C 
BRANCH   5   6
HETATM    6  C           1     -21.172  -7.212  -4.924  0.00  0.00    -0.056 A 
HETATM    7  C           1     -22.077  -6.537  -4.104  0.00  0.00     0.010 A 
HETATM    8  C           1     -22.030  -6.710  -2.722  0.00  0.00     0.038 A 
HETATM    9  C           1     -21.078  -7.559  -2.157  0.00  0.00     0.081 A 
HETATM   10  C           1     -20.173  -8.235  -2.975  0.00  0.00     0.038 A 
HETATM   11  C           1     -20.220  -8.061  -4.360  0.00  0.00     0.010 A 
BRANCH   9  12
HETATM   12  O           1     -21.032  -7.727  -0.813  0.00  0.00    -0.247 OA
BRANCH  12  13
HETATM   13  P           1     -22.077  -8.760  -0.144  0.00  0.00     0.411 P 
HETATM   14  O           1     -21.405  -9.505   0.944  0.00  0.00    -0.624 OA
HETATM   15  O           1     -23.227  -8.011   0.411  0.00  0.00    -0.624 OA
BRANCH  13  16
HETATM   16  O           1     -22.601  -9.798  -1.265  0.00  0.00    -0.300 OA
HETATM   17  H           1     -22.091 -10.579  -1.131  0.00  0.00     0.223 HD
ENDBRANCH  13  16
ENDBRANCH  12  13
ENDBRANCH   9  12
ENDBRANCH   5   6
ENDBRANCH   1   5
BRANCH   1  18
HETATM   18  N           1     -21.278  -5.361  -8.173  0.00  0.00    -0.344 N 
HETATM   19  H           1     -20.774  -5.999  -8.775  0.00  0.00     0.163 HD
HETATM   20  C           1     -21.993  -4.328  -8.716  0.00  0.00     0.249 C 
HETATM   21  O           1     -21.465  -3.257  -8.900  0.00  0.00    -0.271 OA
BRANCH  20  22
HETATM   22  C           1     -23.443  -4.526  -9.085  0.00  0.00     0.275 C 
BRANCH  22  23
HETATM   23  N           1     -24.225  -3.301  -8.714  0.00  0.00    -0.066 N 
HETATM   24  H           1     -24.445  -3.322  -7.693  0.00  0.00     0.275 HD
HETATM   25  H           1     -23.660  -2.448  -8.930  0.00  0.00     0.275 HD
HETATM   26  H           1     -25.115  -3.277  -9.262  0.00  0.00     0.275 HD
ENDBRANCH  22  23
BRANCH  22  27
HETATM   27  C           1     -23.559  -4.767 -10.584  0.00  0.00     0.046 C 
BRANCH  27  28
HETATM   28  C           1     -23.345  -3.456 -11.328  0.00  0.00    -0.020 C 
HETATM   29  C           1     -24.567  -3.155 -12.186  0.00  0.00     0.009 C 
HETATM   30  C           1     -22.116  -3.570 -12.218  0.00  0.00     0.009 C 
ENDBRANCH  27  28
ENDBRANCH  22  27
ENDBRANCH  20  22
ENDBRANCH   1  18
TORSDOF 11
ENDMDL
MODEL 6
REMARK VINA RESULT:      -6.9      3.601      5.077
REMARK  11 active torsions:
REMARK  status: ('A' for Active; 'I' for Inactive)
REMARK    1  A    between atoms: C_4  and  O_5 
REMARK    2  A    between atoms: O_5  and  P_24 
REMARK    3  A    between atoms: C_6  and  C_22 
REMARK    4  A    between atoms: C_6  and  C_9 
REMARK    5  A    between atoms: C_6  and  N_28 
REMARK    6  A    between atoms: C_9  and  C_25 
REMARK    7  A    between atoms: N_12  and  C_18 
REMARK    8  A    between atoms: C_15  and  C_17 
REMARK    9  A    between atoms: C_17  and  C_18 
REMARK   10  A    between atoms: C_18  and  C_27 
REMARK   11  A    between atoms: P_24  and  O_30 
REMARK       I    between atoms: C_27  and  N_28 
ROOT
HETATM    1  C           1     -19.969 -10.831  -3.007  0.00  0.00     0.189 C 
ENDROOT
BRANCH   1   2
HETATM    2  C           1     -18.679 -11.508  -3.403  0.00  0.00     0.197 C 
HETATM    3  O           1     -17.771 -10.848  -3.953  0.00  0.00    -0.646 OA
HETATM    4  O           1     -18.520 -12.727  -3.181  0.00  0.00    -0.646 OA
ENDBRANCH   1   2
BRANCH   1   5
HETATM    5  C           1     -19.671  -9.423  -2.508  0.00  0.00     0.074 C 
BRANCH   5   6
HETATM    6  C           1     -20.408  -8.429  -3.351  0.00  0.00    -0.056 A 
HETATM    7  C           1     -20.903  -7.258  -2.778  0.00  0.00     0.010 A 
HETATM    8  C           1     -21.589  -6.332  -3.564  0.00  0.00     0.038 A 
HETATM    9  C           1     -21.779  -6.578  -4.924  0.00  0.00     0.081 A 
HETATM   10  C           1     -21.284  -7.748  -5.498  0.00  0.00     0.038 A 
HETATM   11  C           1     -20.597  -8.674  -4.711  0.00  0.00     0.010 A 
BRANCH   9  12
HETATM   12  O           1     -22.445  -5.678  -5.688  0.00  0.00    -0.247 OA
BRANCH  12  13
HETATM   13  P           1     -21.607  -4.863  -6.803  0.00  0.00     0.411 P 
HETATM   14  O           1     -20.387  -4.296  -6.187  0.00  0.00    -0.624 OA
HETATM   15  O           1     -21.224  -5.780  -7.901  0.00  0.00    -0.624 OA
BRANCH  13  16
HETATM   16  O           1     -22.519  -3.668  -7.394  0.00  0.00    -0.300 OA
HETATM   17  H           1     -22.130  -2.877  -7.059  0.00  0.00     0.223 HD
ENDBRANCH  13  16
ENDBRANCH  12  13
ENDBRANCH   9  12
ENDBRANCH   5   6
ENDBRANCH   1   5
BRANCH   1  18
HETATM   18  N           1     -20.608 -11.592  -1.950  0.00  0.00    -0.344 N 
HETATM   19  H           1     -20.048 -12.007  -1.216  0.00  0.00     0.163 HD
HETATM   20  C           1     -21.967 -11.749  -1.946  0.00  0.00     0.249 C 
HETATM   21  O           1     -22.469 -12.690  -2.514  0.00  0.00    -0.271 OA
BRANCH  20  22
HETATM   22  C           1     -22.840 -10.746  -1.234  0.00  0.00     0.275 C 
BRANCH  22  23
HETATM   23  N           1     -24.222 -11.308  -1.076  0.00  0.00    -0.066 N 
HETATM   24  H           1     -24.177 -12.198  -0.529  0.00  0.00     0.275 HD
HETATM   25  H           1     -24.823 -10.618  -0.568  0.00  0.00     0.275 HD
HETATM   26  H           1     -24.630 -11.499  -2.018  0.00  0.00     0.275 HD
ENDBRANCH  22  23
BRANCH  22  27
HETATM   27  C           1     -22.255 -10.447   0.140  0.00  0.00     0.046 C 
BRANCH  27  28
HETATM   28  C           1     -21.937  -8.961   0.246  0.00  0.00    -0.020 C 
HETATM   29  C           1     -20.986  -8.727   1.411  0.00  0.00     0.009 C 
HETATM   30  C           1     -23.224  -8.182   0.477  0.00  0.00     0.009 C 
ENDBRANCH  27  28
ENDBRANCH  22  27
ENDBRANCH  20  22
ENDBRANCH   1  18
TORSDOF 11
ENDMDL
MODEL 7
REMARK VINA RESULT:      -6.9      4.037      7.419
REMARK  11 active torsions:
REMARK  status: ('A' for Active; 'I' for Inactive)
REMARK    1  A    between atoms: C_4  and  O_5 
REMARK    2  A    between atoms: O_5  and  P_24 
REMARK    3  A    between atoms: C_6  and  C_22 
REMARK    4  A    between atoms: C_6  and  C_9 
REMARK    5  A    between atoms: C_6  and  N_28 
REMARK    6  A    between atoms: C_9  and  C_25 
REMARK    7  A    between atoms: N_12  and  C_18 
REMARK    8  A    between atoms: C_15  and  C_17 
REMARK    9  A    between atoms: C_17  and  C_18 
REMARK   10  A    between atoms: C_18  and  C_27 
REMARK   11  A    between atoms: P_24  and  O_30 
REMARK       I    between atoms: C_27  and  N_28 
ROOT
HETATM    1  C           1     -21.520  -7.594  -2.413  0.00  0.00     0.189 C 
ENDROOT
BRANCH   1   2
HETATM    2  C           1     -22.231  -7.183  -1.147  0.00  0.00     0.197 C 
HETATM    3  O           1     -22.408  -5.971  -0.895  0.00  0.00    -0.646 OA
HETATM    4  O           1     -22.643  -8.053  -0.350  0.00  0.00    -0.646 OA
ENDBRANCH   1   2
BRANCH   1   5
HETATM    5  C           1     -20.149  -8.158  -2.064  0.00  0.00     0.074 C 
BRANCH   5   6
HETATM    6  C           1     -19.820  -9.282  -2.997  0.00  0.00    -0.056 A 
HETATM    7  C           1     -20.664 -10.390  -3.080  0.00  0.00     0.010 A 
HETATM    8  C           1     -20.358 -11.436  -3.950  0.00  0.00     0.038 A 
HETATM    9  C           1     -19.208 -11.375  -4.736  0.00  0.00     0.081 A 
HETATM   10  C           1     -18.364 -10.268  -4.654  0.00  0.00     0.038 A 
HETATM   11  C           1     -18.670  -9.221  -3.784  0.00  0.00     0.010 A 
BRANCH   9  12
HETATM   12  O           1     -18.911 -12.392  -5.581  0.00  0.00    -0.247 OA
BRANCH  12  13
HETATM   13  P           1     -19.628 -12.410  -7.028  0.00  0.00     0.411 P 
HETATM   14  O           1     -18.705 -11.852  -8.042  0.00  0.00    -0.624 OA
HETATM   15  O           1     -19.975 -13.802  -7.391  0.00  0.00    -0.624 OA
BRANCH  13  16
HETATM   16  O           1     -20.972 -11.516  -6.973  0.00  0.00    -0.300 OA
HETATM   17  H           1     -21.050 -11.250  -6.072  0.00  0.00     0.223 HD
ENDBRANCH  13  16
ENDBRANCH  12  13
ENDBRANCH   9  12
ENDBRANCH   5   6
ENDBRANCH   1   5
BRANCH   1  18
HETATM   18  N           1     -21.361  -6.439  -3.274  0.00  0.00    -0.344 N 
HETATM   19  H           1     -20.917  -5.601  -2.921  0.00  0.00     0.163 HD
HETATM   20  C           1     -21.814  -6.480  -4.565  0.00  0.00     0.249 C 
HETATM   21  O           1     -22.944  -6.138  -4.821  0.00  0.00    -0.271 OA
BRANCH  20  22
HETATM   22  C           1     -20.902  -6.955  -5.669  0.00  0.00     0.275 C 
BRANCH  22  23
HETATM   23  N           1     -21.252  -8.368  -6.035  0.00  0.00    -0.066 N 
HETATM   24  H           1     -22.278  -8.436  -6.225  0.00  0.00     0.275 HD
HETATM   25  H           1     -20.721  -8.647  -6.890  0.00  0.00     0.275 HD
HETATM   26  H           1     -21.001  -9.004  -5.244  0.00  0.00     0.275 HD
ENDBRANCH  22  23
BRANCH  22  27
HETATM   27  C           1     -21.071  -6.060  -6.889  0.00  0.00     0.046 C 
BRANCH  27  28
HETATM   28  C           1     -20.426  -4.707  -6.620  0.00  0.00    -0.020 C 
HETATM   29  C           1     -21.324  -3.600  -7.157  0.00  0.00     0.009 C 
HETATM   30  C           1     -19.072  -4.643  -7.314  0.00  0.00     0.009 C 
ENDBRANCH  27  28
ENDBRANCH  22  27
ENDBRANCH  20  22
ENDBRANCH   1  18
TORSDOF 11
ENDMDL
MODEL 8
REMARK VINA RESULT:      -6.8      4.506      8.167
REMARK  11 active torsions:
REMARK  status: ('A' for Active; 'I' for Inactive)
REMARK    1  A    between atoms: C_4  and  O_5 
REMARK    2  A    between atoms: O_5  and  P_24 
REMARK    3  A    between atoms: C_6  and  C_22 
REMARK    4  A    between atoms: C_6  and  C_9 
REMARK    5  A    between atoms: C_6  and  N_28 
REMARK    6  A    between atoms: C_9  and  C_25 
REMARK    7  A    between atoms: N_12  and  C_18 
REMARK    8  A    between atoms: C_15  and  C_17 
REMARK    9  A    between atoms: C_17  and  C_18 
REMARK   10  A    between atoms: C_18  and  C_27 
REMARK   11  A    between atoms: P_24  and  O_30 
REMARK       I    between atoms: C_27  and  N_28 
ROOT
HETATM    1  C           1     -20.769  -8.565  -2.675  0.00  0.00     0.189 C 
ENDROOT
BRANCH   1   2
HETATM    2  C           1     -21.922  -8.948  -1.779  0.00  0.00     0.197 C 
HETATM    3  O           1     -22.464 -10.068  -1.902  0.00  0.00    -0.646 OA
HETATM    4  O           1     -22.333  -8.146  -0.913  0.00  0.00    -0.646 OA
ENDBRANCH   1   2
BRANCH   1   5
HETATM    5  C           1     -19.457  -8.975  -2.018  0.00  0.00     0.074 C 
BRANCH   5   6
HETATM    6  C           1     -18.456  -9.317  -3.077  0.00  0.00    -0.056 A 
HETATM    7  C           1     -18.877  -9.564  -4.384  0.00  0.00     0.010 A 
HETATM    8  C           1     -17.943  -9.881  -5.370  0.00  0.00     0.038 A 
HETATM    9  C           1     -16.588  -9.952  -5.050  0.00  0.00     0.081 A 
HETATM   10  C           1     -16.165  -9.704  -3.744  0.00  0.00     0.038 A 
HETATM   11  C           1     -17.100  -9.386  -2.757  0.00  0.00     0.010 A 
BRANCH   9  12
HETATM   12  O           1     -15.681 -10.260  -6.008  0.00  0.00    -0.247 OA
BRANCH  12  13
HETATM   13  P           1     -15.116 -11.772  -6.058  0.00  0.00     0.411 P 
HETATM   14  O           1     -14.863 -12.158  -7.465  0.00  0.00    -0.624 OA
HETATM   15  O           1     -13.853 -11.854  -5.291  0.00  0.00    -0.624 OA
BRANCH  13  16
HETATM   16  O           1     -16.205 -12.775  -5.412  0.00  0.00    -0.300 OA
HETATM   17  H           1     -17.011 -12.287  -5.405  0.00  0.00     0.223 HD
ENDBRANCH  13  16
ENDBRANCH  12  13
ENDBRANCH   9  12
ENDBRANCH   5   6
ENDBRANCH   1   5
BRANCH   1  18
HETATM   18  N           1     -20.776  -7.130  -2.882  0.00  0.00    -0.344 N 
HETATM   19  H           1     -20.381  -6.515  -2.182  0.00  0.00     0.163 HD
HETATM   20  C           1     -21.318  -6.606  -4.024  0.00  0.00     0.249 C 
HETATM   21  O           1     -22.490  -6.312  -4.058  0.00  0.00    -0.271 OA
BRANCH  20  22
HETATM   22  C           1     -20.453  -6.396  -5.243  0.00  0.00     0.275 C 
BRANCH  22  23
HETATM   23  N           1     -21.014  -7.176  -6.395  0.00  0.00    -0.066 N 
HETATM   24  H           1     -21.469  -8.047  -6.039  0.00  0.00     0.275 HD
HETATM   25  H           1     -21.723  -6.594  -6.896  0.00  0.00     0.275 HD
HETATM   26  H           1     -20.243  -7.430  -7.052  0.00  0.00     0.275 HD
ENDBRANCH  22  23
BRANCH  22  27
HETATM   27  C           1     -20.426  -4.916  -5.598  0.00  0.00     0.046 C 
BRANCH  27  28
HETATM   28  C           1     -20.536  -4.754  -7.109  0.00  0.00    -0.020 C 
HETATM   29  C           1     -19.176  -4.373  -7.678  0.00  0.00     0.009 C 
HETATM   30  C           1     -21.544  -3.660  -7.430  0.00  0.00     0.009 C 
ENDBRANCH  27  28
ENDBRANCH  22  27
ENDBRANCH  20  22
ENDBRANCH   1  18
TORSDOF 11
ENDMDL
MODEL 9
REMARK VINA RESULT:      -6.8      2.140      3.470
REMARK  11 active torsions:
REMARK  status: ('A' for Active; 'I' for Inactive)
REMARK    1  A    between atoms: C_4  and  O_5 
REMARK    2  A    between atoms: O_5  and  P_24 
REMARK    3  A    between atoms: C_6  and  C_22 
REMARK    4  A    between atoms: C_6  and  C_9 
REMARK    5  A    between atoms: C_6  and  N_28 
REMARK    6  A    between atoms: C_9  and  C_25 
REMARK    7  A    between atoms: N_12  and  C_18 
REMARK    8  A    between atoms: C_15  and  C_17 
REMARK    9  A    between atoms: C_17  and  C_18 
REMARK   10  A    between atoms: C_18  and  C_27 
REMARK   11  A    between atoms: P_24  and  O_30 
REMARK       I    between atoms: C_27  and  N_28 
ROOT
HETATM    1  C           1     -21.769  -4.704  -7.073  0.00  0.00     0.189 C 
ENDROOT
BRANCH   1   2
HETATM    2  C           1     -23.088  -4.989  -6.396  0.00  0.00     0.197 C 
HETATM    3  O           1     -24.124  -4.401  -6.775  0.00  0.00    -0.646 OA
HETATM    4  O           1     -23.143  -5.812  -5.458  0.00  0.00    -0.646 OA
ENDBRANCH   1   2
BRANCH   1   5
HETATM    5  C           1     -21.676  -5.510  -8.363  0.00  0.00     0.074 C 
BRANCH   5   6
HETATM    6  C           1     -21.899  -4.604  -9.534  0.00  0.00    -0.056 A 
HETATM    7  C           1     -20.860  -4.353 -10.431  0.00  0.00     0.010 A 
HETATM    8  C           1     -21.068  -3.510 -11.522  0.00  0.00     0.038 A 
HETATM    9  C           1     -22.315  -2.916 -11.716  0.00  0.00     0.081 A 
HETATM   10  C           1     -23.354  -3.166 -10.821  0.00  0.00     0.038 A 
HETATM   11  C           1     -23.146  -4.011  -9.729  0.00  0.00     0.010 A 
BRANCH   9  12
HETATM   12  O           1     -22.516  -2.097 -12.776  0.00  0.00    -0.247 OA
BRANCH  12  13
HETATM   13  P           1     -23.367  -2.668 -14.025  0.00  0.00     0.411 P 
HETATM   14  O           1     -24.434  -1.705 -14.376  0.00  0.00    -0.624 OA
HETATM   15  O           1     -22.472  -2.857 -15.188  0.00  0.00    -0.624 OA
BRANCH  13  16
HETATM   16  O           1     -24.030  -4.084 -13.620  0.00  0.00    -0.300 OA
HETATM   17  H           1     -24.779  -4.172 -14.186  0.00  0.00     0.223 HD
ENDBRANCH  13  16
ENDBRANCH  12  13
ENDBRANCH   9  12
ENDBRANCH   5   6
ENDBRANCH   1   5
BRANCH   1  18
HETATM   18  N           1     -20.682  -5.081  -6.190  0.00  0.00    -0.344 N 
HETATM   19  H           1     -20.272  -4.394  -5.571  0.00  0.00     0.163 HD
HETATM   20  C           1     -20.211  -6.366  -6.196  0.00  0.00     0.249 C 
HETATM   21  O           1     -19.312  -6.677  -6.941  0.00  0.00    -0.271 OA
BRANCH  20  22
HETATM   22  C           1     -20.815  -7.395  -5.272  0.00  0.00     0.275 C 
BRANCH  22  23
HETATM   23  N           1     -20.284  -8.754  -5.621  0.00  0.00    -0.066 N 
HETATM   24  H           1     -20.081  -8.797  -6.645  0.00  0.00     0.275 HD
HETATM   25  H           1     -19.404  -8.932  -5.085  0.00  0.00     0.275 HD
HETATM   26  H           1     -20.995  -9.479  -5.375  0.00  0.00     0.275 HD
ENDBRANCH  22  23
BRANCH  22  27
HETATM   27  C           1     -20.448  -7.062  -3.832  0.00  0.00     0.046 C 
BRANCH  27  28
HETATM   28  C           1     -21.576  -7.500  -2.906  0.00  0.00    -0.020 C 
HETATM   29  C           1     -22.060  -6.305  -2.096  0.00  0.00     0.009 C 
HETATM   30  C           1     -21.067  -8.581  -1.962  0.00  0.00     0.009 C 
ENDBRANCH  27  28
ENDBRANCH  22  27
ENDBRANCH  20  22
ENDBRANCH   1  18
TORSDOF 11
ENDMDL
