MODEL 1
REMARK VINA RESULT:      -6.9      0.000      0.000
REMARK  10 active torsions:
REMARK  status: ('A' for Active; 'I' for Inactive)
REMARK    1  A    between atoms: N_1  and  C_5 
REMARK       I    between atoms: N_1  and  C_16 
REMARK    2  A    between atoms: C_4  and  C_5 
REMARK    3  A    between atoms: C_5  and  C_6 
REMARK    4  A    between atoms: C_6  and  C_7 
REMARK    5  A    between atoms: C_7  and  C_24 
REMARK    6  A    between atoms: C_13  and  C_16 
REMARK    7  A    between atoms: C_13  and  C_14 
REMARK    8  A    between atoms: C_13  and  N_17 
REMARK    9  A    between atoms: C_14  and  C_15 
REMARK   10  A    between atoms: C_15  and  C_18 
REMARK       I    between atoms: C_24  and  N_25 
ROOT
HETATM    1  N           1     -35.037  -1.636 -13.134  0.00  0.00    -0.345 N 
HETATM    2  O           1     -33.759  -2.045 -11.349  0.00  0.00    -0.271 OA
HETATM    3  C           1     -34.337  -2.482 -12.316  0.00  0.00     0.249 C 
HETATM    4  H           1     -35.522  -2.003 -13.944  0.00  0.00     0.163 HD
ENDROOT
BRANCH   1   5
HETATM    5  C           1     -35.084  -0.218 -12.840  0.00  0.00     0.186 C 
BRANCH   5   6
HETATM    6  C           1     -36.276   0.074 -11.961  0.00  0.00     0.196 C 
HETATM    7  O           1     -37.434  -0.063 -12.413  0.00  0.00    -0.646 OA
HETATM    8  O           1     -36.105   0.452 -10.783  0.00  0.00    -0.646 OA
ENDBRANCH   5   6
BRANCH   5   9
HETATM    9  C           1     -35.209   0.565 -14.141  0.00  0.00     0.045 C 
BRANCH   9  10
HETATM   10  C           1     -35.435  -0.403 -15.296  0.00  0.00     0.105 C 
BRANCH  10  11
HETATM   11  C           1     -36.789  -0.149 -15.908  0.00  0.00     0.215 C 
HETATM   12  O           1     -37.103  -0.706 -16.933  0.00  0.00    -0.274 OA
HETATM   13  N           1     -37.665   0.712 -15.302  0.00  0.00    -0.370 N 
HETATM   14  H           1     -38.573   0.882 -15.713  0.00  0.00     0.159 HD
HETATM   15  H           1     -37.402   1.179 -14.444  0.00  0.00     0.159 HD
ENDBRANCH  10  11
ENDBRANCH   9  10
ENDBRANCH   5   9
ENDBRANCH   1   5
BRANCH   3  16
HETATM   16  C           1     -34.288  -3.959 -12.621  0.00  0.00     0.275 C 
BRANCH  16  17
HETATM   17  C           1     -33.637  -4.697 -11.458  0.00  0.00     0.053 C 
BRANCH  17  18
HETATM   18  C           1     -34.718  -5.268 -10.549  0.00  0.00     0.115 C 
BRANCH  18  19
HETATM   19  C           1     -34.411  -6.714 -10.248  0.00  0.00     0.172 C 
HETATM   20  O           1     -35.225  -7.403  -9.597  0.00  0.00    -0.648 OA
HETATM   21  O           1     -33.342  -7.223 -10.652  0.00  0.00    -0.648 OA
ENDBRANCH  18  19
ENDBRANCH  17  18
ENDBRANCH  16  17
BRANCH  16  22
HETATM   22  N           1     -33.484  -4.184 -13.868  0.00  0.00    -0.066 N 
HETATM   23  H           1     -33.629  -5.163 -14.203  0.00  0.00     0.275 HD
HETATM   24  H           1     -33.793  -3.513 -14.606  0.00  0.00     0.275 HD
HETATM   25  H           1     -32.472  -4.033 -13.661  0.00  0.00     0.275 HD
ENDBRANCH  16  22
ENDBRANCH   3  16
TORSDOF 10
ENDMDL
MODEL 2
REMARK VINA RESULT:      -6.7     12.214     13.930
REMARK  10 active torsions:
REMARK  status: ('A' for Active; 'I' for Inactive)
REMARK    1  A    between atoms: N_1  and  C_5 
REMARK       I    between atoms: N_1  and  C_16 
REMARK    2  A    between atoms: C_4  and  C_5 
REMARK    3  A    between atoms: C_5  and  C_6 
REMARK    4  A    between atoms: C_6  and  C_7 
REMARK    5  A    between atoms: C_7  and  C_24 
REMARK    6  A    between atoms: C_13  and  C_16 
REMARK    7  A    between atoms: C_13  and  C_14 
REMARK    8  A    between atoms: C_13  and  N_17 
REMARK    9  A    between atoms: C_14  and  C_15 
REMARK   10  A    between atoms: C_15  and  C_18 
REMARK       I    between atoms: C_24  and  N_25 
ROOT
HETATM    1  N           1     -22.057  -4.761  -9.071  0.00  0.00    -0.345 N 
HETATM    2  O           1     -21.718  -3.380  -7.349  0.00  0.00    -0.271 OA
HETATM    3  C           1     -21.612  -4.494  -7.804  0.00  0.00     0.249 C 
HETATM    4  H           1     -21.968  -5.695  -9.451  0.00  0.00     0.163 HD
ENDROOT
BRANCH   1   5
HETATM    5  C           1     -22.654  -3.707  -9.866  0.00  0.00     0.186 C 
BRANCH   5   6
HETATM    6  C           1     -24.157  -3.839  -9.830  0.00  0.00     0.196 C 
HETATM    7  O           1     -24.865  -2.847  -9.552  0.00  0.00    -0.646 OA
HETATM    8  O           1     -24.692  -4.941 -10.076  0.00  0.00    -0.646 OA
ENDBRANCH   5   6
BRANCH   5   9
HETATM    9  C           1     -22.169  -3.822 -11.305  0.00  0.00     0.045 C 
BRANCH   9  10
HETATM   10  C           1     -22.588  -2.580 -12.083  0.00  0.00     0.105 C 
BRANCH  10  11
HETATM   11  C           1     -23.251  -2.994 -13.373  0.00  0.00     0.215 C 
HETATM   12  O           1     -24.424  -3.283 -13.384  0.00  0.00    -0.274 OA
HETATM   13  N           1     -22.524  -3.042 -14.532  0.00  0.00    -0.370 N 
HETATM   14  H           1     -22.969  -3.320 -15.397  0.00  0.00     0.159 HD
HETATM   15  H           1     -21.541  -2.800 -14.524  0.00  0.00     0.159 HD
ENDBRANCH  10  11
ENDBRANCH   9  10
ENDBRANCH   5   9
ENDBRANCH   1   5
BRANCH   3  16
HETATM   16  C           1     -20.991  -5.592  -6.975  0.00  0.00     0.275 C 
BRANCH  16  17
HETATM   17  C           1     -21.889  -5.899  -5.783  0.00  0.00     0.053 C 
BRANCH  17  18
HETATM   18  C           1     -21.098  -5.731  -4.493  0.00  0.00     0.115 C 
BRANCH  18  19
HETATM   19  C           1     -21.735  -6.554  -3.401  0.00  0.00     0.172 C 
HETATM   20  O           1     -22.427  -5.996  -2.522  0.00  0.00    -0.648 OA
HETATM   21  O           1     -21.572  -7.793  -3.375  0.00  0.00    -0.648 OA
ENDBRANCH  18  19
ENDBRANCH  17  18
ENDBRANCH  16  17
BRANCH  16  22
HETATM   22  N           1     -19.645  -5.146  -6.485  0.00  0.00    -0.066 N 
HETATM   23  H           1     -19.297  -5.819  -5.765  0.00  0.00     0.275 HD
HETATM   24  H           1     -18.977  -5.115  -7.286  0.00  0.00     0.275 HD
HETATM   25  H           1     -19.727  -4.195  -6.061  0.00  0.00     0.275 HD
ENDBRANCH  16  22
ENDBRANCH   3  16
TORSDOF 10
ENDMDL
MODEL 3
REMARK VINA RESULT:      -6.4      2.362      6.848
REMARK  10 active torsions:
REMARK  status: ('A' for Active; 'I' for Inactive)
REMARK    1  A    between atoms: N_1  and  C_5 
REMARK       I    between atoms: N_1  and  C_16 
REMARK    2  A    between atoms: C_4  and  C_5 
REMARK    3  A    between atoms: C_5  and  C_6 
REMARK    4  A    between atoms: C_6  and  C_7 
REMARK    5  A    between atoms: C_7  and  C_24 
REMARK    6  A    between atoms: C_13  and  C_16 
REMARK    7  A    between atoms: C_13  and  C_14 
REMARK    8  A    between atoms: C_13  and  N_17 
REMARK    9  A    between atoms: C_14  and  C_15 
REMARK   10  A    between atoms: C_15  and  C_18 
REMARK       I    between atoms: C_24  and  N_25 
ROOT
HETATM    1  N           1     -35.562  -3.051 -11.125  0.00  0.00    -0.345 N 
HETATM    2  O           1     -34.418  -1.463 -10.050  0.00  0.00    -0.271 OA
HETATM    3  C           1     -35.445  -1.795 -10.593  0.00  0.00     0.249 C 
HETATM    4  H           1     -36.423  -3.328 -11.580  0.00  0.00     0.163 HD
ENDROOT
BRANCH   1   5
HETATM    5  C           1     -34.455  -3.982 -11.038  0.00  0.00     0.186 C 
BRANCH   5   6
HETATM    6  C           1     -33.641  -3.914 -12.308  0.00  0.00     0.196 C 
HETATM    7  O           1     -32.410  -4.128 -12.273  0.00  0.00    -0.646 OA
HETATM    8  O           1     -34.198  -3.643 -13.393  0.00  0.00    -0.646 OA
ENDBRANCH   5   6
BRANCH   5   9
HETATM    9  C           1     -34.993  -5.394 -10.854  0.00  0.00     0.045 C 
BRANCH   9  10
HETATM   10  C           1     -33.829  -6.371 -10.744  0.00  0.00     0.105 C 
BRANCH  10  11
HETATM   11  C           1     -34.327  -7.689 -10.205  0.00  0.00     0.215 C 
HETATM   12  O           1     -35.419  -7.759  -9.694  0.00  0.00    -0.274 OA
HETATM   13  N           1     -33.541  -8.806 -10.295  0.00  0.00    -0.370 N 
HETATM   14  H           1     -33.875  -9.690  -9.934  0.00  0.00     0.159 HD
HETATM   15  H           1     -32.626  -8.748 -10.723  0.00  0.00     0.159 HD
ENDBRANCH  10  11
ENDBRANCH   9  10
ENDBRANCH   5   9
ENDBRANCH   1   5
BRANCH   3  16
HETATM   16  C           1     -36.598  -0.826 -10.684  0.00  0.00     0.275 C 
BRANCH  16  17
HETATM   17  C           1     -36.800  -0.411 -12.136  0.00  0.00     0.053 C 
BRANCH  17  18
HETATM   18  C           1     -35.538   0.266 -12.652  0.00  0.00     0.115 C 
BRANCH  18  19
HETATM   19  C           1     -35.295  -0.145 -14.083  0.00  0.00     0.172 C 
HETATM   20  O           1     -35.973  -1.062 -14.593  0.00  0.00    -0.648 OA
HETATM   21  O           1     -34.415   0.432 -14.758  0.00  0.00    -0.648 OA
ENDBRANCH  18  19
ENDBRANCH  17  18
ENDBRANCH  16  17
BRANCH  16  22
HETATM   22  N           1     -36.297   0.388  -9.855  0.00  0.00    -0.066 N 
HETATM   23  H           1     -35.921   1.144 -10.470  0.00  0.00     0.275 HD
HETATM   24  H           1     -37.173   0.718  -9.392  0.00  0.00     0.275 HD
HETATM   25  H           1     -35.588   0.145  -9.128  0.00  0.00     0.275 HD
ENDBRANCH  16  22
ENDBRANCH   3  16
TORSDOF 10
ENDMDL
MODEL 4
REMARK VINA RESULT:      -6.3      2.013      3.021
REMARK  10 active torsions:
REMARK  status: ('A' for Active; 'I' for Inactive)
REMARK    1  A    between atoms: N_1  and  C_5 
REMARK       I    between atoms: N_1  and  C_16 
REMARK    2  A    between atoms: C_4  and  C_5 
REMARK    3  A    between atoms: C_5  and  C_6 
REMARK    4  A    between atoms: C_6  and  C_7 
REMARK    5  A    between atoms: C_7  and  C_24 
REMARK    6  A    between atoms: C_13  and  C_16 
REMARK    7  A    between atoms: C_13  and  C_14 
REMARK    8  A    between atoms: C_13  and  N_17 
REMARK    9  A    between atoms: C_14  and  C_15 
REMARK   10  A    between atoms: C_15  and  C_18 
REMARK       I    between atoms: C_24  and  N_25 
ROOT
HETATM    1  N           1     -35.574  -1.024 -13.563  0.00  0.00    -0.345 N 
HETATM    2  O           1     -34.924   0.442 -12.009  0.00  0.00    -0.271 OA
HETATM    3  C           1     -35.110  -0.712 -12.313  0.00  0.00     0.249 C 
HETATM    4  H           1     -35.729  -1.992 -13.817  0.00  0.00     0.163 HD
ENDROOT
BRANCH   1   5
HETATM    5  C           1     -35.842   0.030 -14.521  0.00  0.00     0.186 C 
BRANCH   5   6
HETATM    6  C           1     -37.300  -0.003 -14.908  0.00  0.00     0.196 C 
HETATM    7  O           1     -38.075  -0.818 -14.362  0.00  0.00    -0.646 OA
HETATM    8  O           1     -37.733   0.785 -15.777  0.00  0.00    -0.646 OA
ENDBRANCH   5   6
BRANCH   5   9
HETATM    9  C           1     -34.982  -0.180 -15.760  0.00  0.00     0.045 C 
BRANCH   9  10
HETATM   10  C           1     -35.533  -1.348 -16.568  0.00  0.00     0.105 C 
BRANCH  10  11
HETATM   11  C           1     -34.614  -2.535 -16.430  0.00  0.00     0.215 C 
HETATM   12  O           1     -34.645  -3.211 -15.429  0.00  0.00    -0.274 OA
HETATM   13  N           1     -33.742  -2.848 -17.439  0.00  0.00    -0.370 N 
HETATM   14  H           1     -33.126  -3.645 -17.346  0.00  0.00     0.159 HD
HETATM   15  H           1     -33.716  -2.282 -18.278  0.00  0.00     0.159 HD
ENDBRANCH  10  11
ENDBRANCH   9  10
ENDBRANCH   5   9
ENDBRANCH   1   5
BRANCH   3  16
HETATM   16  C           1     -34.831  -1.810 -11.316  0.00  0.00     0.275 C 
BRANCH  16  17
HETATM   17  C           1     -33.889  -2.833 -11.937  0.00  0.00     0.053 C 
BRANCH  17  18
HETATM   18  C           1     -33.725  -4.015 -10.991  0.00  0.00     0.115 C 
BRANCH  18  19
HETATM   19  C           1     -34.349  -5.243 -11.605  0.00  0.00     0.172 C 
HETATM   20  O           1     -35.066  -5.137 -12.624  0.00  0.00    -0.648 OA
HETATM   21  O           1     -34.147  -6.368 -11.097  0.00  0.00    -0.648 OA
ENDBRANCH  18  19
ENDBRANCH  17  18
ENDBRANCH  16  17
BRANCH  16  22
HETATM   22  N           1     -36.119  -2.481 -10.939  0.00  0.00    -0.066 N 
HETATM   23  H           1     -36.923  -1.906 -11.277  0.00  0.00     0.275 HD
HETATM   24  H           1     -36.158  -3.428 -11.378  0.00  0.00     0.275 HD
HETATM   25  H           1     -36.170  -2.576  -9.900  0.00  0.00     0.275 HD
ENDBRANCH  16  22
ENDBRANCH   3  16
TORSDOF 10
ENDMDL
MODEL 5
REMARK VINA RESULT:      -6.2     12.799     15.888
REMARK  10 active torsions:
REMARK  status: ('A' for Active; 'I' for Inactive)
REMARK    1  A    between atoms: N_1  and  C_5 
REMARK       I    between atoms: N_1  and  C_16 
REMARK    2  A    between atoms: C_4  and  C_5 
REMARK    3  A    between atoms: C_5  and  C_6 
REMARK    4  A    between atoms: C_6  and  C_7 
REMARK    5  A    between atoms: C_7  and  C_24 
REMARK    6  A    between atoms: C_13  and  C_16 
REMARK    7  A    between atoms: C_13  and  C_14 
REMARK    8  A    between atoms: C_13  and  N_17 
REMARK    9  A    between atoms: C_14  and  C_15 
REMARK   10  A    between atoms: C_15  and  C_18 
REMARK       I    between atoms: C_24  and  N_25 
ROOT
HETATM    1  N           1     -22.137  -5.282  -7.454  0.00  0.00    -0.345 N 
HETATM    2  O           1     -21.847  -3.119  -7.923  0.00  0.00    -0.271 OA
HETATM    3  C           1     -22.406  -4.157  -8.186  0.00  0.00     0.249 C 
HETATM    4  H           1     -22.606  -6.152  -7.674  0.00  0.00     0.163 HD
ENDROOT
BRANCH   1   5
HETATM    5  C           1     -21.182  -5.228  -6.366  0.00  0.00     0.186 C 
BRANCH   5   6
HETATM    6  C           1     -19.829  -5.679  -6.861  0.00  0.00     0.196 C 
HETATM    7  O           1     -19.558  -6.898  -6.917  0.00  0.00    -0.646 OA
HETATM    8  O           1     -18.981  -4.833  -7.215  0.00  0.00    -0.646 OA
ENDBRANCH   5   6
BRANCH   5   9
HETATM    9  C           1     -21.643  -6.146  -5.241  0.00  0.00     0.045 C 
BRANCH   9  10
HETATM   10  C           1     -20.905  -5.786  -3.957  0.00  0.00     0.105 C 
BRANCH  10  11
HETATM   11  C           1     -21.569  -6.468  -2.787  0.00  0.00     0.215 C 
HETATM   12  O           1     -22.547  -5.975  -2.277  0.00  0.00    -0.274 OA
HETATM   13  N           1     -21.064  -7.644  -2.303  0.00  0.00    -0.370 N 
HETATM   14  H           1     -21.509  -8.101  -1.518  0.00  0.00     0.159 HD
HETATM   15  H           1     -20.244  -8.057  -2.731  0.00  0.00     0.159 HD
ENDBRANCH  10  11
ENDBRANCH   9  10
ENDBRANCH   5   9
ENDBRANCH   1   5
BRANCH   3  16
HETATM   16  C           1     -23.401  -4.213  -9.320  0.00  0.00     0.275 C 
BRANCH  16  17
HETATM   17  C           1     -22.718  -3.799 -10.616  0.00  0.00     0.053 C 
BRANCH  17  18
HETATM   18  C           1     -23.357  -4.534 -11.786  0.00  0.00     0.115 C 
BRANCH  18  19
HETATM   19  C           1     -24.159  -3.561 -12.615  0.00  0.00     0.172 C 
HETATM   20  O           1     -23.849  -3.354 -13.808  0.00  0.00    -0.648 OA
HETATM   21  O           1     -25.133  -2.963 -12.109  0.00  0.00    -0.648 OA
ENDBRANCH  18  19
ENDBRANCH  17  18
ENDBRANCH  16  17
BRANCH  16  22
HETATM   22  N           1     -24.538  -3.277  -9.033  0.00  0.00    -0.066 N 
HETATM   23  H           1     -24.256  -2.607  -8.283  0.00  0.00     0.275 HD
HETATM   24  H           1     -24.779  -2.748  -9.901  0.00  0.00     0.275 HD
HETATM   25  H           1     -25.369  -3.825  -8.717  0.00  0.00     0.275 HD
ENDBRANCH  16  22
ENDBRANCH   3  16
TORSDOF 10
ENDMDL
MODEL 6
REMARK VINA RESULT:      -6.1      3.916      6.351
REMARK  10 active torsions:
REMARK  status: ('A' for Active; 'I' for Inactive)
REMARK    1  A    between atoms: N_1  and  C_5 
REMARK       I    between atoms: N_1  and  C_16 
REMARK    2  A    between atoms: C_4  and  C_5 
REMARK    3  A    between atoms: C_5  and  C_6 
REMARK    4  A    between atoms: C_6  and  C_7 
REMARK    5  A    between atoms: C_7  and  C_24 
REMARK    6  A    between atoms: C_13  and  C_16 
REMARK    7  A    between atoms: C_13  and  C_14 
REMARK    8  A    between atoms: C_13  and  N_17 
REMARK    9  A    between atoms: C_14  and  C_15 
REMARK   10  A    between atoms: C_15  and  C_18 
REMARK       I    between atoms: C_24  and  N_25 
ROOT
HETATM    1  N           1     -33.373  -3.980 -14.222  0.00  0.00    -0.345 N 
HETATM    2  O           1     -35.049  -4.891 -15.382  0.00  0.00    -0.271 OA
HETATM    3  C           1     -33.919  -4.465 -15.380  0.00  0.00     0.249 C 
HETATM    4  H           1     -32.425  -3.624 -14.221  0.00  0.00     0.163 HD
ENDROOT
BRANCH   1   5
HETATM    5  C           1     -34.151  -3.977 -12.999  0.00  0.00     0.186 C 
BRANCH   5   6
HETATM    6  C           1     -34.584  -2.566 -12.683  0.00  0.00     0.196 C 
HETATM    7  O           1     -33.970  -1.903 -11.819  0.00  0.00    -0.646 OA
HETATM    8  O           1     -35.556  -2.062 -13.284  0.00  0.00    -0.646 OA
ENDBRANCH   5   6
BRANCH   5   9
HETATM    9  C           1     -33.301  -4.516 -11.856  0.00  0.00     0.045 C 
BRANCH   9  10
HETATM   10  C           1     -34.201  -4.881 -10.682  0.00  0.00     0.105 C 
BRANCH  10  11
HETATM   11  C           1     -34.159  -6.371 -10.459  0.00  0.00     0.215 C 
HETATM   12  O           1     -35.066  -6.922  -9.882  0.00  0.00    -0.274 OA
HETATM   13  N           1     -33.091  -7.101 -10.908  0.00  0.00    -0.370 N 
HETATM   14  H           1     -33.063  -8.101 -10.758  0.00  0.00     0.159 HD
HETATM   15  H           1     -32.331  -6.640 -11.391  0.00  0.00     0.159 HD
ENDBRANCH  10  11
ENDBRANCH   9  10
ENDBRANCH   5   9
ENDBRANCH   1   5
BRANCH   3  16
HETATM   16  C           1     -33.108  -4.469 -16.653  0.00  0.00     0.275 C 
BRANCH  16  17
HETATM   17  C           1     -31.641  -4.706 -16.320  0.00  0.00     0.053 C 
BRANCH  17  18
HETATM   18  C           1     -31.143  -5.938 -17.063  0.00  0.00     0.115 C 
BRANCH  18  19
HETATM   19  C           1     -29.745  -6.273 -16.603  0.00  0.00     0.172 C 
HETATM   20  O           1     -29.017  -7.010 -17.302  0.00  0.00    -0.648 OA
HETATM   21  O           1     -29.316  -5.813 -15.522  0.00  0.00    -0.648 OA
ENDBRANCH  18  19
ENDBRANCH  17  18
ENDBRANCH  16  17
BRANCH  16  22
HETATM   22  N           1     -33.256  -3.145 -17.342  0.00  0.00    -0.066 N 
HETATM   23  H           1     -33.716  -2.465 -16.695  0.00  0.00     0.275 HD
HETATM   24  H           1     -32.313  -2.786 -17.612  0.00  0.00     0.275 HD
HETATM   25  H           1     -33.843  -3.262 -18.199  0.00  0.00     0.275 HD
ENDBRANCH  16  22
ENDBRANCH   3  16
TORSDOF 10
ENDMDL
MODEL 7
REMARK VINA RESULT:      -5.9     14.107     17.259
REMARK  10 active torsions:
REMARK  status: ('A' for Active; 'I' for Inactive)
REMARK    1  A    between atoms: N_1  and  C_5 
REMARK       I    between atoms: N_1  and  C_16 
REMARK    2  A    between atoms: C_4  and  C_5 
REMARK    3  A    between atoms: C_5  and  C_6 
REMARK    4  A    between atoms: C_6  and  C_7 
REMARK    5  A    between atoms: C_7  and  C_24 
REMARK    6  A    between atoms: C_13  and  C_16 
REMARK    7  A    between atoms: C_13  and  C_14 
REMARK    8  A    between atoms: C_13  and  N_17 
REMARK    9  A    between atoms: C_14  and  C_15 
REMARK   10  A    between atoms: C_15  and  C_18 
REMARK       I    between atoms: C_24  and  N_25 
ROOT
HETATM    1  N           1     -21.364  -6.368  -6.283  0.00  0.00    -0.345 N 
HETATM    2  O           1     -20.385  -4.364  -6.168  0.00  0.00    -0.271 OA
HETATM    3  C           1     -21.066  -5.135  -6.800  0.00  0.00     0.249 C 
HETATM    4  H           1     -21.935  -7.013  -6.813  0.00  0.00     0.163 HD
ENDROOT
BRANCH   1   5
HETATM    5  C           1     -20.861  -6.746  -4.978  0.00  0.00     0.186 C 
BRANCH   5   6
HETATM    6  C           1     -20.237  -8.118  -5.058  0.00  0.00     0.196 C 
HETATM    7  O           1     -20.600  -9.018  -4.270  0.00  0.00    -0.646 OA
HETATM    8  O           1     -19.356  -8.353  -5.913  0.00  0.00    -0.646 OA
ENDBRANCH   5   6
BRANCH   5   9
HETATM    9  C           1     -22.011  -6.770  -3.979  0.00  0.00     0.045 C 
BRANCH   9  10
HETATM   10  C           1     -21.566  -6.117  -2.676  0.00  0.00     0.105 C 
BRANCH  10  11
HETATM   11  C           1     -21.833  -7.055  -1.526  0.00  0.00     0.215 C 
HETATM   12  O           1     -22.754  -6.842  -0.774  0.00  0.00    -0.274 OA
HETATM   13  N           1     -21.032  -8.149  -1.333  0.00  0.00    -0.370 N 
HETATM   14  H           1     -21.211  -8.778  -0.562  0.00  0.00     0.159 HD
HETATM   15  H           1     -20.260  -8.327  -1.963  0.00  0.00     0.159 HD
ENDBRANCH  10  11
ENDBRANCH   9  10
ENDBRANCH   5   9
ENDBRANCH   1   5
BRANCH   3  16
HETATM   16  C           1     -21.590  -4.741  -8.160  0.00  0.00     0.275 C 
BRANCH  16  17
HETATM   17  C           1     -20.512  -3.975  -8.916  0.00  0.00     0.053 C 
BRANCH  17  18
HETATM   18  C           1     -20.377  -4.541 -10.323  0.00  0.00     0.115 C 
BRANCH  18  19
HETATM   19  C           1     -21.426  -3.926 -11.216  0.00  0.00     0.172 C 
HETATM   20  O           1     -21.324  -2.732 -11.570  0.00  0.00    -0.648 OA
HETATM   21  O           1     -22.397  -4.612 -11.605  0.00  0.00    -0.648 OA
ENDBRANCH  18  19
ENDBRANCH  17  18
ENDBRANCH  16  17
BRANCH  16  22
HETATM   22  N           1     -22.800  -3.869  -7.995  0.00  0.00    -0.066 N 
HETATM   23  H           1     -23.621  -4.460  -7.736  0.00  0.00     0.275 HD
HETATM   24  H           1     -22.622  -3.168  -7.241  0.00  0.00     0.275 HD
HETATM   25  H           1     -22.996  -3.374  -8.893  0.00  0.00     0.275 HD
ENDBRANCH  16  22
ENDBRANCH   3  16
TORSDOF 10
ENDMDL
MODEL 8
REMARK VINA RESULT:      -5.7     13.631     16.918
REMARK  10 active torsions:
REMARK  status: ('A' for Active; 'I' for Inactive)
REMARK    1  A    between atoms: N_1  and  C_5 
REMARK       I    between atoms: N_1  and  C_16 
REMARK    2  A    between atoms: C_4  and  C_5 
REMARK    3  A    between atoms: C_5  and  C_6 
REMARK    4  A    between atoms: C_6  and  C_7 
REMARK    5  A    between atoms: C_7  and  C_24 
REMARK    6  A    between atoms: C_13  and  C_16 
REMARK    7  A    between atoms: C_13  and  C_14 
REMARK    8  A    between atoms: C_13  and  N_17 
REMARK    9  A    between atoms: C_14  and  C_15 
REMARK   10  A    between atoms: C_15  and  C_18 
REMARK       I    between atoms: C_24  and  N_25 
ROOT
HETATM    1  N           1     -20.855  -6.332  -6.246  0.00  0.00    -0.345 N 
HETATM    2  O           1     -20.193  -4.379  -5.389  0.00  0.00    -0.271 OA
HETATM    3  C           1     -20.633  -4.985  -6.338  0.00  0.00     0.249 C 
HETATM    4  H           1     -21.224  -6.839  -7.042  0.00  0.00     0.163 HD
ENDROOT
BRANCH   1   5
HETATM    5  C           1     -20.564  -7.033  -5.011  0.00  0.00     0.186 C 
BRANCH   5   6
HETATM    6  C           1     -20.167  -8.455  -5.322  0.00  0.00     0.196 C 
HETATM    7  O           1     -19.013  -8.855  -5.053  0.00  0.00    -0.646 OA
HETATM    8  O           1     -20.990  -9.232  -5.850  0.00  0.00    -0.646 OA
ENDBRANCH   5   6
BRANCH   5   9
HETATM    9  C           1     -21.802  -7.033  -4.125  0.00  0.00     0.045 C 
BRANCH   9  10
HETATM   10  C           1     -21.458  -7.643  -2.772  0.00  0.00     0.105 C 
BRANCH  10  11
HETATM   11  C           1     -22.092  -6.826  -1.675  0.00  0.00     0.215 C 
HETATM   12  O           1     -22.495  -7.368  -0.673  0.00  0.00    -0.274 OA
HETATM   13  N           1     -22.212  -5.469  -1.813  0.00  0.00    -0.370 N 
HETATM   14  H           1     -22.637  -4.921  -1.077  0.00  0.00     0.159 HD
HETATM   15  H           1     -21.875  -5.015  -2.652  0.00  0.00     0.159 HD
ENDBRANCH  10  11
ENDBRANCH   9  10
ENDBRANCH   5   9
ENDBRANCH   1   5
BRANCH   3  16
HETATM   16  C           1     -20.936  -4.255  -7.624  0.00  0.00     0.275 C 
BRANCH  16  17
HETATM   17  C           1     -22.433  -4.315  -7.901  0.00  0.00     0.053 C 
BRANCH  17  18
HETATM   18  C           1     -22.725  -3.692  -9.259  0.00  0.00     0.115 C 
BRANCH  18  19
HETATM   19  C           1     -24.196  -3.821  -9.567  0.00  0.00     0.172 C 
HETATM   20  O           1     -24.946  -2.826  -9.466  0.00  0.00    -0.648 OA
HETATM   21  O           1     -24.666  -4.923  -9.924  0.00  0.00    -0.648 OA
ENDBRANCH  18  19
ENDBRANCH  17  18
ENDBRANCH  16  17
BRANCH  16  22
HETATM   22  N           1     -20.194  -4.906  -8.754  0.00  0.00    -0.066 N 
HETATM   23  H           1     -19.273  -4.430  -8.885  0.00  0.00     0.275 HD
HETATM   24  H           1     -20.036  -5.914  -8.531  0.00  0.00     0.275 HD
HETATM   25  H           1     -20.755  -4.826  -9.631  0.00  0.00     0.275 HD
ENDBRANCH  16  22
ENDBRANCH   3  16
TORSDOF 10
ENDMDL
MODEL 9
REMARK VINA RESULT:      -5.7     14.254     16.498
REMARK  10 active torsions:
REMARK  status: ('A' for Active; 'I' for Inactive)
REMARK    1  A    between atoms: N_1  and  C_5 
REMARK       I    between atoms: N_1  and  C_16 
REMARK    2  A    between atoms: C_4  and  C_5 
REMARK    3  A    between atoms: C_5  and  C_6 
REMARK    4  A    between atoms: C_6  and  C_7 
REMARK    5  A    between atoms: C_7  and  C_24 
REMARK    6  A    between atoms: C_13  and  C_16 
REMARK    7  A    between atoms: C_13  and  C_14 
REMARK    8  A    between atoms: C_13  and  N_17 
REMARK    9  A    between atoms: C_14  and  C_15 
REMARK   10  A    between atoms: C_15  and  C_18 
REMARK       I    between atoms: C_24  and  N_25 
ROOT
HETATM    1  N           1     -21.593  -5.662  -4.903  0.00  0.00    -0.345 N 
HETATM    2  O           1     -20.957  -7.794  -4.705  0.00  0.00    -0.271 OA
HETATM    3  C           1     -21.290  -6.770  -4.157  0.00  0.00     0.249 C 
HETATM    4  H           1     -21.872  -4.805  -4.443  0.00  0.00     0.163 HD
ENDROOT
BRANCH   1   5
HETATM    5  C           1     -21.513  -5.718  -6.349  0.00  0.00     0.186 C 
BRANCH   5   6
HETATM    6  C           1     -20.071  -5.599  -6.777  0.00  0.00     0.196 C 
HETATM    7  O           1     -19.562  -6.475  -7.510  0.00  0.00    -0.646 OA
HETATM    8  O           1     -19.386  -4.625  -6.399  0.00  0.00    -0.646 OA
ENDBRANCH   5   6
BRANCH   5   9
HETATM    9  C           1     -22.317  -4.571  -6.945  0.00  0.00     0.045 C 
BRANCH   9  10
HETATM   10  C           1     -21.907  -4.365  -8.398  0.00  0.00     0.105 C 
BRANCH  10  11
HETATM   11  C           1     -23.081  -3.834  -9.182  0.00  0.00     0.215 C 
HETATM   12  O           1     -22.945  -3.535 -10.344  0.00  0.00    -0.274 OA
HETATM   13  N           1     -24.301  -3.690  -8.577  0.00  0.00    -0.370 N 
HETATM   14  H           1     -25.088  -3.334  -9.103  0.00  0.00     0.159 HD
HETATM   15  H           1     -24.414  -3.941  -7.603  0.00  0.00     0.159 HD
ENDBRANCH  10  11
ENDBRANCH   9  10
ENDBRANCH   5   9
ENDBRANCH   1   5
BRANCH   3  16
HETATM   16  C           1     -21.373  -6.711  -2.651  0.00  0.00     0.275 C 
BRANCH  16  17
HETATM   17  C           1     -21.599  -8.114  -2.100  0.00  0.00     0.053 C 
BRANCH  17  18
HETATM   18  C           1     -20.807  -8.288  -0.812  0.00  0.00     0.115 C 
BRANCH  18  19
HETATM   19  C           1     -21.736  -8.170   0.371  0.00  0.00     0.172 C 
HETATM   20  O           1     -22.915  -7.789   0.204  0.00  0.00    -0.648 OA
HETATM   21  O           1     -21.328  -8.455   1.518  0.00  0.00    -0.648 OA
ENDBRANCH  18  19
ENDBRANCH  17  18
ENDBRANCH  16  17
BRANCH  16  22
HETATM   22  N           1     -22.515  -5.827  -2.248  0.00  0.00    -0.066 N 
HETATM   23  H           1     -23.179  -5.729  -3.049  0.00  0.00     0.275 HD
HETATM   24  H           1     -23.012  -6.251  -1.433  0.00  0.00     0.275 HD
HETATM   25  H           1     -22.149  -4.885  -1.982  0.00  0.00     0.275 HD
ENDBRANCH  16  22
ENDBRANCH   3  16
TORSDOF 10
ENDMDL
