MODEL 1
REMARK VINA RESULT:      -6.0      0.000      0.000
REMARK  8 active torsions:
REMARK  status: ('A' for Active; 'I' for Inactive)
REMARK    1  A    between atoms: C_2  and  C_4 
REMARK    2  A    between atoms: C_4  and  C_5 
REMARK    3  A    between atoms: C_5  and  C_14 
REMARK    4  A    between atoms: C_5  and  N_11 
REMARK    5  A    between atoms: N_8  and  C_20 
REMARK    6  A    between atoms: S_9  and  C_16 
REMARK       I    between atoms: N_11  and  C_19 
REMARK    7  A    between atoms: C_16  and  C_20 
REMARK    8  A    between atoms: C_19  and  C_20 
ROOT
HETATM    1  O           1     -37.016  -1.105 -13.190  0.00  0.00    -0.271 OA
HETATM    2  H           1     -34.346   0.051 -12.016  0.00  0.00     0.163 HD
HETATM    3  N           1     -35.170  -0.534 -12.071  0.00  0.00    -0.345 N 
HETATM    4  C           1     -36.032  -0.405 -13.126  0.00  0.00     0.249 C 
ENDROOT
BRANCH   3   5
HETATM    5  C           1     -35.436  -1.509 -11.031  0.00  0.00     0.185 C 
BRANCH   5   6
HETATM    6  C           1     -34.119  -1.983 -10.431  0.00  0.00     0.040 C 
BRANCH   6   7
HETATM    7  C           1     -33.966  -3.480 -10.659  0.00  0.00    -0.020 C 
HETATM    8  C           1     -35.281  -4.051 -11.173  0.00  0.00     0.009 C 
HETATM    9  C           1     -32.868  -3.728 -11.685  0.00  0.00     0.009 C 
ENDBRANCH   6   7
ENDBRANCH   5   6
BRANCH   5  10
HETATM   10  C           1     -36.282  -0.875  -9.953  0.00  0.00     0.196 C 
HETATM   11  O           1     -37.528  -0.877 -10.056  0.00  0.00    -0.646 OA
HETATM   12  O           1     -35.737  -0.350  -8.959  0.00  0.00    -0.646 OA
ENDBRANCH   5  10
ENDBRANCH   3   5
BRANCH   4  13
HETATM   13  C           1     -35.755   0.609 -14.208  0.00  0.00     0.283 C 
BRANCH  13  14
HETATM   14  N           1     -34.318   0.513 -14.625  0.00  0.00    -0.066 N 
HETATM   15  H           1     -34.247   0.629 -15.662  0.00  0.00     0.275 HD
HETATM   16  H           1     -33.767   1.264 -14.154  0.00  0.00     0.275 HD
HETATM   17  H           1     -33.938  -0.422 -14.353  0.00  0.00     0.275 HD
ENDBRANCH  13  14
BRANCH  13  18
HETATM   18  C           1     -36.652   0.330 -15.407  0.00  0.00     0.113 C 
BRANCH  18  19
HETATM   19  S           1     -35.861  -0.898 -16.482  0.00  0.00    -0.180 SA
HETATM   20  H           1     -36.041  -0.219 -17.629  0.00  0.00     0.101 HD
ENDBRANCH  18  19
ENDBRANCH  13  18
ENDBRANCH   4  13
TORSDOF 8
ENDMDL
MODEL 2
REMARK VINA RESULT:      -5.6     12.453     14.447
REMARK  8 active torsions:
REMARK  status: ('A' for Active; 'I' for Inactive)
REMARK    1  A    between atoms: C_2  and  C_4 
REMARK    2  A    between atoms: C_4  and  C_5 
REMARK    3  A    between atoms: C_5  and  C_14 
REMARK    4  A    between atoms: C_5  and  N_11 
REMARK    5  A    between atoms: N_8  and  C_20 
REMARK    6  A    between atoms: S_9  and  C_16 
REMARK       I    between atoms: N_11  and  C_19 
REMARK    7  A    between atoms: C_16  and  C_20 
REMARK    8  A    between atoms: C_19  and  C_20 
ROOT
HETATM    1  O           1     -21.426  -3.313  -7.938  0.00  0.00    -0.271 OA
HETATM    2  H           1     -23.915  -5.123  -8.551  0.00  0.00     0.163 HD
HETATM    3  N           1     -23.202  -4.423  -8.714  0.00  0.00    -0.345 N 
HETATM    4  C           1     -22.277  -4.149  -7.743  0.00  0.00     0.249 C 
ENDROOT
BRANCH   3   5
HETATM    5  C           1     -23.162  -3.710  -9.977  0.00  0.00     0.185 C 
BRANCH   5   6
HETATM    6  C           1     -22.648  -4.640 -11.068  0.00  0.00     0.040 C 
BRANCH   6   7
HETATM    7  C           1     -21.316  -4.122 -11.591  0.00  0.00    -0.020 C 
HETATM    8  C           1     -21.297  -2.601 -11.513  0.00  0.00     0.009 C 
HETATM    9  C           1     -20.183  -4.688 -10.745  0.00  0.00     0.009 C 
ENDBRANCH   6   7
ENDBRANCH   5   6
BRANCH   5  10
HETATM   10  C           1     -24.550  -3.237 -10.330  0.00  0.00     0.196 C 
HETATM   11  O           1     -24.914  -3.205 -11.526  0.00  0.00    -0.646 OA
HETATM   12  O           1     -25.337  -2.877  -9.428  0.00  0.00    -0.646 OA
ENDBRANCH   5  10
ENDBRANCH   3   5
BRANCH   4  13
HETATM   13  C           1     -22.319  -4.891  -6.430  0.00  0.00     0.283 C 
BRANCH  13  14
HETATM   14  N           1     -23.730  -5.306  -6.136  0.00  0.00    -0.066 N 
HETATM   15  H           1     -24.373  -4.498  -6.301  0.00  0.00     0.275 HD
HETATM   16  H           1     -23.998  -6.097  -6.763  0.00  0.00     0.275 HD
HETATM   17  H           1     -23.802  -5.610  -5.139  0.00  0.00     0.275 HD
ENDBRANCH  13  14
BRANCH  13  18
HETATM   18  C           1     -21.434  -6.127  -6.516  0.00  0.00     0.113 C 
BRANCH  18  19
HETATM   19  S           1     -21.725  -7.182  -5.069  0.00  0.00    -0.180 SA
HETATM   20  H           1     -22.482  -6.296  -4.398  0.00  0.00     0.101 HD
ENDBRANCH  18  19
ENDBRANCH  13  18
ENDBRANCH   4  13
TORSDOF 8
ENDMDL
MODEL 3
REMARK VINA RESULT:      -5.6      3.534      5.357
REMARK  8 active torsions:
REMARK  status: ('A' for Active; 'I' for Inactive)
REMARK    1  A    between atoms: C_2  and  C_4 
REMARK    2  A    between atoms: C_4  and  C_5 
REMARK    3  A    between atoms: C_5  and  C_14 
REMARK    4  A    between atoms: C_5  and  N_11 
REMARK    5  A    between atoms: N_8  and  C_20 
REMARK    6  A    between atoms: S_9  and  C_16 
REMARK       I    between atoms: N_11  and  C_19 
REMARK    7  A    between atoms: C_16  and  C_20 
REMARK    8  A    between atoms: C_19  and  C_20 
ROOT
HETATM    1  O           1     -37.784  -0.845 -10.178  0.00  0.00    -0.271 OA
HETATM    2  H           1     -34.675  -0.879  -9.756  0.00  0.00     0.163 HD
HETATM    3  N           1     -35.560  -1.054 -10.214  0.00  0.00    -0.345 N 
HETATM    4  C           1     -36.726  -0.636  -9.631  0.00  0.00     0.249 C 
ENDROOT
BRANCH   3   5
HETATM    5  C           1     -35.594  -1.749 -11.487  0.00  0.00     0.185 C 
BRANCH   5   6
HETATM    6  C           1     -34.776  -0.971 -12.510  0.00  0.00     0.040 C 
BRANCH   6   7
HETATM    7  C           1     -35.552   0.263 -12.949  0.00  0.00    -0.020 C 
HETATM    8  C           1     -34.740   1.031 -13.983  0.00  0.00     0.009 C 
HETATM    9  C           1     -36.880  -0.165 -13.561  0.00  0.00     0.009 C 
ENDBRANCH   6   7
ENDBRANCH   5   6
BRANCH   5  10
HETATM   10  C           1     -35.011  -3.131 -11.320  0.00  0.00     0.196 C 
HETATM   11  O           1     -34.060  -3.316 -10.529  0.00  0.00    -0.646 OA
HETATM   12  O           1     -35.478  -4.089 -11.971  0.00  0.00    -0.646 OA
ENDBRANCH   5  10
ENDBRANCH   3   5
BRANCH   4  13
HETATM   13  C           1     -36.692   0.087  -8.308  0.00  0.00     0.283 C 
BRANCH  13  14
HETATM   14  N           1     -36.449   1.548  -8.543  0.00  0.00    -0.066 N 
HETATM   15  H           1     -35.692   1.884  -7.903  0.00  0.00     0.275 HD
HETATM   16  H           1     -36.157   1.698  -9.534  0.00  0.00     0.275 HD
HETATM   17  H           1     -37.327   2.082  -8.352  0.00  0.00     0.275 HD
ENDBRANCH  13  14
BRANCH  13  18
HETATM   18  C           1     -38.024  -0.097  -7.593  0.00  0.00     0.113 C 
BRANCH  18  19
HETATM   19  S           1     -37.882   0.496  -5.884  0.00  0.00    -0.180 SA
HETATM   20  H           1     -39.126   1.002  -5.807  0.00  0.00     0.101 HD
ENDBRANCH  18  19
ENDBRANCH  13  18
ENDBRANCH   4  13
TORSDOF 8
ENDMDL
MODEL 4
REMARK VINA RESULT:      -5.2     12.969     14.719
REMARK  8 active torsions:
REMARK  status: ('A' for Active; 'I' for Inactive)
REMARK    1  A    between atoms: C_2  and  C_4 
REMARK    2  A    between atoms: C_4  and  C_5 
REMARK    3  A    between atoms: C_5  and  C_14 
REMARK    4  A    between atoms: C_5  and  N_11 
REMARK    5  A    between atoms: N_8  and  C_20 
REMARK    6  A    between atoms: S_9  and  C_16 
REMARK       I    between atoms: N_11  and  C_19 
REMARK    7  A    between atoms: C_16  and  C_20 
REMARK    8  A    between atoms: C_19  and  C_20 
ROOT
HETATM    1  O           1     -23.706  -4.015  -7.772  0.00  0.00    -0.271 OA
HETATM    2  H           1     -21.722  -5.354  -9.801  0.00  0.00     0.163 HD
HETATM    3  N           1     -22.037  -4.941  -8.932  0.00  0.00    -0.345 N 
HETATM    4  C           1     -23.330  -4.508  -8.810  0.00  0.00     0.249 C 
ENDROOT
BRANCH   3   5
HETATM    5  C           1     -21.118  -4.808  -7.817  0.00  0.00     0.185 C 
BRANCH   5   6
HETATM    6  C           1     -20.868  -6.178  -7.202  0.00  0.00     0.040 C 
BRANCH   6   7
HETATM    7  C           1     -21.519  -6.244  -5.827  0.00  0.00    -0.020 C 
HETATM    8  C           1     -21.522  -7.686  -5.336  0.00  0.00     0.009 C 
HETATM    9  C           1     -20.733  -5.377  -4.852  0.00  0.00     0.009 C 
ENDBRANCH   6   7
ENDBRANCH   5   6
BRANCH   5  10
HETATM   10  C           1     -19.814  -4.230  -8.308  0.00  0.00     0.196 C 
HETATM   11  O           1     -18.790  -4.304  -7.595  0.00  0.00    -0.646 OA
HETATM   12  O           1     -19.757  -3.677  -9.427  0.00  0.00    -0.646 OA
ENDBRANCH   5  10
ENDBRANCH   3   5
BRANCH   4  13
HETATM   13  C           1     -24.285  -4.646  -9.969  0.00  0.00     0.283 C 
BRANCH  13  14
HETATM   14  N           1     -25.350  -3.594  -9.866  0.00  0.00    -0.066 N 
HETATM   15  H           1     -26.292  -4.047  -9.894  0.00  0.00     0.275 HD
HETATM   16  H           1     -25.241  -3.074  -8.967  0.00  0.00     0.275 HD
HETATM   17  H           1     -25.260  -2.929 -10.667  0.00  0.00     0.275 HD
ENDBRANCH  13  14
BRANCH  13  18
HETATM   18  C           1     -23.525  -4.472 -11.277  0.00  0.00     0.113 C 
BRANCH  18  19
HETATM   19  S           1     -24.287  -3.142 -12.249  0.00  0.00    -0.180 SA
HETATM   20  H           1     -24.192  -3.764 -13.437  0.00  0.00     0.101 HD
ENDBRANCH  18  19
ENDBRANCH  13  18
ENDBRANCH   4  13
TORSDOF 8
ENDMDL
MODEL 5
REMARK VINA RESULT:      -5.2     13.753     15.451
REMARK  8 active torsions:
REMARK  status: ('A' for Active; 'I' for Inactive)
REMARK    1  A    between atoms: C_2  and  C_4 
REMARK    2  A    between atoms: C_4  and  C_5 
REMARK    3  A    between atoms: C_5  and  C_14 
REMARK    4  A    between atoms: C_5  and  N_11 
REMARK    5  A    between atoms: N_8  and  C_20 
REMARK    6  A    between atoms: S_9  and  C_16 
REMARK       I    between atoms: N_11  and  C_19 
REMARK    7  A    between atoms: C_16  and  C_20 
REMARK    8  A    between atoms: C_19  and  C_20 
ROOT
HETATM    1  O           1     -21.893  -3.250  -7.462  0.00  0.00    -0.271 OA
HETATM    2  H           1     -22.852  -6.236  -7.393  0.00  0.00     0.163 HD
HETATM    3  N           1     -22.368  -5.401  -7.092  0.00  0.00    -0.345 N 
HETATM    4  C           1     -22.472  -4.248  -7.822  0.00  0.00     0.249 C 
ENDROOT
BRANCH   3   5
HETATM    5  C           1     -21.563  -5.425  -5.885  0.00  0.00     0.185 C 
BRANCH   5   6
HETATM    6  C           1     -22.043  -6.550  -4.978  0.00  0.00     0.040 C 
BRANCH   6   7
HETATM    7  C           1     -21.206  -6.570  -3.706  0.00  0.00    -0.020 C 
HETATM    8  C           1     -22.071  -6.159  -2.522  0.00  0.00     0.009 C 
HETATM    9  C           1     -20.666  -7.975  -3.477  0.00  0.00     0.009 C 
ENDBRANCH   6   7
ENDBRANCH   5   6
BRANCH   5  10
HETATM   10  C           1     -20.117  -5.656  -6.251  0.00  0.00     0.196 C 
HETATM   11  O           1     -19.270  -4.759  -6.046  0.00  0.00    -0.646 OA
HETATM   12  O           1     -19.766  -6.743  -6.759  0.00  0.00    -0.646 OA
ENDBRANCH   5  10
ENDBRANCH   3   5
BRANCH   4  13
HETATM   13  C           1     -23.309  -4.223  -9.077  0.00  0.00     0.283 C 
BRANCH  13  14
HETATM   14  N           1     -24.499  -3.334  -8.865  0.00  0.00    -0.066 N 
HETATM   15  H           1     -24.999  -3.622  -7.993  0.00  0.00     0.275 HD
HETATM   16  H           1     -24.181  -2.343  -8.771  0.00  0.00     0.275 HD
HETATM   17  H           1     -25.146  -3.418  -9.681  0.00  0.00     0.275 HD
ENDBRANCH  13  14
BRANCH  13  18
HETATM   18  C           1     -22.476  -3.687 -10.234  0.00  0.00     0.113 C 
BRANCH  18  19
HETATM   19  S           1     -23.573  -3.163 -11.580  0.00  0.00    -0.180 SA
HETATM   20  H           1     -24.401  -4.221 -11.506  0.00  0.00     0.101 HD
ENDBRANCH  18  19
ENDBRANCH  13  18
ENDBRANCH   4  13
TORSDOF 8
ENDMDL
MODEL 6
REMARK VINA RESULT:      -5.1      1.679      2.286
REMARK  8 active torsions:
REMARK  status: ('A' for Active; 'I' for Inactive)
REMARK    1  A    between atoms: C_2  and  C_4 
REMARK    2  A    between atoms: C_4  and  C_5 
REMARK    3  A    between atoms: C_5  and  C_14 
REMARK    4  A    between atoms: C_5  and  N_11 
REMARK    5  A    between atoms: N_8  and  C_20 
REMARK    6  A    between atoms: S_9  and  C_16 
REMARK       I    between atoms: N_11  and  C_19 
REMARK    7  A    between atoms: C_16  and  C_20 
REMARK    8  A    between atoms: C_19  and  C_20 
ROOT
HETATM    1  O           1     -36.523  -0.582 -12.137  0.00  0.00    -0.271 OA
HETATM    2  H           1     -34.192  -1.714 -13.907  0.00  0.00     0.163 HD
HETATM    3  N           1     -34.835  -1.659 -13.127  0.00  0.00    -0.345 N 
HETATM    4  C           1     -35.755  -0.647 -13.068  0.00  0.00     0.249 C 
ENDROOT
BRANCH   3   5
HETATM    5  C           1     -34.781  -2.653 -12.072  0.00  0.00     0.185 C 
BRANCH   5   6
HETATM    6  C           1     -34.300  -3.978 -12.648  0.00  0.00     0.040 C 
BRANCH   6   7
HETATM    7  C           1     -34.833  -5.124 -11.798  0.00  0.00    -0.020 C 
HETATM    8  C           1     -33.672  -5.826 -11.108  0.00  0.00     0.009 C 
HETATM    9  C           1     -35.791  -4.575 -10.749  0.00  0.00     0.009 C 
ENDBRANCH   6   7
ENDBRANCH   5   6
BRANCH   5  10
HETATM   10  C           1     -33.825  -2.193 -10.998  0.00  0.00     0.196 C 
HETATM   11  O           1     -32.616  -2.507 -11.062  0.00  0.00    -0.646 OA
HETATM   12  O           1     -34.241  -1.498 -10.047  0.00  0.00    -0.646 OA
ENDBRANCH   5  10
ENDBRANCH   3   5
BRANCH   4  13
HETATM   13  C           1     -35.812   0.386 -14.166  0.00  0.00     0.283 C 
BRANCH  13  14
HETATM   14  N           1     -34.461   0.506 -14.808  0.00  0.00    -0.066 N 
HETATM   15  H           1     -34.551   1.015 -15.717  0.00  0.00     0.275 HD
HETATM   16  H           1     -33.821   1.036 -14.176  0.00  0.00     0.275 HD
HETATM   17  H           1     -34.072  -0.448 -14.980  0.00  0.00     0.275 HD
ENDBRANCH  13  14
BRANCH  13  18
HETATM   18  C           1     -36.834  -0.038 -15.212  0.00  0.00     0.113 C 
BRANCH  18  19
HETATM   19  S           1     -35.994  -0.908 -16.564  0.00  0.00    -0.180 SA
HETATM   20  H           1     -37.109  -1.410 -17.123  0.00  0.00     0.101 HD
ENDBRANCH  18  19
ENDBRANCH  13  18
ENDBRANCH   4  13
TORSDOF 8
ENDMDL
MODEL 7
REMARK VINA RESULT:      -5.0      3.270      4.323
REMARK  8 active torsions:
REMARK  status: ('A' for Active; 'I' for Inactive)
REMARK    1  A    between atoms: C_2  and  C_4 
REMARK    2  A    between atoms: C_4  and  C_5 
REMARK    3  A    between atoms: C_5  and  C_14 
REMARK    4  A    between atoms: C_5  and  N_11 
REMARK    5  A    between atoms: N_8  and  C_20 
REMARK    6  A    between atoms: S_9  and  C_16 
REMARK       I    between atoms: N_11  and  C_19 
REMARK    7  A    between atoms: C_16  and  C_20 
REMARK    8  A    between atoms: C_19  and  C_20 
ROOT
HETATM    1  O           1     -37.360  -1.380 -11.308  0.00  0.00    -0.271 OA
HETATM    2  H           1     -35.151  -0.459  -9.278  0.00  0.00     0.163 HD
HETATM    3  N           1     -35.544  -0.905 -10.097  0.00  0.00    -0.345 N 
HETATM    4  C           1     -36.892  -0.847 -10.329  0.00  0.00     0.249 C 
ENDROOT
BRANCH   3   5
HETATM    5  C           1     -34.678  -1.608 -11.025  0.00  0.00     0.185 C 
BRANCH   5   6
HETATM    6  C           1     -35.083  -3.074 -11.086  0.00  0.00     0.040 C 
BRANCH   6   7
HETATM    7  C           1     -33.914  -3.943 -10.642  0.00  0.00    -0.020 C 
HETATM    8  C           1     -34.379  -5.386 -10.500  0.00  0.00     0.009 C 
HETATM    9  C           1     -32.803  -3.867 -11.681  0.00  0.00     0.009 C 
ENDBRANCH   6   7
ENDBRANCH   5   6
BRANCH   5  10
HETATM   10  C           1     -34.807  -0.991 -12.397  0.00  0.00     0.196 C 
HETATM   11  O           1     -34.996  -1.721 -13.394  0.00  0.00    -0.646 OA
HETATM   12  O           1     -34.726   0.248 -12.535  0.00  0.00    -0.646 OA
ENDBRANCH   5  10
ENDBRANCH   3   5
BRANCH   4  13
HETATM   13  C           1     -37.792  -0.117  -9.364  0.00  0.00     0.283 C 
BRANCH  13  14
HETATM   14  N           1     -37.806  -0.839  -8.050  0.00  0.00    -0.066 N 
HETATM   15  H           1     -38.394  -0.310  -7.366  0.00  0.00     0.275 HD
HETATM   16  H           1     -38.204  -1.796  -8.182  0.00  0.00     0.275 HD
HETATM   17  H           1     -36.830  -0.914  -7.684  0.00  0.00     0.275 HD
ENDBRANCH  13  14
BRANCH  13  18
HETATM   18  C           1     -37.275   1.301  -9.158  0.00  0.00     0.113 C 
BRANCH  18  19
HETATM   19  S           1     -37.145   1.647  -7.382  0.00  0.00    -0.180 SA
HETATM   20  H           1     -38.352   2.228  -7.264  0.00  0.00     0.101 HD
ENDBRANCH  18  19
ENDBRANCH  13  18
ENDBRANCH   4  13
TORSDOF 8
ENDMDL
MODEL 8
REMARK VINA RESULT:      -4.9      3.257      5.171
REMARK  8 active torsions:
REMARK  status: ('A' for Active; 'I' for Inactive)
REMARK    1  A    between atoms: C_2  and  C_4 
REMARK    2  A    between atoms: C_4  and  C_5 
REMARK    3  A    between atoms: C_5  and  C_14 
REMARK    4  A    between atoms: C_5  and  N_11 
REMARK    5  A    between atoms: N_8  and  C_20 
REMARK    6  A    between atoms: S_9  and  C_16 
REMARK       I    between atoms: N_11  and  C_19 
REMARK    7  A    between atoms: C_16  and  C_20 
REMARK    8  A    between atoms: C_19  and  C_20 
ROOT
HETATM    1  O           1     -38.073  -1.139 -11.278  0.00  0.00    -0.271 OA
HETATM    2  H           1     -35.717   0.816 -10.592  0.00  0.00     0.163 HD
HETATM    3  N           1     -36.231   0.113 -11.107  0.00  0.00    -0.345 N 
HETATM    4  C           1     -37.459  -0.299 -10.663  0.00  0.00     0.249 C 
ENDROOT
BRANCH   3   5
HETATM    5  C           1     -35.667  -0.458 -12.315  0.00  0.00     0.185 C 
BRANCH   5   6
HETATM    6  C           1     -35.020   0.644 -13.143  0.00  0.00     0.040 C 
BRANCH   6   7
HETATM    7  C           1     -35.390   0.463 -14.608  0.00  0.00    -0.020 C 
HETATM    8  C           1     -36.770  -0.173 -14.708  0.00  0.00     0.009 C 
HETATM    9  C           1     -35.405   1.820 -15.299  0.00  0.00     0.009 C 
ENDBRANCH   6   7
ENDBRANCH   5   6
BRANCH   5  10
HETATM   10  C           1     -34.628  -1.488 -11.945  0.00  0.00     0.196 C 
HETATM   11  O           1     -34.344  -2.405 -12.747  0.00  0.00    -0.646 OA
HETATM   12  O           1     -34.051  -1.424 -10.839  0.00  0.00    -0.646 OA
ENDBRANCH   5  10
ENDBRANCH   3   5
BRANCH   4  13
HETATM   13  C           1     -38.045   0.295  -9.406  0.00  0.00     0.283 C 
BRANCH  13  14
HETATM   14  N           1     -38.035  -0.734  -8.315  0.00  0.00    -0.066 N 
HETATM   15  H           1     -37.047  -0.965  -8.062  0.00  0.00     0.275 HD
HETATM   16  H           1     -38.529  -0.358  -7.476  0.00  0.00     0.275 HD
HETATM   17  H           1     -38.519  -1.598  -8.648  0.00  0.00     0.275 HD
ENDBRANCH  13  14
BRANCH  13  18
HETATM   18  C           1     -37.215   1.497  -8.977  0.00  0.00     0.113 C 
BRANCH  18  19
HETATM   19  S           1     -37.014   1.483  -7.174  0.00  0.00    -0.180 SA
HETATM   20  H           1     -38.308   1.256  -6.890  0.00  0.00     0.101 HD
ENDBRANCH  18  19
ENDBRANCH  13  18
ENDBRANCH   4  13
TORSDOF 8
ENDMDL
MODEL 9
REMARK VINA RESULT:      -4.8     16.178     18.098
REMARK  8 active torsions:
REMARK  status: ('A' for Active; 'I' for Inactive)
REMARK    1  A    between atoms: C_2  and  C_4 
REMARK    2  A    between atoms: C_4  and  C_5 
REMARK    3  A    between atoms: C_5  and  C_14 
REMARK    4  A    between atoms: C_5  and  N_11 
REMARK    5  A    between atoms: N_8  and  C_20 
REMARK    6  A    between atoms: S_9  and  C_16 
REMARK       I    between atoms: N_11  and  C_19 
REMARK    7  A    between atoms: C_16  and  C_20 
REMARK    8  A    between atoms: C_19  and  C_20 
ROOT
HETATM    1  O           1     -19.319  -8.611  -4.172  0.00  0.00    -0.271 OA
HETATM    2  H           1     -21.483  -8.540  -6.443  0.00  0.00     0.163 HD
HETATM    3  N           1     -20.848  -8.180  -5.742  0.00  0.00    -0.345 N 
HETATM    4  C           1     -20.078  -9.042  -5.009  0.00  0.00     0.249 C 
ENDROOT
BRANCH   3   5
HETATM    5  C           1     -20.756  -6.750  -5.514  0.00  0.00     0.185 C 
BRANCH   5   6
HETATM    6  C           1     -20.837  -6.018  -6.846  0.00  0.00     0.040 C 
BRANCH   6   7
HETATM    7  C           1     -20.291  -4.606  -6.684  0.00  0.00    -0.020 C 
HETATM    8  C           1     -19.004  -4.465  -7.486  0.00  0.00     0.009 C 
HETATM    9  C           1     -21.319  -3.603  -7.193  0.00  0.00     0.009 C 
ENDBRANCH   6   7
ENDBRANCH   5   6
BRANCH   5  10
HETATM   10  C           1     -21.894  -6.309  -4.626  0.00  0.00     0.196 C 
HETATM   11  O           1     -23.053  -6.232  -5.088  0.00  0.00    -0.646 OA
HETATM   12  O           1     -21.677  -6.022  -3.429  0.00  0.00    -0.646 OA
ENDBRANCH   5  10
ENDBRANCH   3   5
BRANCH   4  13
HETATM   13  C           1     -20.174 -10.528  -5.247  0.00  0.00     0.283 C 
BRANCH  13  14
HETATM   14  N           1     -21.168 -10.796  -6.338  0.00  0.00    -0.066 N 
HETATM   15  H           1     -20.862 -10.316  -7.215  0.00  0.00     0.275 HD
HETATM   16  H           1     -21.229 -11.824  -6.508  0.00  0.00     0.275 HD
HETATM   17  H           1     -22.105 -10.432  -6.051  0.00  0.00     0.275 HD
ENDBRANCH  13  14
BRANCH  13  18
HETATM   18  C           1     -18.810 -11.066  -5.660  0.00  0.00     0.113 C 
BRANCH  18  19
HETATM   19  S           1     -19.004 -12.187  -7.073  0.00  0.00    -0.180 SA
HETATM   20  H           1     -17.778 -11.980  -7.586  0.00  0.00     0.101 HD
ENDBRANCH  18  19
ENDBRANCH  13  18
ENDBRANCH   4  13
TORSDOF 8
ENDMDL
