MODEL 1
REMARK VINA RESULT:      -7.8      0.000      0.000
REMARK  10 active torsions:
REMARK  status: ('A' for Active; 'I' for Inactive)
REMARK    1  A    between atoms: C_5  and  C_25 
REMARK    2  A    between atoms: C_5  and  C_14 
REMARK    3  A    between atoms: C_6  and  C_14 
REMARK    4  A    between atoms: N_7  and  C_14 
REMARK       I    between atoms: N_7  and  C_8 
REMARK    5  A    between atoms: C_8  and  C_9 
REMARK    6  A    between atoms: C_9  and  C_27 
REMARK    7  A    between atoms: C_9  and  N_21 
REMARK       I    between atoms: N_12  and  C_15 
REMARK    8  A    between atoms: N_12  and  C_29 
REMARK       I    between atoms: N_13  and  C_15 
REMARK    9  A    between atoms: C_25  and  C_29 
REMARK   10  A    between atoms: C_26  and  C_27 
ROOT
HETATM    1  C           1     -22.645  -3.793  -9.582  0.00  0.00     0.185 C 
ENDROOT
BRANCH   1   2
HETATM    2  C           1     -22.026  -3.857 -10.972  0.00  0.00     0.038 C 
BRANCH   2   3
HETATM    3  C           1     -22.394  -2.601 -11.750  0.00  0.00     0.023 C 
BRANCH   3   4
HETATM    4  C           1     -23.091  -2.993 -13.048  0.00  0.00     0.138 C 
BRANCH   4   5
HETATM    5  N           1     -23.874  -1.854 -13.548  0.00  0.00    -0.227 N 
HETATM    6  H           1     -24.611  -1.417 -12.942  0.00  0.00     0.177 HD
HETATM    7  C           1     -23.660  -1.399 -14.710  0.00  0.00     0.665 C 
HETATM    8  N           1     -22.771  -1.926 -15.442  0.00  0.00    -0.235 N 
HETATM    9  N           1     -24.353  -0.392 -15.152  0.00  0.00    -0.235 N 
HETATM   10  H           1     -22.211  -2.740 -15.085  0.00  0.00     0.174 HD
HETATM   11  H           1     -22.593  -1.550 -16.406  0.00  0.00     0.174 HD
HETATM   12  H           1     -25.086   0.042 -14.548  0.00  0.00     0.174 HD
HETATM   13  H           1     -24.175  -0.018 -16.111  0.00  0.00     0.174 HD
ENDBRANCH   4   5
ENDBRANCH   3   4
ENDBRANCH   2   3
ENDBRANCH   1   2
BRANCH   1  14
HETATM   14  C           1     -24.148  -3.845  -9.697  0.00  0.00     0.196 C 
HETATM   15  O           1     -24.830  -2.826  -9.448  0.00  0.00    -0.646 OA
HETATM   16  O           1     -24.713  -4.905 -10.044  0.00  0.00    -0.646 OA
ENDBRANCH   1  14
BRANCH   1  17
HETATM   17  N           1     -22.182  -4.921  -8.796  0.00  0.00    -0.345 N 
HETATM   18  C           1     -21.531  -4.708  -7.610  0.00  0.00     0.249 C 
HETATM   19  O           1     -21.342  -3.581  -7.218  0.00  0.00    -0.271 OA
HETATM   20  H           1     -22.341  -5.865  -9.124  0.00  0.00     0.163 HD
BRANCH  18  21
HETATM   21  C           1     -21.049  -5.881  -6.793  0.00  0.00     0.275 C 
BRANCH  21  22
HETATM   22  C           1     -20.944  -5.472  -5.329  0.00  0.00     0.046 C 
BRANCH  22  23
HETATM   23  C           1     -21.846  -6.363  -4.486  0.00  0.00    -0.020 C 
HETATM   24  C           1     -21.501  -6.185  -3.014  0.00  0.00     0.009 C 
HETATM   25  C           1     -21.639  -7.818  -4.883  0.00  0.00     0.009 C 
ENDBRANCH  22  23
ENDBRANCH  21  22
BRANCH  21  26
HETATM   26  N           1     -19.702  -6.316  -7.288  0.00  0.00    -0.066 N 
HETATM   27  H           1     -19.042  -6.391  -6.481  0.00  0.00     0.275 HD
HETATM   28  H           1     -19.787  -7.247  -7.756  0.00  0.00     0.275 HD
HETATM   29  H           1     -19.338  -5.615  -7.971  0.00  0.00     0.275 HD
ENDBRANCH  21  26
ENDBRANCH  18  21
ENDBRANCH   1  17
TORSDOF 10
ENDMDL
MODEL 2
REMARK VINA RESULT:      -6.7      2.212      3.141
REMARK  10 active torsions:
REMARK  status: ('A' for Active; 'I' for Inactive)
REMARK    1  A    between atoms: C_5  and  C_25 
REMARK    2  A    between atoms: C_5  and  C_14 
REMARK    3  A    between atoms: C_6  and  C_14 
REMARK    4  A    between atoms: N_7  and  C_14 
REMARK       I    between atoms: N_7  and  C_8 
REMARK    5  A    between atoms: C_8  and  C_9 
REMARK    6  A    between atoms: C_9  and  C_27 
REMARK    7  A    between atoms: C_9  and  N_21 
REMARK       I    between atoms: N_12  and  C_15 
REMARK    8  A    between atoms: N_12  and  C_29 
REMARK       I    between atoms: N_13  and  C_15 
REMARK    9  A    between atoms: C_25  and  C_29 
REMARK   10  A    between atoms: C_26  and  C_27 
ROOT
HETATM    1  C           1     -21.606  -4.820  -8.312  0.00  0.00     0.185 C 
ENDROOT
BRANCH   1   2
HETATM    2  C           1     -22.630  -3.755  -8.683  0.00  0.00     0.038 C 
BRANCH   2   3
HETATM    3  C           1     -23.840  -4.416  -9.329  0.00  0.00     0.023 C 
BRANCH   3   4
HETATM    4  C           1     -23.528  -4.738 -10.785  0.00  0.00     0.138 C 
BRANCH   4   5
HETATM    5  N           1     -23.923  -3.604 -11.634  0.00  0.00    -0.227 N 
HETATM    6  H           1     -24.883  -3.190 -11.544  0.00  0.00     0.177 HD
HETATM    7  C           1     -23.104  -3.127 -12.473  0.00  0.00     0.665 C 
HETATM    8  N           1     -21.945  -3.626 -12.582  0.00  0.00    -0.235 N 
HETATM    9  N           1     -23.453  -2.124 -13.223  0.00  0.00    -0.235 N 
HETATM   10  H           1     -21.663  -4.436 -11.976  0.00  0.00     0.174 HD
HETATM   11  H           1     -21.266  -3.230 -13.278  0.00  0.00     0.174 HD
HETATM   12  H           1     -24.409  -1.712 -13.133  0.00  0.00     0.174 HD
HETATM   13  H           1     -22.777  -1.730 -13.916  0.00  0.00     0.174 HD
ENDBRANCH   4   5
ENDBRANCH   3   4
ENDBRANCH   2   3
ENDBRANCH   1   2
BRANCH   1  14
HETATM   14  C           1     -20.269  -4.464  -8.915  0.00  0.00     0.196 C 
HETATM   15  O           1     -19.365  -3.987  -8.193  0.00  0.00    -0.646 OA
HETATM   16  O           1     -20.064  -4.646 -10.135  0.00  0.00    -0.646 OA
ENDBRANCH   1  14
BRANCH   1  17
HETATM   17  N           1     -21.482  -4.886  -6.869  0.00  0.00    -0.345 N 
HETATM   18  C           1     -21.259  -6.090  -6.256  0.00  0.00     0.249 C 
HETATM   19  O           1     -21.165  -7.097  -6.917  0.00  0.00    -0.271 OA
HETATM   20  H           1     -21.559  -4.043  -6.315  0.00  0.00     0.163 HD
BRANCH  18  21
HETATM   21  C           1     -21.130  -6.160  -4.755  0.00  0.00     0.275 C 
BRANCH  21  22
HETATM   22  C           1     -20.449  -7.465  -4.363  0.00  0.00     0.046 C 
BRANCH  22  23
HETATM   23  C           1     -21.244  -8.140  -3.253  0.00  0.00    -0.020 C 
HETATM   24  C           1     -20.402  -8.189  -1.985  0.00  0.00     0.009 C 
HETATM   25  C           1     -21.607  -9.556  -3.676  0.00  0.00     0.009 C 
ENDBRANCH  22  23
ENDBRANCH  21  22
BRANCH  21  26
HETATM   26  N           1     -22.493  -6.102  -4.132  0.00  0.00    -0.066 N 
HETATM   27  H           1     -22.713  -7.021  -3.687  0.00  0.00     0.275 HD
HETATM   28  H           1     -22.512  -5.349  -3.406  0.00  0.00     0.275 HD
HETATM   29  H           1     -23.204  -5.893  -4.868  0.00  0.00     0.275 HD
ENDBRANCH  21  26
ENDBRANCH  18  21
ENDBRANCH   1  17
TORSDOF 10
ENDMDL
MODEL 3
REMARK VINA RESULT:      -6.5      2.961      4.603
REMARK  10 active torsions:
REMARK  status: ('A' for Active; 'I' for Inactive)
REMARK    1  A    between atoms: C_5  and  C_25 
REMARK    2  A    between atoms: C_5  and  C_14 
REMARK    3  A    between atoms: C_6  and  C_14 
REMARK    4  A    between atoms: N_7  and  C_14 
REMARK       I    between atoms: N_7  and  C_8 
REMARK    5  A    between atoms: C_8  and  C_9 
REMARK    6  A    between atoms: C_9  and  C_27 
REMARK    7  A    between atoms: C_9  and  N_21 
REMARK       I    between atoms: N_12  and  C_15 
REMARK    8  A    between atoms: N_12  and  C_29 
REMARK       I    between atoms: N_13  and  C_15 
REMARK    9  A    between atoms: C_25  and  C_29 
REMARK   10  A    between atoms: C_26  and  C_27 
ROOT
HETATM    1  C           1     -21.321  -5.666  -6.344  0.00  0.00     0.185 C 
ENDROOT
BRANCH   1   2
HETATM    2  C           1     -22.069  -4.505  -6.985  0.00  0.00     0.038 C 
BRANCH   2   3
HETATM    3  C           1     -22.358  -4.831  -8.444  0.00  0.00     0.023 C 
BRANCH   3   4
HETATM    4  C           1     -21.788  -3.733  -9.334  0.00  0.00     0.138 C 
BRANCH   4   5
HETATM    5  N           1     -22.285  -3.906 -10.707  0.00  0.00    -0.227 N 
HETATM    6  H           1     -23.234  -4.323 -10.873  0.00  0.00     0.177 HD
HETATM    7  C           1     -21.569  -3.551 -11.688  0.00  0.00     0.665 C 
HETATM    8  N           1     -20.425  -3.047 -11.488  0.00  0.00    -0.235 N 
HETATM    9  N           1     -22.009  -3.704 -12.902  0.00  0.00    -0.235 N 
HETATM   10  H           1     -20.070  -2.924 -10.508  0.00  0.00     0.174 HD
HETATM   11  H           1     -19.831  -2.753 -12.302  0.00  0.00     0.174 HD
HETATM   12  H           1     -22.953  -4.119 -13.067  0.00  0.00     0.174 HD
HETATM   13  H           1     -21.418  -3.411 -13.712  0.00  0.00     0.174 HD
ENDBRANCH   4   5
ENDBRANCH   3   4
ENDBRANCH   2   3
ENDBRANCH   1   2
BRANCH   1  14
HETATM   14  C           1     -19.905  -5.701  -6.864  0.00  0.00     0.196 C 
HETATM   15  O           1     -19.247  -4.641  -6.956  0.00  0.00    -0.646 OA
HETATM   16  O           1     -19.388  -6.789  -7.201  0.00  0.00    -0.646 OA
ENDBRANCH   1  14
BRANCH   1  17
HETATM   17  N           1     -21.301  -5.491  -4.904  0.00  0.00    -0.345 N 
HETATM   18  C           1     -21.244  -6.584  -4.082  0.00  0.00     0.249 C 
HETATM   19  O           1     -21.209  -7.695  -4.555  0.00  0.00    -0.271 OA
HETATM   20  H           1     -21.330  -4.560  -4.507  0.00  0.00     0.163 HD
BRANCH  18  21
HETATM   21  C           1     -21.224  -6.402  -2.584  0.00  0.00     0.275 C 
BRANCH  21  22
HETATM   22  C           1     -20.804  -7.706  -1.919  0.00  0.00     0.046 C 
BRANCH  22  23
HETATM   23  C           1     -21.946  -8.229  -1.059  0.00  0.00    -0.020 C 
HETATM   24  C           1     -21.527  -8.211   0.405  0.00  0.00     0.009 C 
HETATM   25  C           1     -22.283  -9.655  -1.473  0.00  0.00     0.009 C 
ENDBRANCH  22  23
ENDBRANCH  21  22
BRANCH  21  26
HETATM   26  N           1     -22.593  -6.017  -2.110  0.00  0.00    -0.066 N 
HETATM   27  H           1     -23.310  -6.399  -2.767  0.00  0.00     0.275 HD
HETATM   28  H           1     -22.753  -6.410  -1.153  0.00  0.00     0.275 HD
HETATM   29  H           1     -22.672  -4.977  -2.076  0.00  0.00     0.275 HD
ENDBRANCH  21  26
ENDBRANCH  18  21
ENDBRANCH   1  17
TORSDOF 10
ENDMDL
MODEL 4
REMARK VINA RESULT:      -6.5      2.723      8.113
REMARK  10 active torsions:
REMARK  status: ('A' for Active; 'I' for Inactive)
REMARK    1  A    between atoms: C_5  and  C_25 
REMARK    2  A    between atoms: C_5  and  C_14 
REMARK    3  A    between atoms: C_6  and  C_14 
REMARK    4  A    between atoms: N_7  and  C_14 
REMARK       I    between atoms: N_7  and  C_8 
REMARK    5  A    between atoms: C_8  and  C_9 
REMARK    6  A    between atoms: C_9  and  C_27 
REMARK    7  A    between atoms: C_9  and  N_21 
REMARK       I    between atoms: N_12  and  C_15 
REMARK    8  A    between atoms: N_12  and  C_29 
REMARK       I    between atoms: N_13  and  C_15 
REMARK    9  A    between atoms: C_25  and  C_29 
REMARK   10  A    between atoms: C_26  and  C_27 
ROOT
HETATM    1  C           1     -21.066  -4.315  -7.489  0.00  0.00     0.185 C 
ENDROOT
BRANCH   1   2
HETATM    2  C           1     -21.039  -5.041  -6.150  0.00  0.00     0.038 C 
BRANCH   2   3
HETATM    3  C           1     -21.213  -6.536  -6.379  0.00  0.00     0.023 C 
BRANCH   3   4
HETATM    4  C           1     -21.339  -7.246  -5.036  0.00  0.00     0.138 C 
BRANCH   4   5
HETATM    5  N           1     -21.943  -6.334  -4.054  0.00  0.00    -0.227 N 
HETATM    6  H           1     -22.523  -5.522  -4.380  0.00  0.00     0.177 HD
HETATM    7  C           1     -21.765  -6.528  -2.816  0.00  0.00     0.665 C 
HETATM    8  N           1     -21.065  -7.508  -2.424  0.00  0.00    -0.235 N 
HETATM    9  N           1     -22.300  -5.722  -1.948  0.00  0.00    -0.235 N 
HETATM   10  H           1     -20.633  -8.159  -3.125  0.00  0.00     0.174 HD
HETATM   11  H           1     -20.917  -7.669  -1.397  0.00  0.00     0.174 HD
HETATM   12  H           1     -22.877  -4.914  -2.272  0.00  0.00     0.174 HD
HETATM   13  H           1     -22.152  -5.883  -0.926  0.00  0.00     0.174 HD
ENDBRANCH   4   5
ENDBRANCH   3   4
ENDBRANCH   2   3
ENDBRANCH   1   2
BRANCH   1  14
HETATM   14  C           1     -19.728  -4.467  -8.170  0.00  0.00     0.196 C 
HETATM   15  O           1     -19.676  -4.722  -9.394  0.00  0.00    -0.646 OA
HETATM   16  O           1     -18.672  -4.337  -7.513  0.00  0.00    -0.646 OA
ENDBRANCH   1  14
BRANCH   1  17
HETATM   17  N           1     -22.102  -4.888  -8.327  0.00  0.00    -0.345 N 
HETATM   18  C           1     -23.095  -4.090  -8.828  0.00  0.00     0.249 C 
HETATM   19  O           1     -23.109  -2.909  -8.573  0.00  0.00    -0.271 OA
HETATM   20  H           1     -22.090  -5.877  -8.541  0.00  0.00     0.163 HD
BRANCH  18  21
HETATM   21  C           1     -24.173  -4.686  -9.700  0.00  0.00     0.275 C 
BRANCH  21  22
HETATM   22  C           1     -23.648  -4.846 -11.120  0.00  0.00     0.046 C 
BRANCH  22  23
HETATM   23  C           1     -23.269  -3.482 -11.679  0.00  0.00    -0.020 C 
HETATM   24  C           1     -24.071  -3.213 -12.946  0.00  0.00     0.009 C 
HETATM   25  C           1     -21.782  -3.461 -12.007  0.00  0.00     0.009 C 
ENDBRANCH  22  23
ENDBRANCH  21  22
BRANCH  21  26
HETATM   26  N           1     -25.367  -3.778  -9.708  0.00  0.00    -0.066 N 
HETATM   27  H           1     -25.708  -3.641  -8.730  0.00  0.00     0.275 HD
HETATM   28  H           1     -25.098  -2.853 -10.116  0.00  0.00     0.275 HD
HETATM   29  H           1     -26.126  -4.204 -10.285  0.00  0.00     0.275 HD
ENDBRANCH  21  26
ENDBRANCH  18  21
ENDBRANCH   1  17
TORSDOF 10
ENDMDL
MODEL 5
REMARK VINA RESULT:      -6.5      3.385      4.780
REMARK  10 active torsions:
REMARK  status: ('A' for Active; 'I' for Inactive)
REMARK    1  A    between atoms: C_5  and  C_25 
REMARK    2  A    between atoms: C_5  and  C_14 
REMARK    3  A    between atoms: C_6  and  C_14 
REMARK    4  A    between atoms: N_7  and  C_14 
REMARK       I    between atoms: N_7  and  C_8 
REMARK    5  A    between atoms: C_8  and  C_9 
REMARK    6  A    between atoms: C_9  and  C_27 
REMARK    7  A    between atoms: C_9  and  N_21 
REMARK       I    between atoms: N_12  and  C_15 
REMARK    8  A    between atoms: N_12  and  C_29 
REMARK       I    between atoms: N_13  and  C_15 
REMARK    9  A    between atoms: C_25  and  C_29 
REMARK   10  A    between atoms: C_26  and  C_27 
ROOT
HETATM    1  C           1     -21.157  -5.866  -6.552  0.00  0.00     0.185 C 
ENDROOT
BRANCH   1   2
HETATM    2  C           1     -22.276  -5.026  -7.154  0.00  0.00     0.038 C 
BRANCH   2   3
HETATM    3  C           1     -22.061  -4.894  -8.656  0.00  0.00     0.023 C 
BRANCH   3   4
HETATM    4  C           1     -22.603  -3.552  -9.131  0.00  0.00     0.138 C 
BRANCH   4   5
HETATM    5  N           1     -24.044  -3.477  -8.851  0.00  0.00    -0.227 N 
HETATM    6  H           1     -24.385  -3.445  -7.859  0.00  0.00     0.177 HD
HETATM    7  C           1     -24.874  -3.450  -9.806  0.00  0.00     0.665 C 
HETATM    8  N           1     -24.463  -3.489 -11.004  0.00  0.00    -0.235 N 
HETATM    9  N           1     -26.149  -3.384  -9.559  0.00  0.00    -0.235 N 
HETATM   10  H           1     -23.434  -3.542 -11.204  0.00  0.00     0.174 HD
HETATM   11  H           1     -25.152  -3.467 -11.796  0.00  0.00     0.174 HD
HETATM   12  H           1     -26.487  -3.352  -8.571  0.00  0.00     0.174 HD
HETATM   13  H           1     -26.833  -3.362 -10.347  0.00  0.00     0.174 HD
ENDBRANCH   4   5
ENDBRANCH   3   4
ENDBRANCH   2   3
ENDBRANCH   1   2
BRANCH   1  14
HETATM   14  C           1     -19.973  -4.981  -6.246  0.00  0.00     0.196 C 
HETATM   15  O           1     -19.041  -4.876  -7.073  0.00  0.00    -0.646 OA
HETATM   16  O           1     -19.925  -4.351  -5.167  0.00  0.00    -0.646 OA
ENDBRANCH   1  14
BRANCH   1  17
HETATM   17  N           1     -21.625  -6.486  -5.327  0.00  0.00    -0.345 N 
HETATM   18  C           1     -21.156  -7.720  -4.963  0.00  0.00     0.249 C 
HETATM   19  O           1     -20.353  -8.291  -5.660  0.00  0.00    -0.271 OA
HETATM   20  H           1     -22.298  -6.007  -4.743  0.00  0.00     0.163 HD
BRANCH  18  21
HETATM   21  C           1     -21.643  -8.365  -3.689  0.00  0.00     0.275 C 
BRANCH  21  22
HETATM   22  C           1     -20.629  -8.126  -2.578  0.00  0.00     0.046 C 
BRANCH  22  23
HETATM   23  C           1     -21.334  -7.528  -1.368  0.00  0.00    -0.020 C 
HETATM   24  C           1     -22.218  -8.586  -0.722  0.00  0.00     0.009 C 
HETATM   25  C           1     -22.193  -6.351  -1.809  0.00  0.00     0.009 C 
ENDBRANCH  22  23
ENDBRANCH  21  22
BRANCH  21  26
HETATM   26  N           1     -21.805  -9.840  -3.907  0.00  0.00    -0.066 N 
HETATM   27  H           1     -21.879 -10.035  -4.931  0.00  0.00     0.275 HD
HETATM   28  H           1     -20.976 -10.344  -3.516  0.00  0.00     0.275 HD
HETATM   29  H           1     -22.672 -10.171  -3.427  0.00  0.00     0.275 HD
ENDBRANCH  21  26
ENDBRANCH  18  21
ENDBRANCH   1  17
TORSDOF 10
ENDMDL
MODEL 6
REMARK VINA RESULT:      -6.3      4.208      9.496
REMARK  10 active torsions:
REMARK  status: ('A' for Active; 'I' for Inactive)
REMARK    1  A    between atoms: C_5  and  C_25 
REMARK    2  A    between atoms: C_5  and  C_14 
REMARK    3  A    between atoms: C_6  and  C_14 
REMARK    4  A    between atoms: N_7  and  C_14 
REMARK       I    between atoms: N_7  and  C_8 
REMARK    5  A    between atoms: C_8  and  C_9 
REMARK    6  A    between atoms: C_9  and  C_27 
REMARK    7  A    between atoms: C_9  and  N_21 
REMARK       I    between atoms: N_12  and  C_15 
REMARK    8  A    between atoms: N_12  and  C_29 
REMARK       I    between atoms: N_13  and  C_15 
REMARK    9  A    between atoms: C_25  and  C_29 
REMARK   10  A    between atoms: C_26  and  C_27 
ROOT
HETATM    1  C           1     -20.683  -7.431  -4.677  0.00  0.00     0.185 C 
ENDROOT
BRANCH   1   2
HETATM    2  C           1     -20.645  -7.174  -3.176  0.00  0.00     0.038 C 
BRANCH   2   3
HETATM    3  C           1     -21.754  -6.200  -2.800  0.00  0.00     0.023 C 
BRANCH   3   4
HETATM    4  C           1     -22.329  -6.584  -1.442  0.00  0.00     0.138 C 
BRANCH   4   5
HETATM    5  N           1     -22.048  -8.002  -1.173  0.00  0.00    -0.227 N 
HETATM    6  H           1     -21.364  -8.525  -1.773  0.00  0.00     0.177 HD
HETATM    7  C           1     -22.630  -8.592  -0.216  0.00  0.00     0.665 C 
HETATM    8  N           1     -23.455  -7.961   0.509  0.00  0.00    -0.235 N 
HETATM    9  N           1     -22.382  -9.845   0.022  0.00  0.00    -0.235 N 
HETATM   10  H           1     -23.656  -6.949   0.316  0.00  0.00     0.174 HD
HETATM   11  H           1     -23.938  -8.451   1.302  0.00  0.00     0.174 HD
HETATM   12  H           1     -21.701 -10.365  -0.576  0.00  0.00     0.174 HD
HETATM   13  H           1     -22.863 -10.332   0.811  0.00  0.00     0.174 HD
ENDBRANCH   4   5
ENDBRANCH   3   4
ENDBRANCH   2   3
ENDBRANCH   1   2
BRANCH   1  14
HETATM   14  C           1     -21.271  -8.796  -4.939  0.00  0.00     0.196 C 
HETATM   15  O           1     -21.934  -9.372  -4.048  0.00  0.00    -0.646 OA
HETATM   16  O           1     -21.097  -9.351  -6.045  0.00  0.00    -0.646 OA
ENDBRANCH   1  14
BRANCH   1  17
HETATM   17  N           1     -21.503  -6.422  -5.319  0.00  0.00    -0.345 N 
HETATM   18  C           1     -21.129  -5.905  -6.531  0.00  0.00     0.249 C 
HETATM   19  O           1     -20.117  -6.290  -7.065  0.00  0.00    -0.271 OA
HETATM   20  H           1     -22.351  -6.100  -4.871  0.00  0.00     0.163 HD
BRANCH  18  21
HETATM   21  C           1     -21.982  -4.855  -7.198  0.00  0.00     0.275 C 
BRANCH  21  22
HETATM   22  C           1     -21.863  -4.990  -8.711  0.00  0.00     0.046 C 
BRANCH  22  23
HETATM   23  C           1     -22.705  -3.915  -9.385  0.00  0.00    -0.020 C 
HETATM   24  C           1     -24.078  -4.482  -9.720  0.00  0.00     0.009 C 
HETATM   25  C           1     -22.019  -3.459 -10.665  0.00  0.00     0.009 C 
ENDBRANCH  22  23
ENDBRANCH  21  22
BRANCH  21  26
HETATM   26  N           1     -21.516  -3.492  -6.780  0.00  0.00    -0.066 N 
HETATM   27  H           1     -22.028  -2.765  -7.328  0.00  0.00     0.275 HD
HETATM   28  H           1     -21.705  -3.358  -5.760  0.00  0.00     0.275 HD
HETATM   29  H           1     -20.490  -3.404  -6.958  0.00  0.00     0.275 HD
ENDBRANCH  21  26
ENDBRANCH  18  21
ENDBRANCH   1  17
TORSDOF 10
ENDMDL
MODEL 7
REMARK VINA RESULT:      -6.1      3.504      9.340
REMARK  10 active torsions:
REMARK  status: ('A' for Active; 'I' for Inactive)
REMARK    1  A    between atoms: C_5  and  C_25 
REMARK    2  A    between atoms: C_5  and  C_14 
REMARK    3  A    between atoms: C_6  and  C_14 
REMARK    4  A    between atoms: N_7  and  C_14 
REMARK       I    between atoms: N_7  and  C_8 
REMARK    5  A    between atoms: C_8  and  C_9 
REMARK    6  A    between atoms: C_9  and  C_27 
REMARK    7  A    between atoms: C_9  and  N_21 
REMARK       I    between atoms: N_12  and  C_15 
REMARK    8  A    between atoms: N_12  and  C_29 
REMARK       I    between atoms: N_13  and  C_15 
REMARK    9  A    between atoms: C_25  and  C_29 
REMARK   10  A    between atoms: C_26  and  C_27 
ROOT
HETATM    1  C           1     -21.227  -5.898  -5.698  0.00  0.00     0.185 C 
ENDROOT
BRANCH   1   2
HETATM    2  C           1     -22.034  -6.417  -4.515  0.00  0.00     0.038 C 
BRANCH   2   3
HETATM    3  C           1     -21.374  -5.974  -3.216  0.00  0.00     0.023 C 
BRANCH   3   4
HETATM    4  C           1     -22.172  -6.506  -2.032  0.00  0.00     0.138 C 
BRANCH   4   5
HETATM    5  N           1     -21.383  -7.526  -1.326  0.00  0.00    -0.227 N 
HETATM    6  H           1     -20.443  -7.811  -1.696  0.00  0.00     0.177 HD
HETATM    7  C           1     -21.836  -8.059  -0.271  0.00  0.00     0.665 C 
HETATM    8  N           1     -22.970  -7.714   0.176  0.00  0.00    -0.235 N 
HETATM    9  N           1     -21.137  -8.960   0.353  0.00  0.00    -0.235 N 
HETATM   10  H           1     -23.534  -6.986  -0.329  0.00  0.00     0.174 HD
HETATM   11  H           1     -23.345  -8.157   1.050  0.00  0.00     0.174 HD
HETATM   12  H           1     -20.202  -9.244  -0.016  0.00  0.00     0.174 HD
HETATM   13  H           1     -21.512  -9.400   1.224  0.00  0.00     0.174 HD
ENDBRANCH   4   5
ENDBRANCH   3   4
ENDBRANCH   2   3
ENDBRANCH   1   2
BRANCH   1  14
HETATM   14  C           1     -20.163  -6.904  -6.061  0.00  0.00     0.196 C 
HETATM   15  O           1     -20.152  -8.027  -5.512  0.00  0.00    -0.646 OA
HETATM   16  O           1     -19.293  -6.615  -6.912  0.00  0.00    -0.646 OA
ENDBRANCH   1  14
BRANCH   1  17
HETATM   17  N           1     -22.109  -5.698  -6.833  0.00  0.00    -0.345 N 
HETATM   18  C           1     -21.991  -4.571  -7.601  0.00  0.00     0.249 C 
HETATM   19  O           1     -21.153  -3.743  -7.335  0.00  0.00    -0.271 OA
HETATM   20  H           1     -22.811  -6.392  -7.056  0.00  0.00     0.163 HD
BRANCH  18  21
HETATM   21  C           1     -22.909  -4.364  -8.780  0.00  0.00     0.275 C 
BRANCH  21  22
HETATM   22  C           1     -22.190  -3.545  -9.845  0.00  0.00     0.046 C 
BRANCH  22  23
HETATM   23  C           1     -22.224  -4.293 -11.171  0.00  0.00    -0.020 C 
HETATM   24  C           1     -22.114  -3.297 -12.317  0.00  0.00     0.009 C 
HETATM   25  C           1     -23.534  -5.059 -11.289  0.00  0.00     0.009 C 
ENDBRANCH  22  23
ENDBRANCH  21  22
BRANCH  21  26
HETATM   26  N           1     -24.140  -3.632  -8.334  0.00  0.00    -0.066 N 
HETATM   27  H           1     -24.257  -2.766  -8.906  0.00  0.00     0.275 HD
HETATM   28  H           1     -24.975  -4.249  -8.459  0.00  0.00     0.275 HD
HETATM   29  H           1     -24.046  -3.374  -7.326  0.00  0.00     0.275 HD
ENDBRANCH  21  26
ENDBRANCH  18  21
ENDBRANCH   1  17
TORSDOF 10
ENDMDL
MODEL 8
REMARK VINA RESULT:      -6.0      5.371      7.711
REMARK  10 active torsions:
REMARK  status: ('A' for Active; 'I' for Inactive)
REMARK    1  A    between atoms: C_5  and  C_25 
REMARK    2  A    between atoms: C_5  and  C_14 
REMARK    3  A    between atoms: C_6  and  C_14 
REMARK    4  A    between atoms: N_7  and  C_14 
REMARK       I    between atoms: N_7  and  C_8 
REMARK    5  A    between atoms: C_8  and  C_9 
REMARK    6  A    between atoms: C_9  and  C_27 
REMARK    7  A    between atoms: C_9  and  N_21 
REMARK       I    between atoms: N_12  and  C_15 
REMARK    8  A    between atoms: N_12  and  C_29 
REMARK       I    between atoms: N_13  and  C_15 
REMARK    9  A    between atoms: C_25  and  C_29 
REMARK   10  A    between atoms: C_26  and  C_27 
ROOT
HETATM    1  C           1     -20.834  -9.427  -4.751  0.00  0.00     0.185 C 
ENDROOT
BRANCH   1   2
HETATM    2  C           1     -21.276  -8.158  -5.470  0.00  0.00     0.038 C 
BRANCH   2   3
HETATM    3  C           1     -21.111  -6.964  -4.540  0.00  0.00     0.023 C 
BRANCH   3   4
HETATM    4  C           1     -21.000  -5.688  -5.365  0.00  0.00     0.138 C 
BRANCH   4   5
HETATM    5  N           1     -22.313  -5.360  -5.941  0.00  0.00    -0.227 N 
HETATM    6  H           1     -23.185  -5.772  -5.527  0.00  0.00     0.177 HD
HETATM    7  C           1     -22.391  -4.582  -6.936  0.00  0.00     0.665 C 
HETATM    8  N           1     -21.339  -4.085  -7.436  0.00  0.00    -0.235 N 
HETATM    9  N           1     -23.551  -4.292  -7.445  0.00  0.00    -0.235 N 
HETATM   10  H           1     -20.401  -4.319  -7.025  0.00  0.00     0.174 HD
HETATM   11  H           1     -21.403  -3.440  -8.261  0.00  0.00     0.174 HD
HETATM   12  H           1     -24.419  -4.702  -7.033  0.00  0.00     0.174 HD
HETATM   13  H           1     -23.615  -3.650  -8.267  0.00  0.00     0.174 HD
ENDBRANCH   4   5
ENDBRANCH   3   4
ENDBRANCH   2   3
ENDBRANCH   1   2
BRANCH   1  14
HETATM   14  C           1     -19.394  -9.721  -5.092  0.00  0.00     0.196 C 
HETATM   15  O           1     -18.773  -8.974  -5.880  0.00  0.00    -0.646 OA
HETATM   16  O           1     -18.821 -10.711  -4.587  0.00  0.00    -0.646 OA
ENDBRANCH   1  14
BRANCH   1  17
HETATM   17  N           1     -20.962  -9.239  -3.319  0.00  0.00    -0.345 N 
HETATM   18  C           1     -21.835 -10.014  -2.603  0.00  0.00     0.249 C 
HETATM   19  O           1     -22.498 -10.853  -3.163  0.00  0.00    -0.271 OA
HETATM   20  H           1     -20.406  -8.536  -2.849  0.00  0.00     0.163 HD
BRANCH  18  21
HETATM   21  C           1     -21.968  -9.818  -1.113  0.00  0.00     0.275 C 
BRANCH  21  22
HETATM   22  C           1     -21.097  -8.649  -0.673  0.00  0.00     0.046 C 
BRANCH  22  23
HETATM   23  C           1     -21.976  -7.551  -0.090  0.00  0.00    -0.020 C 
HETATM   24  C           1     -23.245  -8.168   0.482  0.00  0.00     0.009 C 
HETATM   25  C           1     -22.343  -6.559  -1.185  0.00  0.00     0.009 C 
ENDBRANCH  22  23
ENDBRANCH  21  22
BRANCH  21  26
HETATM   26  N           1     -21.527 -11.065  -0.404  0.00  0.00    -0.066 N 
HETATM   27  H           1     -20.585 -11.350  -0.755  0.00  0.00     0.275 HD
HETATM   28  H           1     -21.475 -10.880   0.624  0.00  0.00     0.275 HD
HETATM   29  H           1     -22.213 -11.831  -0.586  0.00  0.00     0.275 HD
ENDBRANCH  21  26
ENDBRANCH  18  21
ENDBRANCH   1  17
TORSDOF 10
ENDMDL
MODEL 9
REMARK VINA RESULT:      -6.0      3.136      8.802
REMARK  10 active torsions:
REMARK  status: ('A' for Active; 'I' for Inactive)
REMARK    1  A    between atoms: C_5  and  C_25 
REMARK    2  A    between atoms: C_5  and  C_14 
REMARK    3  A    between atoms: C_6  and  C_14 
REMARK    4  A    between atoms: N_7  and  C_14 
REMARK       I    between atoms: N_7  and  C_8 
REMARK    5  A    between atoms: C_8  and  C_9 
REMARK    6  A    between atoms: C_9  and  C_27 
REMARK    7  A    between atoms: C_9  and  N_21 
REMARK       I    between atoms: N_12  and  C_15 
REMARK    8  A    between atoms: N_12  and  C_29 
REMARK       I    between atoms: N_13  and  C_15 
REMARK    9  A    between atoms: C_25  and  C_29 
REMARK   10  A    between atoms: C_26  and  C_27 
ROOT
HETATM    1  C           1     -21.293  -5.573  -5.968  0.00  0.00     0.185 C 
ENDROOT
BRANCH   1   2
HETATM    2  C           1     -21.909  -6.526  -4.952  0.00  0.00     0.038 C 
BRANCH   2   3
HETATM    3  C           1     -21.474  -6.124  -3.549  0.00  0.00     0.023 C 
BRANCH   3   4
HETATM    4  C           1     -21.146  -7.372  -2.740  0.00  0.00     0.138 C 
BRANCH   4   5
HETATM    5  N           1     -20.305  -8.271  -3.544  0.00  0.00    -0.227 N 
HETATM    6  H           1     -20.024  -7.996  -4.517  0.00  0.00     0.177 HD
HETATM    7  C           1     -19.920  -9.376  -3.062  0.00  0.00     0.665 C 
HETATM    8  N           1     -20.259  -9.708  -1.888  0.00  0.00    -0.235 N 
HETATM    9  N           1     -19.176 -10.171  -3.772  0.00  0.00    -0.235 N 
HETATM   10  H           1     -20.860  -9.066  -1.314  0.00  0.00     0.174 HD
HETATM   11  H           1     -19.940 -10.625  -1.488  0.00  0.00     0.174 HD
HETATM   12  H           1     -18.896  -9.897  -4.741  0.00  0.00     0.174 HD
HETATM   13  H           1     -18.858 -11.084  -3.374  0.00  0.00     0.174 HD
ENDBRANCH   4   5
ENDBRANCH   3   4
ENDBRANCH   2   3
ENDBRANCH   1   2
BRANCH   1  14
HETATM   14  C           1     -19.933  -6.083  -6.376  0.00  0.00     0.196 C 
HETATM   15  O           1     -19.667  -7.302  -6.277  0.00  0.00    -0.646 OA
HETATM   16  O           1     -19.072  -5.289  -6.814  0.00  0.00    -0.646 OA
ENDBRANCH   1  14
BRANCH   1  17
HETATM   17  N           1     -22.149  -5.495  -7.137  0.00  0.00    -0.345 N 
HETATM   18  C           1     -22.269  -4.315  -7.820  0.00  0.00     0.249 C 
HETATM   19  O           1     -21.661  -3.338  -7.451  0.00  0.00    -0.271 OA
HETATM   20  H           1     -22.658  -6.314  -7.447  0.00  0.00     0.163 HD
BRANCH  18  21
HETATM   21  C           1     -23.159  -4.234  -9.035  0.00  0.00     0.275 C 
BRANCH  21  22
HETATM   22  C           1     -22.536  -3.295 -10.061  0.00  0.00     0.046 C 
BRANCH  22  23
HETATM   23  C           1     -21.946  -4.110 -11.203  0.00  0.00    -0.020 C 
HETATM   24  C           1     -20.431  -4.165 -11.057  0.00  0.00     0.009 C 
HETATM   25  C           1     -22.303  -3.458 -12.531  0.00  0.00     0.009 C 
ENDBRANCH  22  23
ENDBRANCH  21  22
BRANCH  21  26
HETATM   26  N           1     -24.506  -3.711  -8.634  0.00  0.00    -0.066 N 
HETATM   27  H           1     -25.043  -4.467  -8.151  0.00  0.00     0.275 HD
HETATM   28  H           1     -24.386  -2.900  -7.985  0.00  0.00     0.275 HD
HETATM   29  H           1     -25.029  -3.402  -9.483  0.00  0.00     0.275 HD
ENDBRANCH  21  26
ENDBRANCH  18  21
ENDBRANCH   1  17
TORSDOF 10
ENDMDL
