MODEL 1
REMARK VINA RESULT:      -6.7      0.000      0.000
REMARK  8 active torsions:
REMARK  status: ('A' for Active; 'I' for Inactive)
REMARK    1  A    between atoms: C_2  and  C_14 
REMARK    2  A    between atoms: N_10  and  C_16 
REMARK    3  A    between atoms: C_11  and  C_19 
REMARK       I    between atoms: C_14  and  N_18 
REMARK    4  A    between atoms: C_15  and  C_16 
REMARK    5  A    between atoms: C_15  and  C_20 
REMARK    6  A    between atoms: N_18  and  C_19 
REMARK    7  A    between atoms: C_19  and  C_21 
REMARK    8  A    between atoms: C_20  and  C_21 
ROOT
HETATM    1  C           1     -34.892  -2.452 -12.038  0.00  0.00     0.185 C 
ENDROOT
BRANCH   1   2
HETATM    2  C           1     -34.478  -1.773 -10.756  0.00  0.00     0.196 C 
HETATM    3  O           1     -33.275  -1.751 -10.420  0.00  0.00    -0.646 OA
HETATM    4  O           1     -35.340  -1.232 -10.029  0.00  0.00    -0.646 OA
ENDBRANCH   1   2
BRANCH   1   5
HETATM    5  N           1     -34.782  -1.512 -13.137  0.00  0.00    -0.345 N 
HETATM    6  H           1     -33.892  -1.371 -13.596  0.00  0.00     0.163 HD
HETATM    7  C           1     -35.885  -0.815 -13.555  0.00  0.00     0.251 C 
HETATM    8  O           1     -36.948  -0.983 -13.007  0.00  0.00    -0.271 OA
BRANCH   7   9
HETATM    9  C           1     -35.771   0.163 -14.698  0.00  0.00     0.311 C 
HETATM   10  N           1     -34.816  -0.313 -15.695  0.00  0.00     0.097 N 
HETATM   11  C           1     -35.542  -1.322 -16.461  0.00  0.00     0.271 C 
HETATM   12  H           1     -34.533   0.445 -16.315  0.00  0.00     0.317 HD
HETATM   13  C           1     -36.931  -0.727 -16.622  0.00  0.00     0.033 C 
HETATM   14  C           1     -37.079   0.254 -15.464  0.00  0.00     0.047 C 
ENDBRANCH   7   9
ENDBRANCH   1   5
BRANCH   1  15
HETATM   15  C           1     -33.983  -3.645 -12.297  0.00  0.00     0.036 C 
BRANCH  15  16
HETATM   16  C           1     -34.734  -4.934 -11.989  0.00  0.00     0.004 C 
BRANCH  16  17
HETATM   17  C           1     -34.345  -5.429 -10.601  0.00  0.00     0.027 C 
BRANCH  17  18
HETATM   18  C           1     -34.267  -6.950 -10.608  0.00  0.00     0.229 C 
BRANCH  18  19
HETATM   19  N           1     -35.115  -7.500  -9.499  0.00  0.00    -0.079 N 
HETATM   20  H           1     -34.672  -7.277  -8.579  0.00  0.00     0.274 HD
HETATM   21  H           1     -36.066  -7.069  -9.542  0.00  0.00     0.274 HD
HETATM   22  H           1     -35.195  -8.537  -9.605  0.00  0.00     0.274 HD
ENDBRANCH  18  19
ENDBRANCH  17  18
ENDBRANCH  16  17
ENDBRANCH  15  16
ENDBRANCH   1  15
TORSDOF 8
ENDMDL
MODEL 2
REMARK VINA RESULT:      -6.6      2.789      5.814
REMARK  8 active torsions:
REMARK  status: ('A' for Active; 'I' for Inactive)
REMARK    1  A    between atoms: C_2  and  C_14 
REMARK    2  A    between atoms: N_10  and  C_16 
REMARK    3  A    between atoms: C_11  and  C_19 
REMARK       I    between atoms: C_14  and  N_18 
REMARK    4  A    between atoms: C_15  and  C_16 
REMARK    5  A    between atoms: C_15  and  C_20 
REMARK    6  A    between atoms: N_18  and  C_19 
REMARK    7  A    between atoms: C_19  and  C_21 
REMARK    8  A    between atoms: C_20  and  C_21 
ROOT
HETATM    1  C           1     -35.836  -0.812 -13.166  0.00  0.00     0.185 C 
ENDROOT
BRANCH   1   2
HETATM    2  C           1     -35.109   0.173 -14.048  0.00  0.00     0.196 C 
HETATM    3  O           1     -34.861  -0.117 -15.238  0.00  0.00    -0.646 OA
HETATM    4  O           1     -34.755   1.281 -13.588  0.00  0.00    -0.646 OA
ENDBRANCH   1   2
BRANCH   1   5
HETATM    5  N           1     -34.913  -1.356 -12.189  0.00  0.00    -0.345 N 
HETATM    6  H           1     -34.760  -0.874 -11.313  0.00  0.00     0.163 HD
HETATM    7  C           1     -34.248  -2.525 -12.453  0.00  0.00     0.251 C 
HETATM    8  O           1     -34.431  -3.100 -13.499  0.00  0.00    -0.271 OA
BRANCH   7   9
HETATM    9  C           1     -33.288  -3.091 -11.437  0.00  0.00     0.311 C 
HETATM   10  N           1     -33.997  -3.522 -10.235  0.00  0.00     0.097 N 
HETATM   11  C           1     -34.586  -4.811 -10.587  0.00  0.00     0.271 C 
HETATM   12  H           1     -33.348  -3.646  -9.458  0.00  0.00     0.317 HD
HETATM   13  C           1     -33.501  -5.498 -11.399  0.00  0.00     0.033 C 
HETATM   14  C           1     -32.643  -4.366 -11.954  0.00  0.00     0.047 C 
ENDBRANCH   7   9
ENDBRANCH   1   5
BRANCH   1  15
HETATM   15  C           1     -36.977  -0.104 -12.448  0.00  0.00     0.036 C 
BRANCH  15  16
HETATM   16  C           1     -36.725  -0.127 -10.947  0.00  0.00     0.004 C 
BRANCH  16  17
HETATM   17  C           1     -38.027   0.160 -10.208  0.00  0.00     0.027 C 
BRANCH  17  18
HETATM   18  C           1     -37.808   1.292  -9.213  0.00  0.00     0.229 C 
BRANCH  18  19
HETATM   19  N           1     -36.359   1.349  -8.830  0.00  0.00    -0.079 N 
HETATM   20  H           1     -36.042   2.344  -8.811  0.00  0.00     0.274 HD
HETATM   21  H           1     -36.232   0.924  -7.883  0.00  0.00     0.274 HD
HETATM   22  H           1     -35.793   0.817  -9.530  0.00  0.00     0.274 HD
ENDBRANCH  18  19
ENDBRANCH  17  18
ENDBRANCH  16  17
ENDBRANCH  15  16
ENDBRANCH   1  15
TORSDOF 8
ENDMDL
MODEL 3
REMARK VINA RESULT:      -6.6     12.179     14.667
REMARK  8 active torsions:
REMARK  status: ('A' for Active; 'I' for Inactive)
REMARK    1  A    between atoms: C_2  and  C_14 
REMARK    2  A    between atoms: N_10  and  C_16 
REMARK    3  A    between atoms: C_11  and  C_19 
REMARK       I    between atoms: C_14  and  N_18 
REMARK    4  A    between atoms: C_15  and  C_16 
REMARK    5  A    between atoms: C_15  and  C_20 
REMARK    6  A    between atoms: N_18  and  C_19 
REMARK    7  A    between atoms: C_19  and  C_21 
REMARK    8  A    between atoms: C_20  and  C_21 
ROOT
HETATM    1  C           1     -22.941  -3.720 -10.103  0.00  0.00     0.185 C 
ENDROOT
BRANCH   1   2
HETATM    2  C           1     -24.431  -3.821  -9.882  0.00  0.00     0.196 C 
HETATM    3  O           1     -24.991  -4.938  -9.901  0.00  0.00    -0.646 OA
HETATM    4  O           1     -25.104  -2.787  -9.679  0.00  0.00    -0.646 OA
ENDBRANCH   1   2
BRANCH   1   5
HETATM    5  N           1     -22.273  -4.778  -9.371  0.00  0.00    -0.345 N 
HETATM    6  H           1     -22.009  -5.633  -9.844  0.00  0.00     0.163 HD
HETATM    7  C           1     -21.998  -4.622  -8.039  0.00  0.00     0.251 C 
HETATM    8  O           1     -22.313  -3.602  -7.473  0.00  0.00    -0.271 OA
BRANCH   7   9
HETATM    9  C           1     -21.302  -5.723  -7.277  0.00  0.00     0.311 C 
HETATM   10  N           1     -19.924  -5.880  -7.734  0.00  0.00     0.097 N 
HETATM   11  C           1     -19.188  -4.795  -7.091  0.00  0.00     0.271 C 
HETATM   12  H           1     -19.543  -6.776  -7.430  0.00  0.00     0.317 HD
HETATM   13  C           1     -19.769  -4.743  -5.688  0.00  0.00     0.033 C 
HETATM   14  C           1     -21.159  -5.359  -5.810  0.00  0.00     0.047 C 
ENDBRANCH   7   9
ENDBRANCH   1   5
BRANCH   1  15
HETATM   15  C           1     -22.638  -3.858 -11.588  0.00  0.00     0.036 C 
BRANCH  15  16
HETATM   16  C           1     -22.788  -2.504 -12.267  0.00  0.00     0.004 C 
BRANCH  16  17
HETATM   17  C           1     -23.901  -2.576 -13.305  0.00  0.00     0.027 C 
BRANCH  17  18
HETATM   18  C           1     -23.450  -1.882 -14.583  0.00  0.00     0.229 C 
BRANCH  18  19
HETATM   19  N           1     -24.219  -0.607 -14.760  0.00  0.00    -0.079 N 
HETATM   20  H           1     -23.811   0.134 -14.147  0.00  0.00     0.274 HD
HETATM   21  H           1     -24.164  -0.302 -15.758  0.00  0.00     0.274 HD
HETATM   22  H           1     -25.219  -0.765 -14.497  0.00  0.00     0.274 HD
ENDBRANCH  18  19
ENDBRANCH  17  18
ENDBRANCH  16  17
ENDBRANCH  15  16
ENDBRANCH   1  15
TORSDOF 8
ENDMDL
MODEL 4
REMARK VINA RESULT:      -6.1      3.014      4.648
REMARK  8 active torsions:
REMARK  status: ('A' for Active; 'I' for Inactive)
REMARK    1  A    between atoms: C_2  and  C_14 
REMARK    2  A    between atoms: N_10  and  C_16 
REMARK    3  A    between atoms: C_11  and  C_19 
REMARK       I    between atoms: C_14  and  N_18 
REMARK    4  A    between atoms: C_15  and  C_16 
REMARK    5  A    between atoms: C_15  and  C_20 
REMARK    6  A    between atoms: N_18  and  C_19 
REMARK    7  A    between atoms: C_19  and  C_21 
REMARK    8  A    between atoms: C_20  and  C_21 
ROOT
HETATM    1  C           1     -34.654  -1.454 -11.725  0.00  0.00     0.185 C 
ENDROOT
BRANCH   1   2
HETATM    2  C           1     -35.090  -1.866 -13.110  0.00  0.00     0.196 C 
HETATM    3  O           1     -35.849  -1.127 -13.772  0.00  0.00    -0.646 OA
HETATM    4  O           1     -34.689  -2.946 -13.595  0.00  0.00    -0.646 OA
ENDBRANCH   1   2
BRANCH   1   5
HETATM    5  N           1     -35.807  -1.429 -10.846  0.00  0.00    -0.345 N 
HETATM    6  H           1     -36.177  -2.292 -10.470  0.00  0.00     0.163 HD
HETATM    7  C           1     -36.395  -0.235 -10.523  0.00  0.00     0.251 C 
HETATM    8  O           1     -35.954   0.796 -10.971  0.00  0.00    -0.271 OA
BRANCH   7   9
HETATM    9  C           1     -37.595  -0.208  -9.608  0.00  0.00     0.311 C 
HETATM   10  N           1     -37.237  -0.666  -8.268  0.00  0.00     0.097 N 
HETATM   11  C           1     -36.574   0.475  -7.644  0.00  0.00     0.271 C 
HETATM   12  H           1     -38.071  -0.909  -7.734  0.00  0.00     0.317 HD
HETATM   13  C           1     -37.399   1.668  -8.097  0.00  0.00     0.033 C 
HETATM   14  C           1     -38.075   1.216  -9.387  0.00  0.00     0.047 C 
ENDBRANCH   7   9
ENDBRANCH   1   5
BRANCH   1  15
HETATM   15  C           1     -33.634  -2.453 -11.196  0.00  0.00     0.036 C 
BRANCH  15  16
HETATM   16  C           1     -34.355  -3.594 -10.493  0.00  0.00     0.004 C 
BRANCH  16  17
HETATM   17  C           1     -33.676  -4.914 -10.837  0.00  0.00     0.027 C 
BRANCH  17  18
HETATM   18  C           1     -34.702  -6.039 -10.798  0.00  0.00     0.229 C 
BRANCH  18  19
HETATM   19  N           1     -33.996  -7.356 -10.663  0.00  0.00    -0.079 N 
HETATM   20  H           1     -33.122  -7.344 -11.236  0.00  0.00     0.274 HD
HETATM   21  H           1     -33.752  -7.518  -9.659  0.00  0.00     0.274 HD
HETATM   22  H           1     -34.622  -8.122 -10.998  0.00  0.00     0.274 HD
ENDBRANCH  18  19
ENDBRANCH  17  18
ENDBRANCH  16  17
ENDBRANCH  15  16
ENDBRANCH   1  15
TORSDOF 8
ENDMDL
MODEL 5
REMARK VINA RESULT:      -6.0     12.727     15.208
REMARK  8 active torsions:
REMARK  status: ('A' for Active; 'I' for Inactive)
REMARK    1  A    between atoms: C_2  and  C_14 
REMARK    2  A    between atoms: N_10  and  C_16 
REMARK    3  A    between atoms: C_11  and  C_19 
REMARK       I    between atoms: C_14  and  N_18 
REMARK    4  A    between atoms: C_15  and  C_16 
REMARK    5  A    between atoms: C_15  and  C_20 
REMARK    6  A    between atoms: N_18  and  C_19 
REMARK    7  A    between atoms: C_19  and  C_21 
REMARK    8  A    between atoms: C_20  and  C_21 
ROOT
HETATM    1  C           1     -21.862  -3.788  -9.518  0.00  0.00     0.185 C 
ENDROOT
BRANCH   1   2
HETATM    2  C           1     -23.268  -4.336  -9.529  0.00  0.00     0.196 C 
HETATM    3  O           1     -24.168  -3.763  -8.879  0.00  0.00    -0.646 OA
HETATM    4  O           1     -23.533  -5.364 -10.190  0.00  0.00    -0.646 OA
ENDBRANCH   1   2
BRANCH   1   5
HETATM    5  N           1     -21.044  -4.580  -8.620  0.00  0.00    -0.345 N 
HETATM    6  H           1     -20.644  -5.454  -8.937  0.00  0.00     0.163 HD
HETATM    7  C           1     -20.812  -4.145  -7.343  0.00  0.00     0.251 C 
HETATM    8  O           1     -21.289  -3.102  -6.964  0.00  0.00    -0.271 OA
BRANCH   7   9
HETATM    9  C           1     -19.960  -4.969  -6.408  0.00  0.00     0.311 C 
HETATM   10  N           1     -20.531  -4.985  -5.064  0.00  0.00     0.097 N 
HETATM   11  C           1     -21.622  -5.953  -5.130  0.00  0.00     0.271 C 
HETATM   12  H           1     -19.840  -5.298  -4.382  0.00  0.00     0.317 HD
HETATM   13  C           1     -21.060  -7.078  -5.984  0.00  0.00     0.033 C 
HETATM   14  C           1     -19.962  -6.430  -6.821  0.00  0.00     0.047 C 
ENDBRANCH   7   9
ENDBRANCH   1   5
BRANCH   1  15
HETATM   15  C           1     -21.282  -3.853 -10.924  0.00  0.00     0.036 C 
BRANCH  15  16
HETATM   16  C           1     -21.825  -2.696 -11.752  0.00  0.00     0.004 C 
BRANCH  16  17
HETATM   17  C           1     -22.548  -3.243 -12.977  0.00  0.00     0.027 C 
BRANCH  17  18
HETATM   18  C           1     -23.917  -2.585 -13.095  0.00  0.00     0.229 C 
BRANCH  18  19
HETATM   19  N           1     -24.854  -3.196 -12.095  0.00  0.00    -0.079 N 
HETATM   20  H           1     -24.450  -3.102 -11.136  0.00  0.00     0.274 HD
HETATM   21  H           1     -25.775  -2.702 -12.134  0.00  0.00     0.274 HD
HETATM   22  H           1     -24.989  -4.208 -12.318  0.00  0.00     0.274 HD
ENDBRANCH  18  19
ENDBRANCH  17  18
ENDBRANCH  16  17
ENDBRANCH  15  16
ENDBRANCH   1  15
TORSDOF 8
ENDMDL
MODEL 6
REMARK VINA RESULT:      -5.6     13.303     15.959
REMARK  8 active torsions:
REMARK  status: ('A' for Active; 'I' for Inactive)
REMARK    1  A    between atoms: C_2  and  C_14 
REMARK    2  A    between atoms: N_10  and  C_16 
REMARK    3  A    between atoms: C_11  and  C_19 
REMARK       I    between atoms: C_14  and  N_18 
REMARK    4  A    between atoms: C_15  and  C_16 
REMARK    5  A    between atoms: C_15  and  C_20 
REMARK    6  A    between atoms: N_18  and  C_19 
REMARK    7  A    between atoms: C_19  and  C_21 
REMARK    8  A    between atoms: C_20  and  C_21 
ROOT
HETATM    1  C           1     -21.670  -4.732  -8.699  0.00  0.00     0.185 C 
ENDROOT
BRANCH   1   2
HETATM    2  C           1     -20.369  -4.230  -9.275  0.00  0.00     0.196 C 
HETATM    3  O           1     -20.007  -4.595 -10.414  0.00  0.00    -0.646 OA
HETATM    4  O           1     -19.653  -3.447  -8.613  0.00  0.00    -0.646 OA
ENDBRANCH   1   2
BRANCH   1   5
HETATM    5  N           1     -21.539  -4.869  -7.261  0.00  0.00    -0.345 N 
HETATM    6  H           1     -22.063  -4.263  -6.644  0.00  0.00     0.163 HD
HETATM    7  C           1     -20.705  -5.821  -6.738  0.00  0.00     0.251 C 
HETATM    8  O           1     -20.078  -6.546  -7.474  0.00  0.00    -0.271 OA
BRANCH   7   9
HETATM    9  C           1     -20.567  -5.965  -5.242  0.00  0.00     0.311 C 
HETATM   10  N           1     -21.855  -5.769  -4.582  0.00  0.00     0.097 N 
HETATM   11  C           1     -22.569  -7.029  -4.766  0.00  0.00     0.271 C 
HETATM   12  H           1     -21.727  -5.594  -3.585  0.00  0.00     0.317 HD
HETATM   13  C           1     -21.499  -8.087  -4.560  0.00  0.00     0.033 C 
HETATM   14  C           1     -20.181  -7.385  -4.869  0.00  0.00     0.047 C 
ENDBRANCH   7   9
ENDBRANCH   1   5
BRANCH   1  15
HETATM   15  C           1     -22.781  -3.740  -9.015  0.00  0.00     0.036 C 
BRANCH  15  16
HETATM   16  C           1     -23.917  -4.458  -9.728  0.00  0.00     0.004 C 
BRANCH  16  17
HETATM   17  C           1     -23.488  -4.805 -11.148  0.00  0.00     0.027 C 
BRANCH  17  18
HETATM   18  C           1     -23.159  -3.525 -11.907  0.00  0.00     0.229 C 
BRANCH  18  19
HETATM   19  N           1     -21.864  -3.699 -12.644  0.00  0.00    -0.079 N 
HETATM   20  H           1     -21.424  -2.764 -12.800  0.00  0.00     0.274 HD
HETATM   21  H           1     -21.220  -4.297 -12.079  0.00  0.00     0.274 HD
HETATM   22  H           1     -22.048  -4.156 -13.566  0.00  0.00     0.274 HD
ENDBRANCH  18  19
ENDBRANCH  17  18
ENDBRANCH  16  17
ENDBRANCH  15  16
ENDBRANCH   1  15
TORSDOF 8
ENDMDL
MODEL 7
REMARK VINA RESULT:      -5.6     14.998     16.480
REMARK  8 active torsions:
REMARK  status: ('A' for Active; 'I' for Inactive)
REMARK    1  A    between atoms: C_2  and  C_14 
REMARK    2  A    between atoms: N_10  and  C_16 
REMARK    3  A    between atoms: C_11  and  C_19 
REMARK       I    between atoms: C_14  and  N_18 
REMARK    4  A    between atoms: C_15  and  C_16 
REMARK    5  A    between atoms: C_15  and  C_20 
REMARK    6  A    between atoms: N_18  and  C_19 
REMARK    7  A    between atoms: C_19  and  C_21 
REMARK    8  A    between atoms: C_20  and  C_21 
ROOT
HETATM    1  C           1     -21.417  -6.502  -4.488  0.00  0.00     0.185 C 
ENDROOT
BRANCH   1   2
HETATM    2  C           1     -21.451  -7.907  -5.039  0.00  0.00     0.196 C 
HETATM    3  O           1     -21.720  -8.867  -4.288  0.00  0.00    -0.646 OA
HETATM    4  O           1     -21.210  -8.108  -6.250  0.00  0.00    -0.646 OA
ENDBRANCH   1   2
BRANCH   1   5
HETATM    5  N           1     -21.745  -5.563  -5.543  0.00  0.00    -0.345 N 
HETATM    6  H           1     -22.665  -5.575  -5.963  0.00  0.00     0.163 HD
HETATM    7  C           1     -20.809  -4.659  -5.970  0.00  0.00     0.251 C 
HETATM    8  O           1     -19.711  -4.645  -5.468  0.00  0.00    -0.271 OA
BRANCH   7   9
HETATM    9  C           1     -21.150  -3.681  -7.067  0.00  0.00     0.311 C 
HETATM   10  N           1     -20.119  -3.680  -8.101  0.00  0.00     0.097 N 
HETATM   11  C           1     -20.386  -4.871  -8.902  0.00  0.00     0.271 C 
HETATM   12  H           1     -20.197  -2.850  -8.688  0.00  0.00     0.317 HD
HETATM   13  C           1     -21.902  -4.902  -9.012  0.00  0.00     0.033 C 
HETATM   14  C           1     -22.404  -4.114  -7.807  0.00  0.00     0.047 C 
ENDBRANCH   7   9
ENDBRANCH   1   5
BRANCH   1  15
HETATM   15  C           1     -22.432  -6.376  -3.361  0.00  0.00     0.036 C 
BRANCH  15  16
HETATM   16  C           1     -21.706  -6.115  -2.048  0.00  0.00     0.004 C 
BRANCH  16  17
HETATM   17  C           1     -22.383  -6.896  -0.929  0.00  0.00     0.027 C 
BRANCH  17  18
HETATM   18  C           1     -21.820  -8.310  -0.882  0.00  0.00     0.229 C 
BRANCH  18  19
HETATM   19  N           1     -20.424  -8.311  -1.431  0.00  0.00    -0.079 N 
HETATM   20  H           1     -19.832  -7.650  -0.881  0.00  0.00     0.274 HD
HETATM   21  H           1     -20.024  -9.275  -1.364  0.00  0.00     0.274 HD
HETATM   22  H           1     -20.444  -8.010  -2.432  0.00  0.00     0.274 HD
ENDBRANCH  18  19
ENDBRANCH  17  18
ENDBRANCH  16  17
ENDBRANCH  15  16
ENDBRANCH   1  15
TORSDOF 8
ENDMDL
MODEL 8
REMARK VINA RESULT:      -5.4     14.920     18.025
REMARK  8 active torsions:
REMARK  status: ('A' for Active; 'I' for Inactive)
REMARK    1  A    between atoms: C_2  and  C_14 
REMARK    2  A    between atoms: N_10  and  C_16 
REMARK    3  A    between atoms: C_11  and  C_19 
REMARK       I    between atoms: C_14  and  N_18 
REMARK    4  A    between atoms: C_15  and  C_16 
REMARK    5  A    between atoms: C_15  and  C_20 
REMARK    6  A    between atoms: N_18  and  C_19 
REMARK    7  A    between atoms: C_19  and  C_21 
REMARK    8  A    between atoms: C_20  and  C_21 
ROOT
HETATM    1  C           1     -20.712  -6.770  -5.415  0.00  0.00     0.185 C 
ENDROOT
BRANCH   1   2
HETATM    2  C           1     -21.902  -6.297  -4.615  0.00  0.00     0.196 C 
HETATM    3  O           1     -23.018  -6.183  -5.163  0.00  0.00    -0.646 OA
HETATM    4  O           1     -21.769  -6.020  -3.403  0.00  0.00    -0.646 OA
ENDBRANCH   1   2
BRANCH   1   5
HETATM    5  N           1     -20.812  -8.201  -5.626  0.00  0.00    -0.345 N 
HETATM    6  H           1     -21.364  -8.563  -6.393  0.00  0.00     0.163 HD
HETATM    7  C           1     -20.159  -9.064  -4.786  0.00  0.00     0.251 C 
HETATM    8  O           1     -19.501  -8.632  -3.870  0.00  0.00    -0.271 OA
BRANCH   7   9
HETATM    9  C           1     -20.263 -10.553  -5.005  0.00  0.00     0.311 C 
HETATM   10  N           1     -19.781 -10.917  -6.335  0.00  0.00     0.097 N 
HETATM   11  C           1     -18.326 -10.905  -6.226  0.00  0.00     0.271 C 
HETATM   12  H           1     -20.095 -11.854  -6.589  0.00  0.00     0.317 HD
HETATM   13  C           1     -18.058 -11.531  -4.867  0.00  0.00     0.033 C 
HETATM   14  C           1     -19.335 -11.303  -4.066  0.00  0.00     0.047 C 
ENDBRANCH   7   9
ENDBRANCH   1   5
BRANCH   1  15
HETATM   15  C           1     -20.691  -6.058  -6.761  0.00  0.00     0.036 C 
BRANCH  15  16
HETATM   16  C           1     -20.199  -4.630  -6.573  0.00  0.00     0.004 C 
BRANCH  16  17
HETATM   17  C           1     -21.223  -3.659  -7.149  0.00  0.00     0.027 C 
BRANCH  17  18
HETATM   18  C           1     -22.184  -4.415  -8.058  0.00  0.00     0.229 C 
BRANCH  18  19
HETATM   19  N           1     -23.591  -4.212  -7.578  0.00  0.00    -0.079 N 
HETATM   20  H           1     -24.168  -5.045  -7.830  0.00  0.00     0.274 HD
HETATM   21  H           1     -23.590  -4.089  -6.540  0.00  0.00     0.274 HD
HETATM   22  H           1     -23.992  -3.359  -8.031  0.00  0.00     0.274 HD
ENDBRANCH  18  19
ENDBRANCH  17  18
ENDBRANCH  16  17
ENDBRANCH  15  16
ENDBRANCH   1  15
TORSDOF 8
ENDMDL
MODEL 9
REMARK VINA RESULT:      -5.4     14.575     17.766
REMARK  8 active torsions:
REMARK  status: ('A' for Active; 'I' for Inactive)
REMARK    1  A    between atoms: C_2  and  C_14 
REMARK    2  A    between atoms: N_10  and  C_16 
REMARK    3  A    between atoms: C_11  and  C_19 
REMARK       I    between atoms: C_14  and  N_18 
REMARK    4  A    between atoms: C_15  and  C_16 
REMARK    5  A    between atoms: C_15  and  C_20 
REMARK    6  A    between atoms: N_18  and  C_19 
REMARK    7  A    between atoms: C_19  and  C_21 
REMARK    8  A    between atoms: C_20  and  C_21 
ROOT
HETATM    1  C           1     -20.636  -6.767  -5.434  0.00  0.00     0.185 C 
ENDROOT
BRANCH   1   2
HETATM    2  C           1     -21.821  -6.318  -4.613  0.00  0.00     0.196 C 
HETATM    3  O           1     -22.954  -6.254  -5.134  0.00  0.00    -0.646 OA
HETATM    4  O           1     -21.667  -6.012  -3.411  0.00  0.00    -0.646 OA
ENDBRANCH   1   2
BRANCH   1   5
HETATM    5  N           1     -20.712  -8.199  -5.645  0.00  0.00    -0.345 N 
HETATM    6  H           1     -21.391  -8.581  -6.290  0.00  0.00     0.163 HD
HETATM    7  C           1     -19.862  -9.036  -4.972  0.00  0.00     0.251 C 
HETATM    8  O           1     -19.051  -8.580  -4.202  0.00  0.00    -0.271 OA
BRANCH   7   9
HETATM    9  C           1     -19.940 -10.527  -5.191  0.00  0.00     0.311 C 
HETATM   10  N           1     -19.775 -11.247  -3.931  0.00  0.00     0.097 N 
HETATM   11  C           1     -21.071 -11.146  -3.267  0.00  0.00     0.271 C 
HETATM   12  H           1     -19.555 -12.228  -4.102  0.00  0.00     0.317 HD
HETATM   13  C           1     -22.073 -11.335  -4.395  0.00  0.00     0.033 C 
HETATM   14  C           1     -21.326 -10.932  -5.661  0.00  0.00     0.047 C 
ENDBRANCH   7   9
ENDBRANCH   1   5
BRANCH   1  15
HETATM   15  C           1     -20.652  -6.053  -6.779  0.00  0.00     0.036 C 
BRANCH  15  16
HETATM   16  C           1     -20.166  -4.621  -6.601  0.00  0.00     0.004 C 
BRANCH  16  17
HETATM   17  C           1     -21.219  -3.657  -7.134  0.00  0.00     0.027 C 
BRANCH  17  18
HETATM   18  C           1     -22.200  -4.415  -8.019  0.00  0.00     0.229 C 
BRANCH  18  19
HETATM   19  N           1     -23.592  -4.238  -7.489  0.00  0.00    -0.079 N 
HETATM   20  H           1     -24.146  -3.653  -8.154  0.00  0.00     0.274 HD
HETATM   21  H           1     -24.046  -5.174  -7.386  0.00  0.00     0.274 HD
HETATM   22  H           1     -23.552  -3.764  -6.558  0.00  0.00     0.274 HD
ENDBRANCH  18  19
ENDBRANCH  17  18
ENDBRANCH  16  17
ENDBRANCH  15  16
ENDBRANCH   1  15
TORSDOF 8
ENDMDL
