MODEL 1
REMARK VINA RESULT:      -8.3      0.000      0.000
REMARK  8 active torsions:
REMARK  status: ('A' for Active; 'I' for Inactive)
REMARK    1  A    between atoms: N_4  and  C_10 
REMARK       I    between atoms: N_4  and  C_8 
REMARK    2  A    between atoms: C_8  and  C_9 
REMARK    3  A    between atoms: C_9  and  C_20 
REMARK    4  A    between atoms: C_9  and  N_30 
REMARK    5  A    between atoms: C_10  and  C_11 
REMARK    6  A    between atoms: C_10  and  C_16 
REMARK    7  A    between atoms: C_11  and  C_21 
REMARK       I    between atoms: N_12  and  C_21 
REMARK    8  A    between atoms: C_20  and  C_25 
ROOT
HETATM    1  C           1     -21.072  -5.453  -6.560  0.00  0.00     0.278 C 
ENDROOT
BRANCH   1   2
HETATM    2  C           1     -21.600  -4.436  -7.542  0.00  0.00     0.249 C 
HETATM    3  O           1     -21.470  -3.256  -7.319  0.00  0.00    -0.271 OA
HETATM    4  N           1     -22.227  -4.851  -8.686  0.00  0.00    -0.344 N 
HETATM    5  H           1     -22.338  -5.839  -8.872  0.00  0.00     0.163 HD
BRANCH   4   6
HETATM    6  C           1     -22.735  -3.874  -9.629  0.00  0.00     0.194 C 
BRANCH   6   7
HETATM    7  C           1     -22.218  -4.199 -11.024  0.00  0.00     0.138 C 
BRANCH   7   8
HETATM    8  C           1     -20.729  -3.966 -11.077  0.00  0.00     0.217 C 
HETATM    9  N           1     -20.239  -2.773 -11.535  0.00  0.00    -0.370 N 
HETATM   10  H           1     -20.875  -2.047 -11.837  0.00  0.00     0.159 HD
HETATM   11  H           1     -19.239  -2.616 -11.571  0.00  0.00     0.159 HD
HETATM   12  O           1     -19.968  -4.832 -10.715  0.00  0.00    -0.274 OA
ENDBRANCH   7   8
ENDBRANCH   6   7
BRANCH   6  13
HETATM   13  C           1     -24.243  -3.913  -9.631  0.00  0.00     0.197 C 
HETATM   14  O           1     -24.896  -2.860  -9.466  0.00  0.00    -0.646 OA
HETATM   15  O           1     -24.840  -4.999  -9.799  0.00  0.00    -0.646 OA
ENDBRANCH   6  13
ENDBRANCH   4   6
ENDBRANCH   1   2
BRANCH   1  16
HETATM   16  C           1     -22.205  -5.921  -5.656  0.00  0.00     0.083 C 
BRANCH  16  17
HETATM   17  C           1     -21.727  -7.054  -4.801  0.00  0.00    -0.028 A 
HETATM   18  C           1     -21.782  -7.115  -3.382  0.00  0.00    -0.002 A 
HETATM   19  C           1     -21.233  -8.341  -3.001  0.00  0.00     0.042 A 
HETATM   20  C           1     -22.250  -6.242  -2.381  0.00  0.00     0.014 A 
HETATM   21  N           1     -20.861  -8.992  -4.156  0.00  0.00    -0.365 N 
HETATM   22  C           1     -21.127  -8.738  -1.663  0.00  0.00     0.030 A 
HETATM   23  C           1     -21.155  -8.223  -5.251  0.00  0.00     0.096 A 
HETATM   24  H           1     -20.416  -9.942  -4.191  0.00  0.00     0.165 HD
HETATM   25  C           1     -21.597  -7.854  -0.688  0.00  0.00     0.002 A 
HETATM   26  C           1     -22.151  -6.623  -1.038  0.00  0.00     0.001 A 
ENDBRANCH  16  17
ENDBRANCH   1  16
BRANCH   1  27
HETATM   27  N           1     -19.994  -4.828  -5.726  0.00  0.00    -0.066 N 
HETATM   28  H           1     -20.410  -4.459  -4.840  0.00  0.00     0.275 HD
HETATM   29  H           1     -19.270  -5.546  -5.498  0.00  0.00     0.275 HD
HETATM   30  H           1     -19.552  -4.043  -6.256  0.00  0.00     0.275 HD
ENDBRANCH   1  27
TORSDOF 8
ENDMDL
MODEL 2
REMARK VINA RESULT:      -7.8      2.830      7.965
REMARK  8 active torsions:
REMARK  status: ('A' for Active; 'I' for Inactive)
REMARK    1  A    between atoms: N_4  and  C_10 
REMARK       I    between atoms: N_4  and  C_8 
REMARK    2  A    between atoms: C_8  and  C_9 
REMARK    3  A    between atoms: C_9  and  C_20 
REMARK    4  A    between atoms: C_9  and  N_30 
REMARK    5  A    between atoms: C_10  and  C_11 
REMARK    6  A    between atoms: C_10  and  C_16 
REMARK    7  A    between atoms: C_11  and  C_21 
REMARK       I    between atoms: N_12  and  C_21 
REMARK    8  A    between atoms: C_20  and  C_25 
ROOT
HETATM    1  C           1     -22.215  -5.190  -6.782  0.00  0.00     0.278 C 
ENDROOT
BRANCH   1   2
HETATM    2  C           1     -21.349  -5.681  -5.649  0.00  0.00     0.249 C 
HETATM    3  O           1     -20.421  -5.011  -5.263  0.00  0.00    -0.271 OA
HETATM    4  N           1     -21.614  -6.887  -5.058  0.00  0.00    -0.344 N 
HETATM    5  H           1     -22.391  -7.449  -5.382  0.00  0.00     0.163 HD
BRANCH   4   6
HETATM    6  C           1     -20.781  -7.360  -3.969  0.00  0.00     0.194 C 
BRANCH   6   7
HETATM    7  C           1     -21.663  -7.922  -2.863  0.00  0.00     0.138 C 
BRANCH   7   8
HETATM    8  C           1     -22.053  -6.814  -1.916  0.00  0.00     0.217 C 
HETATM    9  N           1     -22.402  -7.108  -0.625  0.00  0.00    -0.370 N 
HETATM   10  H           1     -22.398  -8.069  -0.306  0.00  0.00     0.159 HD
HETATM   11  H           1     -22.663  -6.365   0.011  0.00  0.00     0.159 HD
HETATM   12  O           1     -22.056  -5.667  -2.295  0.00  0.00    -0.274 OA
ENDBRANCH   7   8
ENDBRANCH   6   7
BRANCH   6  13
HETATM   13  C           1     -19.859  -8.442  -4.474  0.00  0.00     0.197 C 
HETATM   14  O           1     -19.984  -8.875  -5.640  0.00  0.00    -0.646 OA
HETATM   15  O           1     -18.969  -8.904  -3.727  0.00  0.00    -0.646 OA
ENDBRANCH   6  13
ENDBRANCH   4   6
ENDBRANCH   1   2
BRANCH   1  16
HETATM   16  C           1     -21.663  -3.871  -7.309  0.00  0.00     0.083 C 
BRANCH  16  17
HETATM   17  C           1     -21.394  -3.993  -8.777  0.00  0.00    -0.028 A 
HETATM   18  C           1     -22.337  -3.788  -9.821  0.00  0.00    -0.002 A 
HETATM   19  C           1     -21.668  -4.002 -11.027  0.00  0.00     0.042 A 
HETATM   20  C           1     -23.701  -3.439  -9.856  0.00  0.00     0.014 A 
HETATM   21  N           1     -20.366  -4.325 -10.715  0.00  0.00    -0.365 N 
HETATM   22  C           1     -22.298  -3.885 -12.272  0.00  0.00     0.030 A 
HETATM   23  C           1     -20.189  -4.322  -9.356  0.00  0.00     0.096 A 
HETATM   24  H           1     -19.617  -4.542 -11.418  0.00  0.00     0.165 HD
HETATM   25  C           1     -23.652  -3.538 -12.280  0.00  0.00     0.002 A 
HETATM   26  C           1     -24.346  -3.318 -11.092  0.00  0.00     0.001 A 
ENDBRANCH  16  17
ENDBRANCH   1  16
BRANCH   1  27
HETATM   27  N           1     -23.615  -4.981  -6.286  0.00  0.00    -0.066 N 
HETATM   28  H           1     -23.667  -5.238  -5.274  0.00  0.00     0.275 HD
HETATM   29  H           1     -23.881  -3.978  -6.405  0.00  0.00     0.275 HD
HETATM   30  H           1     -24.272  -5.583  -6.832  0.00  0.00     0.275 HD
ENDBRANCH   1  27
TORSDOF 8
ENDMDL
MODEL 3
REMARK VINA RESULT:      -7.7      2.982      7.715
REMARK  8 active torsions:
REMARK  status: ('A' for Active; 'I' for Inactive)
REMARK    1  A    between atoms: N_4  and  C_10 
REMARK       I    between atoms: N_4  and  C_8 
REMARK    2  A    between atoms: C_8  and  C_9 
REMARK    3  A    between atoms: C_9  and  C_20 
REMARK    4  A    between atoms: C_9  and  N_30 
REMARK    5  A    between atoms: C_10  and  C_11 
REMARK    6  A    between atoms: C_10  and  C_16 
REMARK    7  A    between atoms: C_11  and  C_21 
REMARK       I    between atoms: N_12  and  C_21 
REMARK    8  A    between atoms: C_20  and  C_25 
ROOT
HETATM    1  C           1     -20.077  -4.409  -7.257  0.00  0.00     0.278 C 
ENDROOT
BRANCH   1   2
HETATM    2  C           1     -20.121  -5.201  -5.974  0.00  0.00     0.249 C 
HETATM    3  O           1     -20.000  -4.638  -4.912  0.00  0.00    -0.271 OA
HETATM    4  N           1     -20.300  -6.557  -6.012  0.00  0.00    -0.344 N 
HETATM    5  H           1     -20.401  -7.029  -6.902  0.00  0.00     0.163 HD
BRANCH   4   6
HETATM    6  C           1     -20.342  -7.319  -4.780  0.00  0.00     0.194 C 
BRANCH   6   7
HETATM    7  C           1     -21.736  -7.226  -4.173  0.00  0.00     0.138 C 
BRANCH   7   8
HETATM    8  C           1     -21.628  -6.850  -2.716  0.00  0.00     0.217 C 
HETATM    9  N           1     -22.417  -5.855  -2.206  0.00  0.00    -0.370 N 
HETATM   10  H           1     -23.074  -5.372  -2.805  0.00  0.00     0.159 HD
HETATM   11  H           1     -22.345  -5.603  -1.228  0.00  0.00     0.159 HD
HETATM   12  O           1     -20.845  -7.427  -1.999  0.00  0.00    -0.274 OA
ENDBRANCH   7   8
ENDBRANCH   6   7
BRANCH   6  13
HETATM   13  C           1     -20.016  -8.763  -5.069  0.00  0.00     0.197 C 
HETATM   14  O           1     -20.757  -9.671  -4.635  0.00  0.00    -0.646 OA
HETATM   15  O           1     -19.004  -9.052  -5.744  0.00  0.00    -0.646 OA
ENDBRANCH   6  13
ENDBRANCH   4   6
ENDBRANCH   1   2
BRANCH   1  16
HETATM   16  C           1     -20.730  -5.214  -8.374  0.00  0.00     0.083 C 
BRANCH  16  17
HETATM   17  C           1     -22.050  -4.601  -8.726  0.00  0.00    -0.028 A 
HETATM   18  C           1     -22.453  -4.165 -10.018  0.00  0.00    -0.002 A 
HETATM   19  C           1     -23.750  -3.662  -9.895  0.00  0.00     0.042 A 
HETATM   20  C           1     -21.838  -4.150 -11.284  0.00  0.00     0.014 A 
HETATM   21  N           1     -24.110  -3.792  -8.573  0.00  0.00    -0.365 N 
HETATM   22  C           1     -24.464  -3.142 -10.981  0.00  0.00     0.030 A 
HETATM   23  C           1     -23.090  -4.360  -7.856  0.00  0.00     0.096 A 
HETATM   24  H           1     -25.035  -3.500  -8.172  0.00  0.00     0.165 HD
HETATM   25  C           1     -23.832  -3.138 -12.228  0.00  0.00     0.002 A 
HETATM   26  C           1     -22.538  -3.633 -12.380  0.00  0.00     0.001 A 
ENDBRANCH  16  17
ENDBRANCH   1  16
BRANCH   1  27
HETATM   27  N           1     -18.650  -4.123  -7.618  0.00  0.00    -0.066 N 
HETATM   28  H           1     -18.617  -3.345  -8.317  0.00  0.00     0.275 HD
HETATM   29  H           1     -18.123  -3.843  -6.761  0.00  0.00     0.275 HD
HETATM   30  H           1     -18.215  -4.979  -8.031  0.00  0.00     0.275 HD
ENDBRANCH   1  27
TORSDOF 8
ENDMDL
MODEL 4
REMARK VINA RESULT:      -7.6      2.875      7.729
REMARK  8 active torsions:
REMARK  status: ('A' for Active; 'I' for Inactive)
REMARK    1  A    between atoms: N_4  and  C_10 
REMARK       I    between atoms: N_4  and  C_8 
REMARK    2  A    between atoms: C_8  and  C_9 
REMARK    3  A    between atoms: C_9  and  C_20 
REMARK    4  A    between atoms: C_9  and  N_30 
REMARK    5  A    between atoms: C_10  and  C_11 
REMARK    6  A    between atoms: C_10  and  C_16 
REMARK    7  A    between atoms: C_11  and  C_21 
REMARK       I    between atoms: N_12  and  C_21 
REMARK    8  A    between atoms: C_20  and  C_25 
ROOT
HETATM    1  C           1     -21.114  -4.963  -6.256  0.00  0.00     0.278 C 
ENDROOT
BRANCH   1   2
HETATM    2  C           1     -21.710  -5.996  -5.333  0.00  0.00     0.249 C 
HETATM    3  O           1     -22.909  -6.063  -5.194  0.00  0.00    -0.271 OA
HETATM    4  N           1     -20.894  -6.858  -4.651  0.00  0.00    -0.344 N 
HETATM    5  H           1     -19.890  -6.801  -4.767  0.00  0.00     0.163 HD
BRANCH   4   6
HETATM    6  C           1     -21.466  -7.850  -3.763  0.00  0.00     0.194 C 
BRANCH   6   7
HETATM    7  C           1     -20.837  -9.208  -4.045  0.00  0.00     0.138 C 
BRANCH   7   8
HETATM    8  C           1     -19.466  -9.014  -4.644  0.00  0.00     0.217 C 
HETATM    9  N           1     -18.356  -9.077  -3.845  0.00  0.00    -0.370 N 
HETATM   10  H           1     -18.455  -9.254  -2.854  0.00  0.00     0.159 HD
HETATM   11  H           1     -17.435  -8.947  -4.246  0.00  0.00     0.159 HD
HETATM   12  O           1     -19.346  -8.803  -5.827  0.00  0.00    -0.274 OA
ENDBRANCH   7   8
ENDBRANCH   6   7
BRANCH   6  13
HETATM   13  C           1     -21.197  -7.459  -2.332  0.00  0.00     0.197 C 
HETATM   14  O           1     -21.858  -6.542  -1.799  0.00  0.00    -0.646 OA
HETATM   15  O           1     -20.312  -8.053  -1.677  0.00  0.00    -0.646 OA
ENDBRANCH   6  13
ENDBRANCH   4   6
ENDBRANCH   1   2
BRANCH   1  16
HETATM   16  C           1     -21.198  -5.459  -7.695  0.00  0.00     0.083 C 
BRANCH  16  17
HETATM   17  C           1     -22.236  -4.672  -8.435  0.00  0.00    -0.028 A 
HETATM   18  C           1     -22.150  -4.233  -9.784  0.00  0.00    -0.002 A 
HETATM   19  C           1     -23.328  -3.540 -10.067  0.00  0.00     0.042 A 
HETATM   20  C           1     -21.179  -4.359 -10.796  0.00  0.00     0.014 A 
HETATM   21  N           1     -24.094  -3.564  -8.923  0.00  0.00    -0.365 N 
HETATM   22  C           1     -23.584  -2.964 -11.316  0.00  0.00     0.030 A 
HETATM   23  C           1     -23.444  -4.247  -7.930  0.00  0.00     0.096 A 
HETATM   24  H           1     -25.042  -3.123  -8.827  0.00  0.00     0.165 HD
HETATM   25  C           1     -22.605  -3.102 -12.305  0.00  0.00     0.002 A 
HETATM   26  C           1     -21.419  -3.788 -12.051  0.00  0.00     0.001 A 
ENDBRANCH  16  17
ENDBRANCH   1  16
BRANCH   1  27
HETATM   27  N           1     -19.677  -4.736  -5.891  0.00  0.00    -0.066 N 
HETATM   28  H           1     -19.516  -5.046  -4.906  0.00  0.00     0.275 HD
HETATM   29  H           1     -19.063  -5.285  -6.534  0.00  0.00     0.275 HD
HETATM   30  H           1     -19.451  -3.719  -5.977  0.00  0.00     0.275 HD
ENDBRANCH   1  27
TORSDOF 8
ENDMDL
MODEL 5
REMARK VINA RESULT:      -7.5      3.308      7.946
REMARK  8 active torsions:
REMARK  status: ('A' for Active; 'I' for Inactive)
REMARK    1  A    between atoms: N_4  and  C_10 
REMARK       I    between atoms: N_4  and  C_8 
REMARK    2  A    between atoms: C_8  and  C_9 
REMARK    3  A    between atoms: C_9  and  C_20 
REMARK    4  A    between atoms: C_9  and  N_30 
REMARK    5  A    between atoms: C_10  and  C_11 
REMARK    6  A    between atoms: C_10  and  C_16 
REMARK    7  A    between atoms: C_11  and  C_21 
REMARK       I    between atoms: N_12  and  C_21 
REMARK    8  A    between atoms: C_20  and  C_25 
ROOT
HETATM    1  C           1     -21.436  -6.264  -5.667  0.00  0.00     0.278 C 
ENDROOT
BRANCH   1   2
HETATM    2  C           1     -20.298  -7.254  -5.648  0.00  0.00     0.249 C 
HETATM    3  O           1     -19.460  -7.228  -6.517  0.00  0.00    -0.271 OA
HETATM    4  N           1     -20.215  -8.181  -4.644  0.00  0.00    -0.344 N 
HETATM    5  H           1     -20.918  -8.203  -3.916  0.00  0.00     0.163 HD
BRANCH   4   6
HETATM    6  C           1     -19.122  -9.133  -4.625  0.00  0.00     0.194 C 
BRANCH   6   7
HETATM    7  C           1     -18.717  -9.413  -3.184  0.00  0.00     0.138 C 
BRANCH   7   8
HETATM    8  C           1     -19.869  -9.090  -2.265  0.00  0.00     0.217 C 
HETATM    9  N           1     -20.743 -10.075  -1.891  0.00  0.00    -0.370 N 
HETATM   10  H           1     -20.616 -11.020  -2.231  0.00  0.00     0.159 HD
HETATM   11  H           1     -21.516  -9.859  -1.274  0.00  0.00     0.159 HD
HETATM   12  O           1     -20.020  -7.963  -1.857  0.00  0.00    -0.274 OA
ENDBRANCH   7   8
ENDBRANCH   6   7
BRANCH   6  13
HETATM   13  C           1     -19.562 -10.418  -5.282  0.00  0.00     0.197 C 
HETATM   14  O           1     -20.392 -11.159  -4.712  0.00  0.00    -0.646 OA
HETATM   15  O           1     -19.096 -10.742  -6.396  0.00  0.00    -0.646 OA
ENDBRANCH   6  13
ENDBRANCH   4   6
ENDBRANCH   1   2
BRANCH   1  16
HETATM   16  C           1     -20.968  -4.964  -6.309  0.00  0.00     0.083 C 
BRANCH  16  17
HETATM   17  C           1     -21.935  -4.558  -7.378  0.00  0.00    -0.028 A 
HETATM   18  C           1     -21.613  -4.254  -8.729  0.00  0.00    -0.002 A 
HETATM   19  C           1     -22.807  -3.927  -9.373  0.00  0.00     0.042 A 
HETATM   20  C           1     -20.415  -4.227  -9.469  0.00  0.00     0.014 A 
HETATM   21  N           1     -23.812  -4.030  -8.437  0.00  0.00    -0.365 N 
HETATM   22  C           1     -22.863  -3.571 -10.726  0.00  0.00     0.030 A 
HETATM   23  C           1     -23.296  -4.412  -7.227  0.00  0.00     0.096 A 
HETATM   24  H           1     -24.828  -3.844  -8.626  0.00  0.00     0.165 HD
HETATM   25  C           1     -21.661  -3.551 -11.439  0.00  0.00     0.002 A 
HETATM   26  C           1     -20.453  -3.874 -10.822  0.00  0.00     0.001 A 
ENDBRANCH  16  17
ENDBRANCH   1  16
BRANCH   1  27
HETATM   27  N           1     -21.886  -5.992  -4.263  0.00  0.00    -0.066 N 
HETATM   28  H           1     -22.792  -6.484  -4.087  0.00  0.00     0.275 HD
HETATM   29  H           1     -21.165  -6.340  -3.592  0.00  0.00     0.275 HD
HETATM   30  H           1     -22.018  -4.964  -4.131  0.00  0.00     0.275 HD
ENDBRANCH   1  27
TORSDOF 8
ENDMDL
MODEL 6
REMARK VINA RESULT:      -7.4      1.620      2.244
REMARK  8 active torsions:
REMARK  status: ('A' for Active; 'I' for Inactive)
REMARK    1  A    between atoms: N_4  and  C_10 
REMARK       I    between atoms: N_4  and  C_8 
REMARK    2  A    between atoms: C_8  and  C_9 
REMARK    3  A    between atoms: C_9  and  C_20 
REMARK    4  A    between atoms: C_9  and  N_30 
REMARK    5  A    between atoms: C_10  and  C_11 
REMARK    6  A    between atoms: C_10  and  C_16 
REMARK    7  A    between atoms: C_11  and  C_21 
REMARK       I    between atoms: N_12  and  C_21 
REMARK    8  A    between atoms: C_20  and  C_25 
ROOT
HETATM    1  C           1     -22.274  -4.922  -6.424  0.00  0.00     0.278 C 
ENDROOT
BRANCH   1   2
HETATM    2  C           1     -22.175  -4.284  -7.787  0.00  0.00     0.249 C 
HETATM    3  O           1     -21.135  -3.786  -8.147  0.00  0.00    -0.271 OA
HETATM    4  N           1     -23.264  -4.270  -8.617  0.00  0.00    -0.344 N 
HETATM    5  H           1     -24.135  -4.687  -8.315  0.00  0.00     0.163 HD
BRANCH   4   6
HETATM    6  C           1     -23.169  -3.657  -9.927  0.00  0.00     0.194 C 
BRANCH   6   7
HETATM    7  C           1     -22.609  -4.666 -10.921  0.00  0.00     0.138 C 
BRANCH   7   8
HETATM    8  C           1     -21.570  -3.998 -11.787  0.00  0.00     0.217 C 
HETATM    9  N           1     -21.925  -3.476 -13.001  0.00  0.00    -0.370 N 
HETATM   10  H           1     -22.884  -3.537 -13.318  0.00  0.00     0.159 HD
HETATM   11  H           1     -21.227  -3.028 -13.583  0.00  0.00     0.159 HD
HETATM   12  O           1     -20.425  -3.924 -11.409  0.00  0.00    -0.274 OA
ENDBRANCH   7   8
ENDBRANCH   6   7
BRANCH   6  13
HETATM   13  C           1     -24.540  -3.217 -10.376  0.00  0.00     0.197 C 
HETATM   14  O           1     -25.393  -2.868  -9.532  0.00  0.00    -0.646 OA
HETATM   15  O           1     -24.824  -3.201 -11.594  0.00  0.00    -0.646 OA
ENDBRANCH   6  13
ENDBRANCH   4   6
ENDBRANCH   1   2
BRANCH   1  16
HETATM   16  C           1     -21.344  -6.127  -6.357  0.00  0.00     0.083 C 
BRANCH  16  17
HETATM   17  C           1     -21.334  -6.675  -4.964  0.00  0.00    -0.028 A 
HETATM   18  C           1     -21.350  -8.051  -4.604  0.00  0.00    -0.002 A 
HETATM   19  C           1     -21.333  -8.111  -3.210  0.00  0.00     0.042 A 
HETATM   20  C           1     -21.376  -9.255  -5.334  0.00  0.00     0.014 A 
HETATM   21  N           1     -21.308  -6.814  -2.750  0.00  0.00    -0.365 N 
HETATM   22  C           1     -21.341  -9.321  -2.506  0.00  0.00     0.030 A 
HETATM   23  C           1     -21.308  -5.937  -3.802  0.00  0.00     0.096 A 
HETATM   24  H           1     -21.290  -6.537  -1.737  0.00  0.00     0.165 HD
HETATM   25  C           1     -21.368 -10.503  -3.253  0.00  0.00     0.002 A 
HETATM   26  C           1     -21.386 -10.473  -4.646  0.00  0.00     0.001 A 
ENDBRANCH  16  17
ENDBRANCH   1  16
BRANCH   1  27
HETATM   27  N           1     -23.685  -5.368  -6.182  0.00  0.00    -0.066 N 
HETATM   28  H           1     -23.743  -5.850  -5.256  0.00  0.00     0.275 HD
HETATM   29  H           1     -24.318  -4.538  -6.183  0.00  0.00     0.275 HD
HETATM   30  H           1     -23.977  -6.030  -6.937  0.00  0.00     0.275 HD
ENDBRANCH   1  27
TORSDOF 8
ENDMDL
MODEL 7
REMARK VINA RESULT:      -7.2      2.693      4.507
REMARK  8 active torsions:
REMARK  status: ('A' for Active; 'I' for Inactive)
REMARK    1  A    between atoms: N_4  and  C_10 
REMARK       I    between atoms: N_4  and  C_8 
REMARK    2  A    between atoms: C_8  and  C_9 
REMARK    3  A    between atoms: C_9  and  C_20 
REMARK    4  A    between atoms: C_9  and  N_30 
REMARK    5  A    between atoms: C_10  and  C_11 
REMARK    6  A    between atoms: C_10  and  C_16 
REMARK    7  A    between atoms: C_11  and  C_21 
REMARK       I    between atoms: N_12  and  C_21 
REMARK    8  A    between atoms: C_20  and  C_25 
ROOT
HETATM    1  C           1     -21.258  -6.241  -2.740  0.00  0.00     0.278 C 
ENDROOT
BRANCH   1   2
HETATM    2  C           1     -21.398  -6.308  -4.241  0.00  0.00     0.249 C 
HETATM    3  O           1     -21.901  -7.278  -4.758  0.00  0.00    -0.271 OA
HETATM    4  N           1     -20.955  -5.271  -5.017  0.00  0.00    -0.344 N 
HETATM    5  H           1     -20.533  -4.460  -4.583  0.00  0.00     0.163 HD
BRANCH   4   6
HETATM    6  C           1     -21.089  -5.335  -6.459  0.00  0.00     0.194 C 
BRANCH   6   7
HETATM    7  C           1     -21.548  -3.983  -6.987  0.00  0.00     0.138 C 
BRANCH   7   8
HETATM    8  C           1     -22.533  -4.188  -8.111  0.00  0.00     0.217 C 
HETATM    9  N           1     -23.878  -4.130  -7.861  0.00  0.00    -0.370 N 
HETATM   10  H           1     -24.211  -3.949  -6.923  0.00  0.00     0.159 HD
HETATM   11  H           1     -24.540  -4.267  -8.615  0.00  0.00     0.159 HD
HETATM   12  O           1     -22.137  -4.403  -9.231  0.00  0.00    -0.274 OA
ENDBRANCH   7   8
ENDBRANCH   6   7
BRANCH   6  13
HETATM   13  C           1     -19.757  -5.689  -7.073  0.00  0.00     0.197 C 
HETATM   14  O           1     -19.047  -4.795  -7.583  0.00  0.00    -0.646 OA
HETATM   15  O           1     -19.363  -6.875  -7.071  0.00  0.00    -0.646 OA
ENDBRANCH   6  13
ENDBRANCH   4   6
ENDBRANCH   1   2
BRANCH   1  16
HETATM   16  C           1     -20.707  -7.564  -2.222  0.00  0.00     0.083 C 
BRANCH  16  17
HETATM   17  C           1     -21.669  -8.154  -1.237  0.00  0.00    -0.028 A 
HETATM   18  C           1     -22.350  -9.395  -1.371  0.00  0.00    -0.002 A 
HETATM   19  C           1     -23.141  -9.555  -0.232  0.00  0.00     0.042 A 
HETATM   20  C           1     -22.369 -10.402  -2.355  0.00  0.00     0.014 A 
HETATM   21  N           1     -22.940  -8.445   0.558  0.00  0.00    -0.365 N 
HETATM   22  C           1     -23.953 -10.676  -0.028  0.00  0.00     0.030 A 
HETATM   23  C           1     -22.051  -7.591  -0.040  0.00  0.00     0.096 A 
HETATM   24  H           1     -23.402  -8.279   1.486  0.00  0.00     0.165 HD
HETATM   25  C           1     -23.956 -11.662  -1.020  0.00  0.00     0.002 A 
HETATM   26  C           1     -23.176 -11.529  -2.168  0.00  0.00     0.001 A 
ENDBRANCH  16  17
ENDBRANCH   1  16
BRANCH   1  27
HETATM   27  N           1     -22.600  -5.984  -2.124  0.00  0.00    -0.066 N 
HETATM   28  H           1     -22.763  -4.953  -2.063  0.00  0.00     0.275 HD
HETATM   29  H           1     -23.344  -6.420  -2.714  0.00  0.00     0.275 HD
HETATM   30  H           1     -22.630  -6.398  -1.165  0.00  0.00     0.275 HD
ENDBRANCH   1  27
TORSDOF 8
ENDMDL
MODEL 8
REMARK VINA RESULT:      -7.2      3.800      7.773
REMARK  8 active torsions:
REMARK  status: ('A' for Active; 'I' for Inactive)
REMARK    1  A    between atoms: N_4  and  C_10 
REMARK       I    between atoms: N_4  and  C_8 
REMARK    2  A    between atoms: C_8  and  C_9 
REMARK    3  A    between atoms: C_9  and  C_20 
REMARK    4  A    between atoms: C_9  and  N_30 
REMARK    5  A    between atoms: C_10  and  C_11 
REMARK    6  A    between atoms: C_10  and  C_16 
REMARK    7  A    between atoms: C_11  and  C_21 
REMARK       I    between atoms: N_12  and  C_21 
REMARK    8  A    between atoms: C_20  and  C_25 
ROOT
HETATM    1  C           1     -21.700  -6.509  -5.163  0.00  0.00     0.278 C 
ENDROOT
BRANCH   1   2
HETATM    2  C           1     -21.033  -7.862  -5.145  0.00  0.00     0.249 C 
HETATM    3  O           1     -21.144  -8.604  -6.091  0.00  0.00    -0.271 OA
HETATM    4  N           1     -20.300  -8.249  -4.055  0.00  0.00    -0.344 N 
HETATM    5  H           1     -20.207  -7.627  -3.261  0.00  0.00     0.163 HD
BRANCH   4   6
HETATM    6  C           1     -19.659  -9.549  -4.036  0.00  0.00     0.194 C 
BRANCH   6   7
HETATM    7  C           1     -18.149  -9.371  -4.117  0.00  0.00     0.138 C 
BRANCH   7   8
HETATM    8  C           1     -17.645  -9.921  -5.428  0.00  0.00     0.217 C 
HETATM    9  N           1     -18.534 -10.310  -6.393  0.00  0.00    -0.370 N 
HETATM   10  H           1     -19.529 -10.228  -6.228  0.00  0.00     0.159 HD
HETATM   11  H           1     -18.197 -10.680  -7.274  0.00  0.00     0.159 HD
HETATM   12  O           1     -16.457 -10.019  -5.627  0.00  0.00    -0.274 OA
ENDBRANCH   7   8
ENDBRANCH   6   7
BRANCH   6  13
HETATM   13  C           1     -20.012 -10.265  -2.757  0.00  0.00     0.197 C 
HETATM   14  O           1     -20.197 -11.502  -2.764  0.00  0.00    -0.646 OA
HETATM   15  O           1     -20.120  -9.623  -1.689  0.00  0.00    -0.646 OA
ENDBRANCH   6  13
ENDBRANCH   4   6
ENDBRANCH   1   2
BRANCH   1  16
HETATM   16  C           1     -20.899  -5.560  -6.045  0.00  0.00     0.083 C 
BRANCH  16  17
HETATM   17  C           1     -21.801  -4.956  -7.078  0.00  0.00    -0.028 A 
HETATM   18  C           1     -21.446  -4.639  -8.417  0.00  0.00    -0.002 A 
HETATM   19  C           1     -22.580  -4.100  -9.027  0.00  0.00     0.042 A 
HETATM   20  C           1     -20.264  -4.759  -9.174  0.00  0.00     0.014 A 
HETATM   21  N           1     -23.582  -4.095  -8.082  0.00  0.00    -0.365 N 
HETATM   22  C           1     -22.591  -3.673 -10.360  0.00  0.00     0.030 A 
HETATM   23  C           1     -23.122  -4.612  -6.899  0.00  0.00     0.096 A 
HETATM   24  H           1     -24.559  -3.746  -8.245  0.00  0.00     0.165 HD
HETATM   25  C           1     -21.406  -3.802 -11.089  0.00  0.00     0.002 A 
HETATM   26  C           1     -20.258  -4.337 -10.507  0.00  0.00     0.001 A 
ENDBRANCH  16  17
ENDBRANCH   1  16
BRANCH   1  27
HETATM   27  N           1     -21.761  -5.962  -3.768  0.00  0.00    -0.066 N 
HETATM   28  H           1     -21.271  -6.618  -3.117  0.00  0.00     0.275 HD
HETATM   29  H           1     -21.293  -5.029  -3.739  0.00  0.00     0.275 HD
HETATM   30  H           1     -22.759  -5.862  -3.475  0.00  0.00     0.275 HD
ENDBRANCH   1  27
TORSDOF 8
ENDMDL
MODEL 9
REMARK VINA RESULT:      -6.9      1.788      2.888
REMARK  8 active torsions:
REMARK  status: ('A' for Active; 'I' for Inactive)
REMARK    1  A    between atoms: N_4  and  C_10 
REMARK       I    between atoms: N_4  and  C_8 
REMARK    2  A    between atoms: C_8  and  C_9 
REMARK    3  A    between atoms: C_9  and  C_20 
REMARK    4  A    between atoms: C_9  and  N_30 
REMARK    5  A    between atoms: C_10  and  C_11 
REMARK    6  A    between atoms: C_10  and  C_16 
REMARK    7  A    between atoms: C_11  and  C_21 
REMARK       I    between atoms: N_12  and  C_21 
REMARK    8  A    between atoms: C_20  and  C_25 
ROOT
HETATM    1  C           1     -21.481  -5.936  -5.001  0.00  0.00     0.278 C 
ENDROOT
BRANCH   1   2
HETATM    2  C           1     -21.432  -5.876  -6.507  0.00  0.00     0.249 C 
HETATM    3  O           1     -20.982  -6.804  -7.135  0.00  0.00    -0.271 OA
HETATM    4  N           1     -21.898  -4.768  -7.163  0.00  0.00    -0.344 N 
HETATM    5  H           1     -22.275  -3.990  -6.637  0.00  0.00     0.163 HD
BRANCH   4   6
HETATM    6  C           1     -21.851  -4.709  -8.611  0.00  0.00     0.194 C 
BRANCH   6   7
HETATM    7  C           1     -22.834  -3.658  -9.109  0.00  0.00     0.138 C 
BRANCH   7   8
HETATM    8  C           1     -23.984  -4.336  -9.811  0.00  0.00     0.217 C 
HETATM    9  N           1     -25.261  -3.878  -9.630  0.00  0.00    -0.370 N 
HETATM   10  H           1     -25.434  -3.085  -9.025  0.00  0.00     0.159 HD
HETATM   11  H           1     -26.034  -4.332 -10.101  0.00  0.00     0.159 HD
HETATM   12  O           1     -23.779  -5.282 -10.534  0.00  0.00    -0.274 OA
ENDBRANCH   7   8
ENDBRANCH   6   7
BRANCH   6  13
HETATM   13  C           1     -20.456  -4.343  -9.054  0.00  0.00     0.197 C 
HETATM   14  O           1     -19.719  -3.667  -8.304  0.00  0.00    -0.646 OA
HETATM   15  O           1     -20.037  -4.715 -10.172  0.00  0.00    -0.646 OA
ENDBRANCH   6  13
ENDBRANCH   4   6
ENDBRANCH   1   2
BRANCH   1  16
HETATM   16  C           1     -20.406  -6.890  -4.495  0.00  0.00     0.083 C 
BRANCH  16  17
HETATM   17  C           1     -21.054  -8.077  -3.852  0.00  0.00    -0.028 A 
HETATM   18  C           1     -21.473  -8.170  -2.496  0.00  0.00    -0.002 A 
HETATM   19  C           1     -22.022  -9.442  -2.322  0.00  0.00     0.042 A 
HETATM   20  C           1     -21.440  -7.291  -1.397  0.00  0.00     0.014 A 
HETATM   21  N           1     -21.933 -10.089  -3.535  0.00  0.00    -0.365 N 
HETATM   22  C           1     -22.540  -9.880  -1.098  0.00  0.00     0.030 A 
HETATM   23  C           1     -21.350  -9.272  -4.467  0.00  0.00     0.096 A 
HETATM   24  H           1     -22.266 -11.068  -3.718  0.00  0.00     0.165 HD
HETATM   25  C           1     -22.495  -8.990  -0.022  0.00  0.00     0.002 A 
HETATM   26  C           1     -21.953  -7.714  -0.165  0.00  0.00     0.001 A 
ENDBRANCH  16  17
ENDBRANCH   1  16
BRANCH   1  27
HETATM   27  N           1     -22.829  -6.428  -4.564  0.00  0.00    -0.066 N 
HETATM   28  H           1     -22.753  -7.426  -4.261  0.00  0.00     0.275 HD
HETATM   29  H           1     -23.171  -5.847  -3.767  0.00  0.00     0.275 HD
HETATM   30  H           1     -23.502  -6.357  -5.360  0.00  0.00     0.275 HD
ENDBRANCH   1  27
TORSDOF 8
ENDMDL
