MODEL 1
REMARK VINA RESULT:      -6.7      0.000      0.000
REMARK  8 active torsions:
REMARK  status: ('A' for Active; 'I' for Inactive)
REMARK    1  A    between atoms: C_1  and  C_12 
REMARK       I    between atoms: C_1  and  N_9 
REMARK    2  A    between atoms: N_6  and  C_13 
REMARK       I    between atoms: C_7  and  N_21 
REMARK    3  A    between atoms: C_7  and  C_13 
REMARK    4  A    between atoms: C_12  and  C_13 
REMARK    5  A    between atoms: C_14  and  C_22 
REMARK    6  A    between atoms: C_14  and  C_15 
REMARK    7  A    between atoms: C_15  and  C_16 
REMARK    8  A    between atoms: C_15  and  N_21 
ROOT
HETATM    1  O           1     -37.395  -0.770 -13.150  0.00  0.00    -0.271 OA
HETATM    2  C           1     -36.296  -0.296 -12.996  0.00  0.00     0.249 C 
HETATM    3  H           1     -34.653  -0.194 -11.740  0.00  0.00     0.163 HD
HETATM    4  N           1     -35.576  -0.590 -11.869  0.00  0.00    -0.344 N 
ENDROOT
BRANCH   2   5
HETATM    5  C           1     -35.714   0.620 -14.045  0.00  0.00     0.283 C 
BRANCH   5   6
HETATM    6  N           1     -34.378   1.122 -13.585  0.00  0.00    -0.066 N 
HETATM    7  H           1     -34.051   0.554 -12.773  0.00  0.00     0.275 HD
HETATM    8  H           1     -33.688   1.041 -14.367  0.00  0.00     0.275 HD
HETATM    9  H           1     -34.463   2.124 -13.298  0.00  0.00     0.275 HD
ENDBRANCH   5   6
BRANCH   5  10
HETATM   10  C           1     -35.547  -0.145 -15.351  0.00  0.00     0.145 C 
BRANCH  10  11
HETATM   11  C           1     -36.802  -0.011 -16.177  0.00  0.00     0.217 C 
HETATM   12  N           1     -37.667   1.025 -15.944  0.00  0.00    -0.370 N 
HETATM   13  H           1     -38.509   1.115 -16.497  0.00  0.00     0.159 HD
HETATM   14  H           1     -37.465   1.699 -15.217  0.00  0.00     0.159 HD
HETATM   15  O           1     -37.043  -0.816 -17.044  0.00  0.00    -0.274 OA
ENDBRANCH  10  11
ENDBRANCH   5  10
ENDBRANCH   2   5
BRANCH   4  16
HETATM   16  C           1     -36.134  -1.471 -10.861  0.00  0.00     0.189 C 
BRANCH  16  17
HETATM   17  C           1     -35.071  -2.464 -10.411  0.00  0.00     0.014 C 
HETATM   18  C           1     -35.477  -3.869 -10.838  0.00  0.00     0.012 C 
BRANCH  17  19
HETATM   19  C           1     -33.737  -2.105 -11.051  0.00  0.00     0.002 C 
HETATM   20  C           1     -33.011  -3.378 -11.462  0.00  0.00     0.005 C 
ENDBRANCH  17  19
ENDBRANCH  16  17
BRANCH  16  21
HETATM   21  C           1     -36.593  -0.654  -9.679  0.00  0.00     0.197 C 
HETATM   22  O           1     -35.764  -0.268  -8.826  0.00  0.00    -0.646 OA
HETATM   23  O           1     -37.801  -0.361  -9.552  0.00  0.00    -0.646 OA
ENDBRANCH  16  21
ENDBRANCH   4  16
TORSDOF 8
ENDMDL
MODEL 2
REMARK VINA RESULT:      -6.4     13.165     15.942
REMARK  8 active torsions:
REMARK  status: ('A' for Active; 'I' for Inactive)
REMARK    1  A    between atoms: C_1  and  C_12 
REMARK       I    between atoms: C_1  and  N_9 
REMARK    2  A    between atoms: N_6  and  C_13 
REMARK       I    between atoms: C_7  and  N_21 
REMARK    3  A    between atoms: C_7  and  C_13 
REMARK    4  A    between atoms: C_12  and  C_13 
REMARK    5  A    between atoms: C_14  and  C_22 
REMARK    6  A    between atoms: C_14  and  C_15 
REMARK    7  A    between atoms: C_15  and  C_16 
REMARK    8  A    between atoms: C_15  and  N_21 
ROOT
HETATM    1  O           1     -21.555  -3.444  -7.433  0.00  0.00    -0.271 OA
HETATM    2  C           1     -21.710  -4.594  -7.771  0.00  0.00     0.249 C 
HETATM    3  H           1     -22.499  -5.845  -9.219  0.00  0.00     0.163 HD
HETATM    4  N           1     -22.370  -4.882  -8.935  0.00  0.00    -0.344 N 
ENDROOT
BRANCH   2   5
HETATM    5  C           1     -21.172  -5.712  -6.912  0.00  0.00     0.283 C 
BRANCH   5   6
HETATM    6  N           1     -19.865  -6.189  -7.471  0.00  0.00    -0.066 N 
HETATM    7  H           1     -20.031  -7.011  -8.094  0.00  0.00     0.275 HD
HETATM    8  H           1     -19.420  -5.420  -8.022  0.00  0.00     0.275 HD
HETATM    9  H           1     -19.233  -6.467  -6.687  0.00  0.00     0.275 HD
ENDBRANCH   5   6
BRANCH   5  10
HETATM   10  C           1     -20.961  -5.204  -5.491  0.00  0.00     0.145 C 
BRANCH  10  11
HETATM   11  C           1     -21.268  -6.308  -4.511  0.00  0.00     0.217 C 
HETATM   12  N           1     -21.690  -6.001  -3.244  0.00  0.00    -0.370 N 
HETATM   13  H           1     -21.896  -6.742  -2.587  0.00  0.00     0.159 HD
HETATM   14  H           1     -21.794  -5.034  -2.967  0.00  0.00     0.159 HD
HETATM   15  O           1     -21.144  -7.462  -4.843  0.00  0.00    -0.274 OA
ENDBRANCH  10  11
ENDBRANCH   5  10
ENDBRANCH   2   5
BRANCH   4  16
HETATM   16  C           1     -22.886  -3.808  -9.762  0.00  0.00     0.189 C 
BRANCH  16  17
HETATM   17  C           1     -22.451  -4.024 -11.205  0.00  0.00     0.014 C 
HETATM   18  C           1     -22.854  -2.818 -12.042  0.00  0.00     0.012 C 
BRANCH  17  19
HETATM   19  C           1     -20.939  -4.198 -11.258  0.00  0.00     0.002 C 
HETATM   20  C           1     -20.267  -2.836 -11.143  0.00  0.00     0.005 C 
ENDBRANCH  17  19
ENDBRANCH  16  17
BRANCH  16  21
HETATM   21  C           1     -24.393  -3.796  -9.686  0.00  0.00     0.197 C 
HETATM   22  O           1     -24.998  -2.730  -9.440  0.00  0.00    -0.646 OA
HETATM   23  O           1     -25.037  -4.851  -9.868  0.00  0.00    -0.646 OA
ENDBRANCH  16  21
ENDBRANCH   4  16
TORSDOF 8
ENDMDL
MODEL 3
REMARK VINA RESULT:      -6.3      2.886      5.414
REMARK  8 active torsions:
REMARK  status: ('A' for Active; 'I' for Inactive)
REMARK    1  A    between atoms: C_1  and  C_12 
REMARK       I    between atoms: C_1  and  N_9 
REMARK    2  A    between atoms: N_6  and  C_13 
REMARK       I    between atoms: C_7  and  N_21 
REMARK    3  A    between atoms: C_7  and  C_13 
REMARK    4  A    between atoms: C_12  and  C_13 
REMARK    5  A    between atoms: C_14  and  C_22 
REMARK    6  A    between atoms: C_14  and  C_15 
REMARK    7  A    between atoms: C_15  and  C_16 
REMARK    8  A    between atoms: C_15  and  N_21 
ROOT
HETATM    1  O           1     -33.633  -2.130 -11.211  0.00  0.00    -0.271 OA
HETATM    2  C           1     -34.421  -2.586 -12.005  0.00  0.00     0.249 C 
HETATM    3  H           1     -36.082  -2.179 -13.172  0.00  0.00     0.163 HD
HETATM    4  N           1     -35.422  -1.798 -12.505  0.00  0.00    -0.344 N 
ENDROOT
BRANCH   2   5
HETATM    5  C           1     -34.300  -4.024 -12.447  0.00  0.00     0.283 C 
BRANCH   5   6
HETATM    6  N           1     -33.535  -4.089 -13.735  0.00  0.00    -0.066 N 
HETATM    7  H           1     -32.753  -3.396 -13.712  0.00  0.00     0.275 HD
HETATM    8  H           1     -33.144  -5.050 -13.860  0.00  0.00     0.275 HD
HETATM    9  H           1     -34.174  -3.866 -14.531  0.00  0.00     0.275 HD
ENDBRANCH   5   6
BRANCH   5  10
HETATM   10  C           1     -33.565  -4.824 -11.379  0.00  0.00     0.145 C 
BRANCH  10  11
HETATM   11  C           1     -34.353  -6.067 -11.051  0.00  0.00     0.217 C 
HETATM   12  N           1     -34.966  -6.774 -12.052  0.00  0.00    -0.370 N 
HETATM   13  H           1     -35.495  -7.607 -11.832  0.00  0.00     0.159 HD
HETATM   14  H           1     -34.890  -6.460 -13.011  0.00  0.00     0.159 HD
HETATM   15  O           1     -34.444  -6.440  -9.907  0.00  0.00    -0.274 OA
ENDBRANCH  10  11
ENDBRANCH   5  10
ENDBRANCH   2   5
BRANCH   4  16
HETATM   16  C           1     -35.538  -0.416 -12.081  0.00  0.00     0.189 C 
BRANCH  16  17
HETATM   17  C           1     -35.841   0.461 -13.289  0.00  0.00     0.014 C 
HETATM   18  C           1     -34.550   1.090 -13.795  0.00  0.00     0.012 C 
BRANCH  17  19
HETATM   19  C           1     -36.459  -0.388 -14.390  0.00  0.00     0.002 C 
HETATM   20  C           1     -35.977   0.110 -15.747  0.00  0.00     0.005 C 
ENDBRANCH  17  19
ENDBRANCH  16  17
BRANCH  16  21
HETATM   21  C           1     -36.655  -0.292 -11.075  0.00  0.00     0.197 C 
HETATM   22  O           1     -37.641  -1.056 -11.139  0.00  0.00    -0.646 OA
HETATM   23  O           1     -36.594   0.575 -10.177  0.00  0.00    -0.646 OA
ENDBRANCH  16  21
ENDBRANCH   4  16
TORSDOF 8
ENDMDL
MODEL 4
REMARK VINA RESULT:      -6.0      2.895      5.716
REMARK  8 active torsions:
REMARK  status: ('A' for Active; 'I' for Inactive)
REMARK    1  A    between atoms: C_1  and  C_12 
REMARK       I    between atoms: C_1  and  N_9 
REMARK    2  A    between atoms: N_6  and  C_13 
REMARK       I    between atoms: C_7  and  N_21 
REMARK    3  A    between atoms: C_7  and  C_13 
REMARK    4  A    between atoms: C_12  and  C_13 
REMARK    5  A    between atoms: C_14  and  C_22 
REMARK    6  A    between atoms: C_14  and  C_15 
REMARK    7  A    between atoms: C_15  and  C_16 
REMARK    8  A    between atoms: C_15  and  N_21 
ROOT
HETATM    1  O           1     -34.856  -3.479 -13.366  0.00  0.00    -0.271 OA
HETATM    2  C           1     -34.367  -2.656 -12.630  0.00  0.00     0.249 C 
HETATM    3  H           1     -34.339  -0.654 -12.103  0.00  0.00     0.163 HD
HETATM    4  N           1     -34.748  -1.344 -12.720  0.00  0.00    -0.344 N 
ENDROOT
BRANCH   2   5
HETATM    5  C           1     -33.336  -3.073 -11.611  0.00  0.00     0.283 C 
BRANCH   5   6
HETATM    6  N           1     -33.929  -2.989 -10.236  0.00  0.00    -0.066 N 
HETATM    7  H           1     -33.691  -2.067  -9.808  0.00  0.00     0.275 HD
HETATM    8  H           1     -34.968  -3.086 -10.298  0.00  0.00     0.275 HD
HETATM    9  H           1     -33.542  -3.759  -9.643  0.00  0.00     0.275 HD
ENDBRANCH   5   6
BRANCH   5  10
HETATM   10  C           1     -32.898  -4.506 -11.888  0.00  0.00     0.145 C 
BRANCH  10  11
HETATM   11  C           1     -33.942  -5.461 -11.365  0.00  0.00     0.217 C 
HETATM   12  N           1     -34.788  -6.095 -12.237  0.00  0.00    -0.370 N 
HETATM   13  H           1     -35.488  -6.735 -11.886  0.00  0.00     0.159 HD
HETATM   14  H           1     -34.712  -5.921 -13.230  0.00  0.00     0.159 HD
HETATM   15  O           1     -34.032  -5.667 -10.179  0.00  0.00    -0.274 OA
ENDBRANCH  10  11
ENDBRANCH   5  10
ENDBRANCH   2   5
BRANCH   4  16
HETATM   16  C           1     -35.740  -0.943 -13.700  0.00  0.00     0.189 C 
BRANCH  16  17
HETATM   17  C           1     -36.650   0.118 -13.095  0.00  0.00     0.014 C 
HETATM   18  C           1     -38.074  -0.096 -13.588  0.00  0.00     0.012 C 
BRANCH  17  19
HETATM   19  C           1     -36.615   0.009 -11.577  0.00  0.00     0.002 C 
HETATM   20  C           1     -38.032  -0.164 -11.047  0.00  0.00     0.005 C 
ENDBRANCH  17  19
ENDBRANCH  16  17
BRANCH  16  21
HETATM   21  C           1     -35.045  -0.378 -14.914  0.00  0.00     0.197 C 
HETATM   22  O           1     -35.136  -0.962 -16.015  0.00  0.00    -0.646 OA
HETATM   23  O           1     -34.378   0.675 -14.820  0.00  0.00    -0.646 OA
ENDBRANCH  16  21
ENDBRANCH   4  16
TORSDOF 8
ENDMDL
MODEL 5
REMARK VINA RESULT:      -5.6     14.981     17.234
REMARK  8 active torsions:
REMARK  status: ('A' for Active; 'I' for Inactive)
REMARK    1  A    between atoms: C_1  and  C_12 
REMARK       I    between atoms: C_1  and  N_9 
REMARK    2  A    between atoms: N_6  and  C_13 
REMARK       I    between atoms: C_7  and  N_21 
REMARK    3  A    between atoms: C_7  and  C_13 
REMARK    4  A    between atoms: C_12  and  C_13 
REMARK    5  A    between atoms: C_14  and  C_22 
REMARK    6  A    between atoms: C_14  and  C_15 
REMARK    7  A    between atoms: C_15  and  C_16 
REMARK    8  A    between atoms: C_15  and  N_21 
ROOT
HETATM    1  O           1     -22.977  -5.918  -5.482  0.00  0.00    -0.271 OA
HETATM    2  C           1     -21.776  -5.792  -5.524  0.00  0.00     0.249 C 
HETATM    3  H           1     -19.974  -6.444  -4.743  0.00  0.00     0.163 HD
HETATM    4  N           1     -20.980  -6.549  -4.708  0.00  0.00    -0.344 N 
ENDROOT
BRANCH   2   5
HETATM    5  C           1     -21.154  -4.800  -6.476  0.00  0.00     0.283 C 
BRANCH   5   6
HETATM    6  N           1     -19.668  -4.776  -6.273  0.00  0.00    -0.066 N 
HETATM    7  H           1     -19.277  -5.728  -6.447  0.00  0.00     0.275 HD
HETATM    8  H           1     -19.237  -4.095  -6.939  0.00  0.00     0.275 HD
HETATM    9  H           1     -19.457  -4.486  -5.292  0.00  0.00     0.275 HD
ENDBRANCH   5   6
BRANCH   5  10
HETATM   10  C           1     -21.463  -5.211  -7.910  0.00  0.00     0.145 C 
BRANCH  10  11
HETATM   11  C           1     -22.455  -4.243  -8.508  0.00  0.00     0.217 C 
HETATM   12  N           1     -23.689  -4.086  -7.934  0.00  0.00    -0.370 N 
HETATM   13  H           1     -24.354  -3.437  -8.335  0.00  0.00     0.159 HD
HETATM   14  H           1     -23.934  -4.619  -7.110  0.00  0.00     0.159 HD
HETATM   15  O           1     -22.161  -3.608  -9.491  0.00  0.00    -0.274 OA
ENDBRANCH  10  11
ENDBRANCH   5  10
ENDBRANCH   2   5
BRANCH   4  16
HETATM   16  C           1     -21.578  -7.502  -3.793  0.00  0.00     0.189 C 
BRANCH  16  17
HETATM   17  C           1     -20.757  -8.785  -3.789  0.00  0.00     0.014 C 
HETATM   18  C           1     -21.611  -9.935  -4.306  0.00  0.00     0.012 C 
BRANCH  17  19
HETATM   19  C           1     -19.541  -8.611  -4.688  0.00  0.00     0.002 C 
HETATM   20  C           1     -18.350  -9.340  -4.079  0.00  0.00     0.005 C 
ENDBRANCH  17  19
ENDBRANCH  16  17
BRANCH  16  21
HETATM   21  C           1     -21.603  -6.916  -2.403  0.00  0.00     0.197 C 
HETATM   22  O           1     -22.323  -5.925  -2.156  0.00  0.00    -0.646 OA
HETATM   23  O           1     -20.904  -7.420  -1.498  0.00  0.00    -0.646 OA
ENDBRANCH  16  21
ENDBRANCH   4  16
TORSDOF 8
ENDMDL
MODEL 6
REMARK VINA RESULT:      -5.5     15.305     17.298
REMARK  8 active torsions:
REMARK  status: ('A' for Active; 'I' for Inactive)
REMARK    1  A    between atoms: C_1  and  C_12 
REMARK       I    between atoms: C_1  and  N_9 
REMARK    2  A    between atoms: N_6  and  C_13 
REMARK       I    between atoms: C_7  and  N_21 
REMARK    3  A    between atoms: C_7  and  C_13 
REMARK    4  A    between atoms: C_12  and  C_13 
REMARK    5  A    between atoms: C_14  and  C_22 
REMARK    6  A    between atoms: C_14  and  C_15 
REMARK    7  A    between atoms: C_15  and  C_16 
REMARK    8  A    between atoms: C_15  and  N_21 
ROOT
HETATM    1  O           1     -19.474  -6.128  -7.173  0.00  0.00    -0.271 OA
HETATM    2  C           1     -20.661  -5.985  -7.005  0.00  0.00     0.249 C 
HETATM    3  H           1     -22.269  -6.441  -5.783  0.00  0.00     0.163 HD
HETATM    4  N           1     -21.274  -6.561  -5.925  0.00  0.00    -0.344 N 
ENDROOT
BRANCH   2   5
HETATM    5  C           1     -21.469  -5.169  -7.984  0.00  0.00     0.283 C 
BRANCH   5   6
HETATM    6  N           1     -22.326  -4.193  -7.235  0.00  0.00    -0.066 N 
HETATM    7  H           1     -22.060  -3.219  -7.500  0.00  0.00     0.275 HD
HETATM    8  H           1     -23.331  -4.357  -7.474  0.00  0.00     0.275 HD
HETATM    9  H           1     -22.187  -4.326  -6.207  0.00  0.00     0.275 HD
ENDBRANCH   5   6
BRANCH   5  10
HETATM   10  C           1     -20.528  -4.410  -8.911  0.00  0.00     0.145 C 
BRANCH  10  11
HETATM   11  C           1     -21.175  -4.252 -10.265  0.00  0.00     0.217 C 
HETATM   12  N           1     -20.450  -3.753 -11.315  0.00  0.00    -0.370 N 
HETATM   13  H           1     -20.884  -3.647 -12.223  0.00  0.00     0.159 HD
HETATM   14  H           1     -19.483  -3.491 -11.182  0.00  0.00     0.159 HD
HETATM   15  O           1     -22.330  -4.565 -10.423  0.00  0.00    -0.274 OA
ENDBRANCH  10  11
ENDBRANCH   5  10
ENDBRANCH   2   5
BRANCH   4  16
HETATM   16  C           1     -20.497  -7.345  -4.983  0.00  0.00     0.189 C 
BRANCH  16  17
HETATM   17  C           1     -21.265  -7.471  -3.674  0.00  0.00     0.014 C 
HETATM   18  C           1     -20.435  -8.266  -2.675  0.00  0.00     0.012 C 
BRANCH  17  19
HETATM   19  C           1     -21.543  -6.083  -3.114  0.00  0.00     0.002 C 
HETATM   20  C           1     -22.226  -6.209  -1.759  0.00  0.00     0.005 C 
ENDBRANCH  17  19
ENDBRANCH  16  17
BRANCH  16  21
HETATM   21  C           1     -20.251  -8.718  -5.557  0.00  0.00     0.197 C 
HETATM   22  O           1     -21.216  -9.455  -5.852  0.00  0.00    -0.646 OA
HETATM   23  O           1     -19.081  -9.121  -5.736  0.00  0.00    -0.646 OA
ENDBRANCH  16  21
ENDBRANCH   4  16
TORSDOF 8
ENDMDL
MODEL 7
REMARK VINA RESULT:      -5.3     14.186     17.047
REMARK  8 active torsions:
REMARK  status: ('A' for Active; 'I' for Inactive)
REMARK    1  A    between atoms: C_1  and  C_12 
REMARK       I    between atoms: C_1  and  N_9 
REMARK    2  A    between atoms: N_6  and  C_13 
REMARK       I    between atoms: C_7  and  N_21 
REMARK    3  A    between atoms: C_7  and  C_13 
REMARK    4  A    between atoms: C_12  and  C_13 
REMARK    5  A    between atoms: C_14  and  C_22 
REMARK    6  A    between atoms: C_14  and  C_15 
REMARK    7  A    between atoms: C_15  and  C_16 
REMARK    8  A    between atoms: C_15  and  N_21 
ROOT
HETATM    1  O           1     -20.795  -6.826  -7.139  0.00  0.00    -0.271 OA
HETATM    2  C           1     -21.391  -5.904  -6.637  0.00  0.00     0.249 C 
HETATM    3  H           1     -22.336  -4.098  -6.997  0.00  0.00     0.163 HD
HETATM    4  N           1     -21.836  -4.871  -7.417  0.00  0.00    -0.344 N 
ENDROOT
BRANCH   2   5
HETATM    5  C           1     -21.648  -5.891  -5.150  0.00  0.00     0.283 C 
BRANCH   5   6
HETATM    6  N           1     -23.108  -6.116  -4.892  0.00  0.00    -0.066 N 
HETATM    7  H           1     -23.288  -7.138  -4.775  0.00  0.00     0.275 HD
HETATM    8  H           1     -23.389  -5.611  -4.021  0.00  0.00     0.275 HD
HETATM    9  H           1     -23.663  -5.753  -5.700  0.00  0.00     0.275 HD
ENDBRANCH   5   6
BRANCH   5  10
HETATM   10  C           1     -20.838  -6.997  -4.485  0.00  0.00     0.145 C 
BRANCH  10  11
HETATM   11  C           1     -21.302  -7.173  -3.060  0.00  0.00     0.217 C 
HETATM   12  N           1     -21.415  -8.430  -2.527  0.00  0.00    -0.370 N 
HETATM   13  H           1     -21.727  -8.548  -1.572  0.00  0.00     0.159 HD
HETATM   14  H           1     -21.187  -9.239  -3.090  0.00  0.00     0.159 HD
HETATM   15  O           1     -21.575  -6.206  -2.390  0.00  0.00    -0.274 OA
ENDBRANCH  10  11
ENDBRANCH   5  10
ENDBRANCH   2   5
BRANCH   4  16
HETATM   16  C           1     -21.590  -4.883  -8.847  0.00  0.00     0.189 C 
BRANCH  16  17
HETATM   17  C           1     -22.551  -3.923  -9.535  0.00  0.00     0.014 C 
HETATM   18  C           1     -22.687  -4.307 -11.002  0.00  0.00     0.012 C 
BRANCH  17  19
HETATM   19  C           1     -23.914  -4.001  -8.861  0.00  0.00     0.002 C 
HETATM   20  C           1     -24.946  -3.277  -9.716  0.00  0.00     0.005 C 
ENDBRANCH  17  19
ENDBRANCH  16  17
BRANCH  16  21
HETATM   21  C           1     -20.169  -4.453  -9.115  0.00  0.00     0.197 C 
HETATM   22  O           1     -19.608  -3.638  -8.352  0.00  0.00    -0.646 OA
HETATM   23  O           1     -19.553  -4.911 -10.101  0.00  0.00    -0.646 OA
ENDBRANCH  16  21
ENDBRANCH   4  16
TORSDOF 8
ENDMDL
MODEL 8
REMARK VINA RESULT:      -5.3     17.716     19.443
REMARK  8 active torsions:
REMARK  status: ('A' for Active; 'I' for Inactive)
REMARK    1  A    between atoms: C_1  and  C_12 
REMARK       I    between atoms: C_1  and  N_9 
REMARK    2  A    between atoms: N_6  and  C_13 
REMARK       I    between atoms: C_7  and  N_21 
REMARK    3  A    between atoms: C_7  and  C_13 
REMARK    4  A    between atoms: C_12  and  C_13 
REMARK    5  A    between atoms: C_14  and  C_22 
REMARK    6  A    between atoms: C_14  and  C_15 
REMARK    7  A    between atoms: C_15  and  C_16 
REMARK    8  A    between atoms: C_15  and  N_21 
ROOT
HETATM    1  O           1     -20.852  -6.923  -2.139  0.00  0.00    -0.271 OA
HETATM    2  C           1     -21.341  -7.826  -2.775  0.00  0.00     0.249 C 
HETATM    3  H           1     -21.968  -9.798  -2.717  0.00  0.00     0.163 HD
HETATM    4  N           1     -21.558  -9.041  -2.184  0.00  0.00    -0.344 N 
ENDROOT
BRANCH   2   5
HETATM    5  C           1     -21.715  -7.613  -4.222  0.00  0.00     0.283 C 
BRANCH   5   6
HETATM    6  N           1     -22.499  -6.341  -4.354  0.00  0.00    -0.066 N 
HETATM    7  H           1     -22.360  -5.755  -3.501  0.00  0.00     0.275 HD
HETATM    8  H           1     -22.170  -5.815  -5.196  0.00  0.00     0.275 HD
HETATM    9  H           1     -23.514  -6.568  -4.460  0.00  0.00     0.275 HD
ENDBRANCH   5   6
BRANCH   5  10
HETATM   10  C           1     -20.450  -7.519  -5.065  0.00  0.00     0.145 C 
BRANCH  10  11
HETATM   11  C           1     -20.493  -6.263  -5.899  0.00  0.00     0.217 C 
HETATM   12  N           1     -20.890  -6.324  -7.209  0.00  0.00    -0.370 N 
HETATM   13  H           1     -20.918  -5.482  -7.768  0.00  0.00     0.159 HD
HETATM   14  H           1     -21.152  -7.212  -7.616  0.00  0.00     0.159 HD
HETATM   15  O           1     -20.179  -5.203  -5.413  0.00  0.00    -0.274 OA
ENDBRANCH  10  11
ENDBRANCH   5  10
ENDBRANCH   2   5
BRANCH   4  16
HETATM   16  C           1     -21.199  -9.246  -0.794  0.00  0.00     0.189 C 
BRANCH  16  17
HETATM   17  C           1     -22.454  -9.548   0.014  0.00  0.00     0.014 C 
HETATM   18  C           1     -23.144  -8.242   0.385  0.00  0.00     0.012 C 
BRANCH  17  19
HETATM   19  C           1     -23.399 -10.403  -0.818  0.00  0.00     0.002 C 
HETATM   20  C           1     -23.811 -11.632  -0.017  0.00  0.00     0.005 C 
ENDBRANCH  17  19
ENDBRANCH  16  17
BRANCH  16  21
HETATM   21  C           1     -20.241 -10.406  -0.689  0.00  0.00     0.197 C 
HETATM   22  O           1     -20.112 -11.015   0.395  0.00  0.00    -0.646 OA
HETATM   23  O           1     -19.574 -10.759  -1.685  0.00  0.00    -0.646 OA
ENDBRANCH  16  21
ENDBRANCH   4  16
TORSDOF 8
ENDMDL
MODEL 9
REMARK VINA RESULT:      -5.1     17.349     19.275
REMARK  8 active torsions:
REMARK  status: ('A' for Active; 'I' for Inactive)
REMARK    1  A    between atoms: C_1  and  C_12 
REMARK       I    between atoms: C_1  and  N_9 
REMARK    2  A    between atoms: N_6  and  C_13 
REMARK       I    between atoms: C_7  and  N_21 
REMARK    3  A    between atoms: C_7  and  C_13 
REMARK    4  A    between atoms: C_12  and  C_13 
REMARK    5  A    between atoms: C_14  and  C_22 
REMARK    6  A    between atoms: C_14  and  C_15 
REMARK    7  A    between atoms: C_15  and  C_16 
REMARK    8  A    between atoms: C_15  and  N_21 
ROOT
HETATM    1  O           1     -22.349  -6.824  -1.426  0.00  0.00    -0.271 OA
HETATM    2  C           1     -21.676  -7.597  -2.065  0.00  0.00     0.249 C 
HETATM    3  H           1     -21.020  -9.555  -2.213  0.00  0.00     0.163 HD
HETATM    4  N           1     -21.583  -8.906  -1.677  0.00  0.00    -0.344 N 
ENDROOT
BRANCH   2   5
HETATM    5  C           1     -20.938  -7.120  -3.292  0.00  0.00     0.283 C 
BRANCH   5   6
HETATM    6  N           1     -20.194  -8.267  -3.907  0.00  0.00    -0.066 N 
HETATM    7  H           1     -20.687  -8.580  -4.773  0.00  0.00     0.275 HD
HETATM    8  H           1     -19.224  -7.963  -4.149  0.00  0.00     0.275 HD
HETATM    9  H           1     -20.151  -9.059  -3.225  0.00  0.00     0.275 HD
ENDBRANCH   5   6
BRANCH   5  10
HETATM   10  C           1     -21.936  -6.564  -4.300  0.00  0.00     0.145 C 
BRANCH  10  11
HETATM   11  C           1     -21.217  -6.217  -5.581  0.00  0.00     0.217 C 
HETATM   12  N           1     -20.659  -4.976  -5.737  0.00  0.00    -0.370 N 
HETATM   13  H           1     -20.177  -4.743  -6.596  0.00  0.00     0.159 HD
HETATM   14  H           1     -20.729  -4.293  -4.995  0.00  0.00     0.159 HD
HETATM   15  O           1     -21.134  -7.033  -6.467  0.00  0.00    -0.274 OA
ENDBRANCH  10  11
ENDBRANCH   5  10
ENDBRANCH   2   5
BRANCH   4  16
HETATM   16  C           1     -22.292  -9.366  -0.498  0.00  0.00     0.189 C 
BRANCH  16  17
HETATM   17  C           1     -22.833 -10.767  -0.746  0.00  0.00     0.014 C 
HETATM   18  C           1     -24.181 -10.920  -0.055  0.00  0.00     0.012 C 
BRANCH  17  19
HETATM   19  C           1     -23.000 -10.989  -2.242  0.00  0.00     0.002 C 
HETATM   20  C           1     -22.603 -12.418  -2.592  0.00  0.00     0.005 C 
ENDBRANCH  17  19
ENDBRANCH  16  17
BRANCH  16  21
HETATM   21  C           1     -21.348  -9.390   0.678  0.00  0.00     0.197 C 
HETATM   22  O           1     -20.682 -10.418   0.924  0.00  0.00    -0.646 OA
HETATM   23  O           1     -21.230  -8.381   1.406  0.00  0.00    -0.646 OA
ENDBRANCH  16  21
ENDBRANCH   4  16
TORSDOF 8
ENDMDL
