MODEL 1
REMARK VINA RESULT:      -6.0      0.000      0.000
REMARK  5 active torsions:
REMARK  status: ('A' for Active; 'I' for Inactive)
REMARK    1  A    between atoms: C_3  and  C_4 
REMARK    2  A    between atoms: C_4  and  C_5 
REMARK    3  A    between atoms: C_4  and  N_19 
REMARK    4  A    between atoms: C_5  and  C_7 
REMARK    5  A    between atoms: C_8  and  C_18 
REMARK       I    between atoms: C_18  and  N_19 
ROOT
HETATM    1  H           1     -22.390  -5.792  -7.970  0.00  0.00     0.163 HD
HETATM    2  O           1     -22.893  -2.856  -8.953  0.00  0.00    -0.271 OA
HETATM    3  C           1     -23.090  -4.041  -8.824  0.00  0.00     0.249 C 
HETATM    4  N           1     -22.227  -4.800  -8.079  0.00  0.00    -0.345 N 
ENDROOT
BRANCH   3   5
HETATM    5  C           1     -24.284  -4.685  -9.483  0.00  0.00     0.274 C 
HETATM    6  C           1     -23.825  -5.488 -10.692  0.00  0.00     0.042 C 
HETATM    7  C           1     -23.135  -4.562 -11.686  0.00  0.00     0.003 C 
HETATM    8 Se           1     -24.383  -3.180 -12.261  0.00  0.00     0.000 Se
HETATM    9  C           1     -23.115  -2.300 -13.451  0.00  0.00     0.000 C 
HETATM   10  H           1     -24.770  -2.986 -10.607  0.00  0.00     0.275 HD
HETATM   11  N           1     -25.244  -3.621  -9.925  0.00  0.00    -0.067 N 
HETATM   12  H           1     -26.072  -4.066 -10.382  0.00  0.00     0.275 HD
HETATM   13  H           1     -25.560  -3.070  -9.095  0.00  0.00     0.275 HD
ENDBRANCH   3   5
BRANCH   4  14
HETATM   14  C           1     -21.079  -4.180  -7.444  0.00  0.00     0.185 C 
BRANCH  14  15
HETATM   15  C           1     -19.840  -4.467  -8.258  0.00  0.00     0.196 C 
HETATM   16  O           1     -18.711  -4.374  -7.730  0.00  0.00    -0.646 OA
HETATM   17  O           1     -19.946  -4.797  -9.459  0.00  0.00    -0.646 OA
ENDBRANCH  14  15
BRANCH  14  18
HETATM   18  C           1     -20.909  -4.746  -6.041  0.00  0.00     0.040 C 
BRANCH  18  19
HETATM   19  C           1     -21.330  -6.210  -6.029  0.00  0.00    -0.020 C 
HETATM   20  C           1     -20.121  -7.083  -5.718  0.00  0.00     0.009 C 
HETATM   21  C           1     -22.397  -6.422  -4.964  0.00  0.00     0.009 C 
ENDBRANCH  18  19
ENDBRANCH  14  18
ENDBRANCH   4  14
TORSDOF 5
ENDMDL
MODEL 2
REMARK VINA RESULT:      -5.5     12.130     14.548
REMARK  5 active torsions:
REMARK  status: ('A' for Active; 'I' for Inactive)
REMARK    1  A    between atoms: C_3  and  C_4 
REMARK    2  A    between atoms: C_4  and  C_5 
REMARK    3  A    between atoms: C_4  and  N_19 
REMARK    4  A    between atoms: C_5  and  C_7 
REMARK    5  A    between atoms: C_8  and  C_18 
REMARK       I    between atoms: C_18  and  N_19 
ROOT
HETATM    1  H           1     -35.202  -2.146 -13.242  0.00  0.00     0.163 HD
HETATM    2  O           1     -33.341  -2.671 -10.772  0.00  0.00    -0.271 OA
HETATM    3  C           1     -33.811  -2.835 -11.873  0.00  0.00     0.249 C 
HETATM    4  N           1     -34.808  -2.010 -12.320  0.00  0.00    -0.345 N 
ENDROOT
BRANCH   3   5
HETATM    5  C           1     -33.299  -3.946 -12.755  0.00  0.00     0.274 C 
HETATM    6  C           1     -34.456  -4.851 -13.156  0.00  0.00     0.042 C 
HETATM    7  C           1     -35.092  -5.447 -11.906  0.00  0.00     0.003 C 
HETATM    8 Se           1     -33.763  -6.487 -10.933  0.00  0.00     0.000 Se
HETATM    9  C           1     -34.981  -7.014  -9.506  0.00  0.00     0.000 C 
HETATM   10  H           1     -32.712  -5.155 -11.149  0.00  0.00     0.275 HD
HETATM   11  N           1     -32.275  -4.747 -12.005  0.00  0.00    -0.067 N 
HETATM   12  H           1     -31.920  -5.517 -12.616  0.00  0.00     0.275 HD
HETATM   13  H           1     -31.480  -4.126 -11.731  0.00  0.00     0.275 HD
ENDBRANCH   3   5
BRANCH   4  14
HETATM   14  C           1     -35.300  -0.941 -11.472  0.00  0.00     0.185 C 
BRANCH  14  15
HETATM   15  C           1     -36.579  -1.379 -10.802  0.00  0.00     0.196 C 
HETATM   16  O           1     -37.466  -0.540 -10.539  0.00  0.00    -0.646 OA
HETATM   17  O           1     -36.750  -2.583 -10.511  0.00  0.00    -0.646 OA
ENDBRANCH  14  15
BRANCH  14  18
HETATM   18  C           1     -35.567   0.296 -12.320  0.00  0.00     0.040 C 
BRANCH  18  19
HETATM   19  C           1     -35.699  -0.109 -13.782  0.00  0.00    -0.020 C 
HETATM   20  C           1     -37.163  -0.037 -14.198  0.00  0.00     0.009 C 
HETATM   21  C           1     -34.878   0.836 -14.647  0.00  0.00     0.009 C 
ENDBRANCH  18  19
ENDBRANCH  14  18
ENDBRANCH   4  14
TORSDOF 5
ENDMDL
MODEL 3
REMARK VINA RESULT:      -5.5     12.064     14.693
REMARK  5 active torsions:
REMARK  status: ('A' for Active; 'I' for Inactive)
REMARK    1  A    between atoms: C_3  and  C_4 
REMARK    2  A    between atoms: C_4  and  C_5 
REMARK    3  A    between atoms: C_4  and  N_19 
REMARK    4  A    between atoms: C_5  and  C_7 
REMARK    5  A    between atoms: C_8  and  C_18 
REMARK       I    between atoms: C_18  and  N_19 
ROOT
HETATM    1  H           1     -36.467  -2.475 -11.516  0.00  0.00     0.163 HD
HETATM    2  O           1     -33.638  -1.437 -10.644  0.00  0.00    -0.271 OA
HETATM    3  C           1     -34.523  -2.234 -10.847  0.00  0.00     0.249 C 
HETATM    4  N           1     -35.726  -1.808 -11.345  0.00  0.00    -0.345 N 
ENDROOT
BRANCH   3   5
HETATM    5  C           1     -34.304  -3.697 -10.553  0.00  0.00     0.274 C 
HETATM    6  C           1     -33.015  -4.161 -11.216  0.00  0.00     0.042 C 
HETATM    7  C           1     -33.115  -3.957 -12.722  0.00  0.00     0.003 C 
HETATM    8 Se           1     -34.613  -4.991 -13.420  0.00  0.00     0.000 Se
HETATM    9  C           1     -34.345  -4.437 -15.270  0.00  0.00     0.000 C 
HETATM   10  H           1     -35.525  -4.351 -12.123  0.00  0.00     0.275 HD
HETATM   11  N           1     -35.457  -4.492 -11.090  0.00  0.00    -0.067 N 
HETATM   12  H           1     -35.307  -5.506 -10.886  0.00  0.00     0.275 HD
HETATM   13  H           1     -36.342  -4.174 -10.634  0.00  0.00     0.275 HD
ENDBRANCH   3   5
BRANCH   4  14
HETATM   14  C           1     -35.936  -0.401 -11.629  0.00  0.00     0.185 C 
BRANCH  14  15
HETATM   15  C           1     -36.903   0.174 -10.624  0.00  0.00     0.196 C 
HETATM   16  O           1     -38.075   0.442 -10.967  0.00  0.00    -0.646 OA
HETATM   17  O           1     -36.531   0.383  -9.449  0.00  0.00    -0.646 OA
ENDBRANCH  14  15
BRANCH  14  18
HETATM   18  C           1     -36.508  -0.248 -13.032  0.00  0.00     0.040 C 
BRANCH  18  19
HETATM   19  C           1     -35.368  -0.163 -14.039  0.00  0.00    -0.020 C 
HETATM   20  C           1     -35.928  -0.290 -15.450  0.00  0.00     0.009 C 
HETATM   21  C           1     -34.661   1.177 -13.893  0.00  0.00     0.009 C 
ENDBRANCH  18  19
ENDBRANCH  14  18
ENDBRANCH   4  14
TORSDOF 5
ENDMDL
MODEL 4
REMARK VINA RESULT:      -5.4     12.076     13.919
REMARK  5 active torsions:
REMARK  status: ('A' for Active; 'I' for Inactive)
REMARK    1  A    between atoms: C_3  and  C_4 
REMARK    2  A    between atoms: C_4  and  C_5 
REMARK    3  A    between atoms: C_4  and  N_19 
REMARK    4  A    between atoms: C_5  and  C_7 
REMARK    5  A    between atoms: C_8  and  C_18 
REMARK       I    between atoms: C_18  and  N_19 
ROOT
HETATM    1  H           1     -35.583  -1.901 -13.797  0.00  0.00     0.163 HD
HETATM    2  O           1     -33.896  -1.277 -11.227  0.00  0.00    -0.271 OA
HETATM    3  C           1     -34.659  -1.072 -12.141  0.00  0.00     0.249 C 
HETATM    4  N           1     -34.944  -2.072 -13.032  0.00  0.00    -0.345 N 
ENDROOT
BRANCH   3   5
HETATM    5  C           1     -35.298   0.285 -12.301  0.00  0.00     0.274 C 
HETATM    6  C           1     -36.758   0.116 -12.699  0.00  0.00     0.042 C 
HETATM    7  C           1     -36.840  -0.642 -14.018  0.00  0.00     0.003 C 
HETATM    8 Se           1     -35.902   0.358 -15.403  0.00  0.00     0.000 Se
HETATM    9  C           1     -36.267  -0.936 -16.814  0.00  0.00     0.000 C 
HETATM   10  H           1     -34.632   0.534 -14.271  0.00  0.00     0.275 HD
HETATM   11  N           1     -34.575   1.055 -13.367  0.00  0.00    -0.067 N 
HETATM   12  H           1     -35.017   1.996 -13.478  0.00  0.00     0.275 HD
HETATM   13  H           1     -33.573   1.172 -13.092  0.00  0.00     0.275 HD
ENDBRANCH   3   5
BRANCH   4  14
HETATM   14  C           1     -34.330  -3.377 -12.877  0.00  0.00     0.185 C 
BRANCH  14  15
HETATM   15  C           1     -34.516  -4.173 -14.146  0.00  0.00     0.196 C 
HETATM   16  O           1     -35.036  -5.308 -14.100  0.00  0.00    -0.646 OA
HETATM   17  O           1     -34.150  -3.695 -15.241  0.00  0.00    -0.646 OA
ENDBRANCH  14  15
BRANCH  14  18
HETATM   18  C           1     -34.986  -4.111 -11.715  0.00  0.00     0.040 C 
BRANCH  18  19
HETATM   19  C           1     -33.911  -4.750 -10.845  0.00  0.00    -0.020 C 
HETATM   20  C           1     -34.298  -6.191 -10.540  0.00  0.00     0.009 C 
HETATM   21  C           1     -32.581  -4.727 -11.584  0.00  0.00     0.009 C 
ENDBRANCH  18  19
ENDBRANCH  14  18
ENDBRANCH   4  14
TORSDOF 5
ENDMDL
MODEL 5
REMARK VINA RESULT:      -5.3      7.250      8.615
REMARK  5 active torsions:
REMARK  status: ('A' for Active; 'I' for Inactive)
REMARK    1  A    between atoms: C_3  and  C_4 
REMARK    2  A    between atoms: C_4  and  C_5 
REMARK    3  A    between atoms: C_4  and  N_19 
REMARK    4  A    between atoms: C_5  and  C_7 
REMARK    5  A    between atoms: C_8  and  C_18 
REMARK       I    between atoms: C_18  and  N_19 
ROOT
HETATM    1  H           1     -20.303  -8.008  -3.784  0.00  0.00     0.163 HD
HETATM    2  O           1     -22.310 -10.375  -3.328  0.00  0.00    -0.271 OA
HETATM    3  C           1     -21.424  -9.746  -3.857  0.00  0.00     0.249 C 
HETATM    4  N           1     -21.045  -8.535  -3.343  0.00  0.00    -0.345 N 
ENDROOT
BRANCH   3   5
HETATM    5  C           1     -20.735 -10.295  -5.081  0.00  0.00     0.274 C 
HETATM    6  C           1     -19.930 -11.530  -4.702  0.00  0.00     0.042 C 
HETATM    7  C           1     -18.885 -11.154  -3.658  0.00  0.00     0.003 C 
HETATM    8 Se           1     -17.690  -9.801  -4.392  0.00  0.00     0.000 Se
HETATM    9  C           1     -16.598  -9.658  -2.784  0.00  0.00     0.000 C 
HETATM   10  H           1     -19.100  -8.996  -4.930  0.00  0.00     0.275 HD
HETATM   11  N           1     -19.816  -9.252  -5.646  0.00  0.00    -0.067 N 
HETATM   12  H           1     -19.339  -9.631  -6.496  0.00  0.00     0.275 HD
HETATM   13  H           1     -20.369  -8.405  -5.908  0.00  0.00     0.275 HD
ENDBRANCH   3   5
BRANCH   4  14
HETATM   14  C           1     -21.706  -8.008  -2.164  0.00  0.00     0.185 C 
BRANCH  14  15
HETATM   15  C           1     -22.037  -6.552  -2.383  0.00  0.00     0.196 C 
HETATM   16  O           1     -21.984  -6.065  -3.533  0.00  0.00    -0.646 OA
HETATM   17  O           1     -22.362  -5.834  -1.413  0.00  0.00    -0.646 OA
ENDBRANCH  14  15
BRANCH  14  18
HETATM   18  C           1     -20.783  -8.146  -0.961  0.00  0.00     0.040 C 
BRANCH  18  19
HETATM   19  C           1     -21.390  -9.122   0.037  0.00  0.00    -0.020 C 
HETATM   20  C           1     -21.008  -8.704   1.451  0.00  0.00     0.009 C 
HETATM   21  C           1     -22.906  -9.115  -0.103  0.00  0.00     0.009 C 
ENDBRANCH  18  19
ENDBRANCH  14  18
ENDBRANCH   4  14
TORSDOF 5
ENDMDL
MODEL 6
REMARK VINA RESULT:      -5.3      5.215      7.918
REMARK  5 active torsions:
REMARK  status: ('A' for Active; 'I' for Inactive)
REMARK    1  A    between atoms: C_3  and  C_4 
REMARK    2  A    between atoms: C_4  and  C_5 
REMARK    3  A    between atoms: C_4  and  N_19 
REMARK    4  A    between atoms: C_5  and  C_7 
REMARK    5  A    between atoms: C_8  and  C_18 
REMARK       I    between atoms: C_18  and  N_19 
ROOT
HETATM    1  H           1     -21.473  -8.565  -6.361  0.00  0.00     0.163 HD
HETATM    2  O           1     -19.335  -8.617  -4.066  0.00  0.00    -0.271 OA
HETATM    3  C           1     -20.089  -9.055  -4.902  0.00  0.00     0.249 C 
HETATM    4  N           1     -20.841  -8.199  -5.661  0.00  0.00    -0.345 N 
ENDROOT
BRANCH   3   5
HETATM    5  C           1     -20.204 -10.545  -5.109  0.00  0.00     0.274 C 
HETATM    6  C           1     -21.645 -10.980  -4.885  0.00  0.00     0.042 C 
HETATM    7  C           1     -22.067 -10.632  -3.463  0.00  0.00     0.003 C 
HETATM    8 Se           1     -20.907 -11.554  -2.197  0.00  0.00     0.000 Se
HETATM    9  C           1     -21.790 -10.835  -0.615  0.00  0.00     0.000 C 
HETATM   10  H           1     -19.600 -11.015  -3.159  0.00  0.00     0.275 HD
HETATM   11  N           1     -19.311 -11.255  -4.134  0.00  0.00    -0.067 N 
HETATM   12  H           1     -19.389 -12.287  -4.277  0.00  0.00     0.275 HD
HETATM   13  H           1     -18.321 -10.957  -4.289  0.00  0.00     0.275 HD
ENDBRANCH   3   5
BRANCH   4  14
HETATM   14  C           1     -20.730  -6.766  -5.462  0.00  0.00     0.185 C 
BRANCH  14  15
HETATM   15  C           1     -21.863  -6.292  -4.585  0.00  0.00     0.196 C 
HETATM   16  O           1     -23.025  -6.233  -5.042  0.00  0.00    -0.646 OA
HETATM   17  O           1     -21.638  -5.959  -3.401  0.00  0.00    -0.646 OA
ENDBRANCH  14  15
BRANCH  14  18
HETATM   18  C           1     -20.801  -6.061  -6.810  0.00  0.00     0.040 C 
BRANCH  18  19
HETATM   19  C           1     -20.302  -4.630  -6.662  0.00  0.00    -0.020 C 
HETATM   20  C           1     -18.990  -4.469  -7.418  0.00  0.00     0.009 C 
HETATM   21  C           1     -21.338  -3.670  -7.232  0.00  0.00     0.009 C 
ENDBRANCH  18  19
ENDBRANCH  14  18
ENDBRANCH   4  14
TORSDOF 5
ENDMDL
MODEL 7
REMARK VINA RESULT:      -5.1      7.298      9.719
REMARK  5 active torsions:
REMARK  status: ('A' for Active; 'I' for Inactive)
REMARK    1  A    between atoms: C_3  and  C_4 
REMARK    2  A    between atoms: C_4  and  C_5 
REMARK    3  A    between atoms: C_4  and  N_19 
REMARK    4  A    between atoms: C_5  and  C_7 
REMARK    5  A    between atoms: C_8  and  C_18 
REMARK       I    between atoms: C_18  and  N_19 
ROOT
HETATM    1  H           1     -22.450 -10.745  -2.297  0.00  0.00     0.163 HD
HETATM    2  O           1     -19.525 -10.721  -1.165  0.00  0.00    -0.271 OA
HETATM    3  C           1     -20.404 -10.793  -1.991  0.00  0.00     0.249 C 
HETATM    4  N           1     -21.714 -10.685  -1.607  0.00  0.00    -0.345 N 
ENDROOT
BRANCH   3   5
HETATM    5  C           1     -20.059 -11.002  -3.444  0.00  0.00     0.274 C 
HETATM    6  C           1     -19.098  -9.913  -3.901  0.00  0.00     0.042 C 
HETATM    7  C           1     -19.755  -8.550  -3.727  0.00  0.00     0.003 C 
HETATM    8 Se           1     -21.381  -8.470  -4.798  0.00  0.00     0.000 Se
HETATM    9  C           1     -21.831  -6.647  -4.275  0.00  0.00     0.000 C 
HETATM   10  H           1     -21.761 -10.006  -4.148  0.00  0.00     0.275 HD
HETATM   11  N           1     -21.311 -10.941  -4.268  0.00  0.00    -0.067 N 
HETATM   12  H           1     -21.073 -11.087  -5.276  0.00  0.00     0.275 HD
HETATM   13  H           1     -21.970 -11.690  -3.956  0.00  0.00     0.275 HD
ENDBRANCH   3   5
BRANCH   4  14
HETATM   14  C           1     -22.045 -10.483  -0.209  0.00  0.00     0.185 C 
BRANCH  14  15
HETATM   15  C           1     -22.482 -11.794   0.398  0.00  0.00     0.196 C 
HETATM   16  O           1     -21.636 -12.564   0.898  0.00  0.00    -0.646 OA
HETATM   17  O           1     -23.693 -12.107   0.398  0.00  0.00    -0.646 OA
ENDBRANCH  14  15
BRANCH  14  18
HETATM   18  C           1     -23.175  -9.468  -0.098  0.00  0.00     0.040 C 
BRANCH  18  19
HETATM   19  C           1     -22.634  -8.165   0.476  0.00  0.00    -0.020 C 
HETATM   20  C           1     -21.325  -8.437   1.205  0.00  0.00     0.009 C 
HETATM   21  C           1     -22.390  -7.175  -0.655  0.00  0.00     0.009 C 
ENDBRANCH  18  19
ENDBRANCH  14  18
ENDBRANCH   4  14
TORSDOF 5
ENDMDL
MODEL 8
REMARK VINA RESULT:      -5.1      7.168      8.953
REMARK  5 active torsions:
REMARK  status: ('A' for Active; 'I' for Inactive)
REMARK    1  A    between atoms: C_3  and  C_4 
REMARK    2  A    between atoms: C_4  and  C_5 
REMARK    3  A    between atoms: C_4  and  N_19 
REMARK    4  A    between atoms: C_5  and  C_7 
REMARK    5  A    between atoms: C_8  and  C_18 
REMARK       I    between atoms: C_18  and  N_19 
ROOT
HETATM    1  H           1     -19.171  -7.774  -2.344  0.00  0.00     0.163 HD
HETATM    2  O           1     -20.496 -10.615  -2.459  0.00  0.00    -0.271 OA
HETATM    3  C           1     -19.609  -9.794  -2.447  0.00  0.00     0.249 C 
HETATM    4  N           1     -19.912  -8.462  -2.354  0.00  0.00    -0.345 N 
ENDROOT
BRANCH   3   5
HETATM    5  C           1     -18.170 -10.236  -2.535  0.00  0.00     0.274 C 
HETATM    6  C           1     -17.512  -9.586  -3.744  0.00  0.00     0.042 C 
HETATM    7  C           1     -18.248 -10.004  -5.011  0.00  0.00     0.003 C 
HETATM    8 Se           1     -18.175 -11.943  -5.195  0.00  0.00     0.000 Se
HETATM    9  C           1     -19.191 -11.986  -6.858  0.00  0.00     0.000 C 
HETATM   10  H           1     -18.619 -12.014  -3.546  0.00  0.00     0.275 HD
HETATM   11  N           1     -18.113 -11.728  -2.677  0.00  0.00    -0.067 N 
HETATM   12  H           1     -17.116 -12.035  -2.738  0.00  0.00     0.275 HD
HETATM   13  H           1     -18.564 -12.174  -1.846  0.00  0.00     0.275 HD
ENDBRANCH   3   5
BRANCH   4  14
HETATM   14  C           1     -21.297  -8.037  -2.269  0.00  0.00     0.185 C 
BRANCH  14  15
HETATM   15  C           1     -21.560  -6.974  -3.307  0.00  0.00     0.196 C 
HETATM   16  O           1     -20.983  -7.024  -4.414  0.00  0.00    -0.646 OA
HETATM   17  O           1     -22.357  -6.043  -3.058  0.00  0.00    -0.646 OA
ENDBRANCH  14  15
BRANCH  14  18
HETATM   18  C           1     -21.568  -7.473  -0.881  0.00  0.00     0.040 C 
BRANCH  18  19
HETATM   19  C           1     -22.111  -8.575   0.020  0.00  0.00    -0.020 C 
HETATM   20  C           1     -21.100  -8.874   1.119  0.00  0.00     0.009 C 
HETATM   21  C           1     -23.422  -8.120   0.645  0.00  0.00     0.009 C 
ENDBRANCH  18  19
ENDBRANCH  14  18
ENDBRANCH   4  14
TORSDOF 5
ENDMDL
MODEL 9
REMARK VINA RESULT:      -5.1      5.666      7.980
REMARK  5 active torsions:
REMARK  status: ('A' for Active; 'I' for Inactive)
REMARK    1  A    between atoms: C_3  and  C_4 
REMARK    2  A    between atoms: C_4  and  C_5 
REMARK    3  A    between atoms: C_4  and  N_19 
REMARK    4  A    between atoms: C_5  and  C_7 
REMARK    5  A    between atoms: C_8  and  C_18 
REMARK       I    between atoms: C_18  and  N_19 
ROOT
HETATM    1  H           1     -19.735  -8.635  -5.936  0.00  0.00     0.163 HD
HETATM    2  O           1     -21.696 -10.605  -4.482  0.00  0.00    -0.271 OA
HETATM    3  C           1     -20.763 -10.259  -5.168  0.00  0.00     0.249 C 
HETATM    4  N           1     -20.516  -8.926  -5.363  0.00  0.00    -0.345 N 
ENDROOT
BRANCH   3   5
HETATM    5  C           1     -19.872 -11.293  -5.810  0.00  0.00     0.274 C 
HETATM    6  C           1     -19.309 -12.214  -4.737  0.00  0.00     0.042 C 
HETATM    7  C           1     -18.498 -11.397  -3.739  0.00  0.00     0.003 C 
HETATM    8 Se           1     -17.033 -10.506  -4.665  0.00  0.00     0.000 Se
HETATM    9  C           1     -16.332  -9.641  -3.065  0.00  0.00     0.000 C 
HETATM   10  H           1     -18.190 -10.047  -5.837  0.00  0.00     0.275 HD
HETATM   11  N           1     -18.744 -10.607  -6.523  0.00  0.00    -0.067 N 
HETATM   12  H           1     -18.127 -11.323  -6.968  0.00  0.00     0.275 HD
HETATM   13  H           1     -19.132  -9.976  -7.260  0.00  0.00     0.275 HD
ENDBRANCH   3   5
BRANCH   4  14
HETATM   14  C           1     -21.372  -7.932  -4.745  0.00  0.00     0.185 C 
BRANCH  14  15
HETATM   15  C           1     -21.621  -6.808  -5.720  0.00  0.00     0.196 C 
HETATM   16  O           1     -22.451  -5.915  -5.446  0.00  0.00    -0.646 OA
HETATM   17  O           1     -20.996  -6.772  -6.803  0.00  0.00    -0.646 OA
ENDBRANCH  14  15
BRANCH  14  18
HETATM   18  C           1     -20.692  -7.382  -3.498  0.00  0.00     0.040 C 
BRANCH  18  19
HETATM   19  C           1     -21.611  -7.560  -2.297  0.00  0.00    -0.020 C 
HETATM   20  C           1     -20.815  -8.123  -1.127  0.00  0.00     0.009 C 
HETATM   21  C           1     -22.202  -6.212  -1.906  0.00  0.00     0.009 C 
ENDBRANCH  18  19
ENDBRANCH  14  18
ENDBRANCH   4  14
TORSDOF 5
ENDMDL
