MODEL 1
REMARK VINA RESULT:      -5.8      0.000      0.000
REMARK  10 active torsions:
REMARK  status: ('A' for Active; 'I' for Inactive)
REMARK    1  A    between atoms: C_1  and  C_2 
REMARK    2  A    between atoms: C_1  and  C_23 
REMARK    3  A    between atoms: C_1  and  N_20 
REMARK    4  A    between atoms: C_2  and  S_3 
REMARK    5  A    between atoms: N_11  and  C_18 
REMARK    6  A    between atoms: O_14  and  P_15 
REMARK    7  A    between atoms: P_15  and  O_16 
REMARK    8  A    between atoms: O_16  and  C_17 
REMARK    9  A    between atoms: C_17  and  C_18 
REMARK   10  A    between atoms: C_18  and  C_19 
REMARK       I    between atoms: C_19  and  N_20 
ROOT
HETATM    1  C           1     -33.734  -2.009 -11.390  0.00  0.00     0.298 C 
ENDROOT
BRANCH   1   2
HETATM    2  N           1     -34.542  -1.747 -10.153  0.00  0.00    -0.064 N 
HETATM    3  H           1     -35.162  -2.567  -9.963  0.00  0.00     0.275 HD
HETATM    4  H           1     -35.125  -0.892 -10.291  0.00  0.00     0.275 HD
HETATM    5  H           1     -33.899  -1.603  -9.341  0.00  0.00     0.275 HD
ENDBRANCH   1   2
BRANCH   1   6
HETATM    6  C           1     -33.161  -3.418 -11.334  0.00  0.00     0.224 C 
BRANCH   6   7
HETATM    7  O           1     -33.970  -4.220 -10.516  0.00  0.00    -0.287 OA
BRANCH   7   8
HETATM    8  P           1     -34.164  -5.750 -10.994  0.00  0.00     0.406 P 
HETATM    9  O           1     -34.980  -5.780 -12.229  0.00  0.00    -0.624 OA
HETATM   10  O           1     -34.850  -6.515  -9.929  0.00  0.00    -0.624 OA
BRANCH   8  11
HETATM   11  O           1     -32.720  -6.412 -11.287  0.00  0.00    -0.300 OA
HETATM   12  H           1     -32.399  -6.679 -10.444  0.00  0.00     0.223 HD
ENDBRANCH   8  11
ENDBRANCH   7   8
ENDBRANCH   6   7
ENDBRANCH   1   6
BRANCH   1  13
HETATM   13  C           1     -34.620  -1.872 -12.605  0.00  0.00     0.251 C 
HETATM   14  O           1     -34.664  -2.761 -13.422  0.00  0.00    -0.271 OA
HETATM   15  N           1     -35.373  -0.743 -12.780  0.00  0.00    -0.344 N 
HETATM   16  H           1     -35.336   0.001 -12.095  0.00  0.00     0.163 HD
BRANCH  15  17
HETATM   17  C           1     -36.223  -0.613 -13.948  0.00  0.00     0.194 C 
BRANCH  17  18
HETATM   18  C           1     -37.582  -0.068 -13.526  0.00  0.00     0.106 C 
BRANCH  18  19
HETATM   19  S           1     -37.740  -0.168 -11.720  0.00  0.00    -0.180 SA
HETATM   20  H           1     -36.421  -0.109 -11.460  0.00  0.00     0.101 HD
ENDBRANCH  18  19
ENDBRANCH  17  18
BRANCH  17  21
HETATM   21  C           1     -35.584   0.336 -14.932  0.00  0.00     0.197 C 
HETATM   22  O           1     -34.400   0.702 -14.767  0.00  0.00    -0.646 OA
HETATM   23  O           1     -36.238   0.755 -15.910  0.00  0.00    -0.646 OA
ENDBRANCH  17  21
ENDBRANCH  15  17
ENDBRANCH   1  13
TORSDOF 10
ENDMDL
MODEL 2
REMARK VINA RESULT:      -5.8      3.141      5.557
REMARK  10 active torsions:
REMARK  status: ('A' for Active; 'I' for Inactive)
REMARK    1  A    between atoms: C_1  and  C_2 
REMARK    2  A    between atoms: C_1  and  C_23 
REMARK    3  A    between atoms: C_1  and  N_20 
REMARK    4  A    between atoms: C_2  and  S_3 
REMARK    5  A    between atoms: N_11  and  C_18 
REMARK    6  A    between atoms: O_14  and  P_15 
REMARK    7  A    between atoms: P_15  and  O_16 
REMARK    8  A    between atoms: O_16  and  C_17 
REMARK    9  A    between atoms: C_17  and  C_18 
REMARK   10  A    between atoms: C_18  and  C_19 
REMARK       I    between atoms: C_19  and  N_20 
ROOT
HETATM    1  C           1     -36.337  -0.569 -11.360  0.00  0.00     0.298 C 
ENDROOT
BRANCH   1   2
HETATM    2  N           1     -36.294   0.449 -10.259  0.00  0.00    -0.064 N 
HETATM    3  H           1     -36.105   1.393 -10.666  0.00  0.00     0.275 HD
HETATM    4  H           1     -35.536   0.201  -9.584  0.00  0.00     0.275 HD
HETATM    5  H           1     -37.213   0.463  -9.761  0.00  0.00     0.275 HD
ENDBRANCH   1   2
BRANCH   1   6
HETATM    6  C           1     -35.964   0.094 -12.680  0.00  0.00     0.224 C 
BRANCH   6   7
HETATM    7  O           1     -36.425  -0.692 -13.745  0.00  0.00    -0.287 OA
BRANCH   7   8
HETATM    8  P           1     -35.636  -0.522 -15.144  0.00  0.00     0.406 P 
HETATM    9  O           1     -34.470   0.369 -14.946  0.00  0.00    -0.624 OA
HETATM   10  O           1     -36.544   0.068 -16.153  0.00  0.00    -0.624 OA
BRANCH   8  11
HETATM   11  O           1     -35.129  -1.967 -15.656  0.00  0.00    -0.300 OA
HETATM   12  H           1     -35.192  -2.528 -14.904  0.00  0.00     0.223 HD
ENDBRANCH   8  11
ENDBRANCH   7   8
ENDBRANCH   6   7
ENDBRANCH   1   6
BRANCH   1  13
HETATM   13  C           1     -35.358  -1.677 -11.058  0.00  0.00     0.251 C 
HETATM   14  O           1     -34.491  -1.507 -10.234  0.00  0.00    -0.271 OA
HETATM   15  N           1     -35.452  -2.873 -11.716  0.00  0.00    -0.344 N 
HETATM   16  H           1     -36.179  -3.016 -12.406  0.00  0.00     0.163 HD
BRANCH  15  17
HETATM   17  C           1     -34.511  -3.937 -11.425  0.00  0.00     0.194 C 
BRANCH  17  18
HETATM   18  C           1     -35.239  -5.275 -11.439  0.00  0.00     0.106 C 
BRANCH  18  19
HETATM   19  S           1     -34.337  -6.466 -10.408  0.00  0.00    -0.180 SA
HETATM   20  H           1     -34.294  -7.446 -11.328  0.00  0.00     0.101 HD
ENDBRANCH  18  19
ENDBRANCH  17  18
BRANCH  17  21
HETATM   21  C           1     -33.422  -3.945 -12.469  0.00  0.00     0.197 C 
HETATM   22  O           1     -33.706  -3.741 -13.670  0.00  0.00    -0.646 OA
HETATM   23  O           1     -32.237  -4.155 -12.135  0.00  0.00    -0.646 OA
ENDBRANCH  17  21
ENDBRANCH  15  17
ENDBRANCH   1  13
TORSDOF 10
ENDMDL
MODEL 3
REMARK VINA RESULT:      -5.7      2.917      3.830
REMARK  10 active torsions:
REMARK  status: ('A' for Active; 'I' for Inactive)
REMARK    1  A    between atoms: C_1  and  C_2 
REMARK    2  A    between atoms: C_1  and  C_23 
REMARK    3  A    between atoms: C_1  and  N_20 
REMARK    4  A    between atoms: C_2  and  S_3 
REMARK    5  A    between atoms: N_11  and  C_18 
REMARK    6  A    between atoms: O_14  and  P_15 
REMARK    7  A    between atoms: P_15  and  O_16 
REMARK    8  A    between atoms: O_16  and  C_17 
REMARK    9  A    between atoms: C_17  and  C_18 
REMARK   10  A    between atoms: C_18  and  C_19 
REMARK       I    between atoms: C_19  and  N_20 
ROOT
HETATM    1  C           1     -33.599  -3.627 -11.677  0.00  0.00     0.298 C 
ENDROOT
BRANCH   1   2
HETATM    2  N           1     -33.992  -4.407 -10.458  0.00  0.00    -0.064 N 
HETATM    3  H           1     -34.963  -4.776 -10.579  0.00  0.00     0.275 HD
HETATM    4  H           1     -33.956  -3.785  -9.619  0.00  0.00     0.275 HD
HETATM    5  H           1     -33.331  -5.206 -10.327  0.00  0.00     0.275 HD
ENDBRANCH   1   2
BRANCH   1   6
HETATM    6  C           1     -34.180  -4.295 -12.917  0.00  0.00     0.224 C 
BRANCH   6   7
HETATM    7  O           1     -33.353  -4.035 -14.019  0.00  0.00    -0.287 OA
BRANCH   7   8
HETATM    8  P           1     -34.087  -3.981 -15.456  0.00  0.00     0.406 P 
HETATM    9  O           1     -33.067  -3.973 -16.529  0.00  0.00    -0.624 OA
HETATM   10  O           1     -34.907  -2.752 -15.545  0.00  0.00    -0.624 OA
BRANCH   8  11
HETATM   11  O           1     -35.037  -5.276 -15.627  0.00  0.00    -0.300 OA
HETATM   12  H           1     -35.833  -4.946 -16.006  0.00  0.00     0.223 HD
ENDBRANCH   8  11
ENDBRANCH   7   8
ENDBRANCH   6   7
ENDBRANCH   1   6
BRANCH   1  13
HETATM   13  C           1     -34.133  -2.220 -11.566  0.00  0.00     0.251 C 
HETATM   14  O           1     -33.664  -1.459 -10.752  0.00  0.00    -0.271 OA
HETATM   15  N           1     -35.148  -1.805 -12.386  0.00  0.00    -0.344 N 
HETATM   16  H           1     -35.540  -2.441 -13.068  0.00  0.00     0.163 HD
BRANCH  15  17
HETATM   17  C           1     -35.660  -0.452 -12.278  0.00  0.00     0.194 C 
BRANCH  17  18
HETATM   18  C           1     -36.303  -0.048 -13.598  0.00  0.00     0.106 C 
BRANCH  18  19
HETATM   19  S           1     -35.082   0.814 -14.628  0.00  0.00    -0.180 SA
HETATM   20  H           1     -34.305   1.226 -13.610  0.00  0.00     0.101 HD
ENDBRANCH  18  19
ENDBRANCH  17  18
BRANCH  17  21
HETATM   21  C           1     -36.689  -0.392 -11.176  0.00  0.00     0.197 C 
HETATM   22  O           1     -36.503   0.349 -10.187  0.00  0.00    -0.646 OA
HETATM   23  O           1     -37.727  -1.083 -11.253  0.00  0.00    -0.646 OA
ENDBRANCH  17  21
ENDBRANCH  15  17
ENDBRANCH   1  13
TORSDOF 10
ENDMDL
MODEL 4
REMARK VINA RESULT:      -5.7     11.999     14.213
REMARK  10 active torsions:
REMARK  status: ('A' for Active; 'I' for Inactive)
REMARK    1  A    between atoms: C_1  and  C_2 
REMARK    2  A    between atoms: C_1  and  C_23 
REMARK    3  A    between atoms: C_1  and  N_20 
REMARK    4  A    between atoms: C_2  and  S_3 
REMARK    5  A    between atoms: N_11  and  C_18 
REMARK    6  A    between atoms: O_14  and  P_15 
REMARK    7  A    between atoms: P_15  and  O_16 
REMARK    8  A    between atoms: O_16  and  C_17 
REMARK    9  A    between atoms: C_17  and  C_18 
REMARK   10  A    between atoms: C_18  and  C_19 
REMARK       I    between atoms: C_19  and  N_20 
ROOT
HETATM    1  C           1     -23.909  -4.281  -9.962  0.00  0.00     0.298 C 
ENDROOT
BRANCH   1   2
HETATM    2  N           1     -25.289  -3.734  -9.744  0.00  0.00    -0.064 N 
HETATM    3  H           1     -25.342  -2.761 -10.124  0.00  0.00     0.275 HD
HETATM    4  H           1     -25.502  -3.721  -8.721  0.00  0.00     0.275 HD
HETATM    5  H           1     -25.986  -4.338 -10.237  0.00  0.00     0.275 HD
ENDBRANCH   1   2
BRANCH   1   6
HETATM    6  C           1     -23.134  -3.348 -10.883  0.00  0.00     0.224 C 
BRANCH   6   7
HETATM    7  O           1     -24.018  -2.740 -11.786  0.00  0.00    -0.287 OA
BRANCH   7   8
HETATM    8  P           1     -23.715  -2.992 -13.352  0.00  0.00     0.406 P 
HETATM    9  O           1     -24.094  -1.789 -14.126  0.00  0.00    -0.624 OA
HETATM   10  O           1     -24.500  -4.154 -13.825  0.00  0.00    -0.624 OA
BRANCH   8  11
HETATM   11  O           1     -22.140  -3.289 -13.556  0.00  0.00    -0.300 OA
HETATM   12  H           1     -21.700  -2.597 -13.095  0.00  0.00     0.223 HD
ENDBRANCH   8  11
ENDBRANCH   7   8
ENDBRANCH   6   7
ENDBRANCH   1   6
BRANCH   1  13
HETATM   13  C           1     -23.197  -4.388  -8.636  0.00  0.00     0.251 C 
HETATM   14  O           1     -23.792  -4.154  -7.611  0.00  0.00    -0.271 OA
HETATM   15  N           1     -21.877  -4.751  -8.595  0.00  0.00    -0.344 N 
HETATM   16  H           1     -21.380  -4.948  -9.454  0.00  0.00     0.163 HD
BRANCH  15  17
HETATM   17  C           1     -21.194  -4.854  -7.320  0.00  0.00     0.194 C 
BRANCH  17  18
HETATM   18  C           1     -21.179  -6.309  -6.870  0.00  0.00     0.106 C 
BRANCH  18  19
HETATM   19  S           1     -21.845  -6.429  -5.186  0.00  0.00    -0.180 SA
HETATM   20  H           1     -22.075  -5.112  -5.032  0.00  0.00     0.101 HD
ENDBRANCH  18  19
ENDBRANCH  17  18
BRANCH  17  21
HETATM   21  C           1     -19.777  -4.358  -7.469  0.00  0.00     0.197 C 
HETATM   22  O           1     -19.473  -3.612  -8.425  0.00  0.00    -0.646 OA
HETATM   23  O           1     -18.907  -4.693  -6.637  0.00  0.00    -0.646 OA
ENDBRANCH  17  21
ENDBRANCH  15  17
ENDBRANCH   1  13
TORSDOF 10
ENDMDL
MODEL 5
REMARK VINA RESULT:      -5.7      4.999      6.077
REMARK  10 active torsions:
REMARK  status: ('A' for Active; 'I' for Inactive)
REMARK    1  A    between atoms: C_1  and  C_2 
REMARK    2  A    between atoms: C_1  and  C_23 
REMARK    3  A    between atoms: C_1  and  N_20 
REMARK    4  A    between atoms: C_2  and  S_3 
REMARK    5  A    between atoms: N_11  and  C_18 
REMARK    6  A    between atoms: O_14  and  P_15 
REMARK    7  A    between atoms: P_15  and  O_16 
REMARK    8  A    between atoms: O_16  and  C_17 
REMARK    9  A    between atoms: C_17  and  C_18 
REMARK   10  A    between atoms: C_18  and  C_19 
REMARK       I    between atoms: C_19  and  N_20 
ROOT
HETATM    1  C           1     -33.176  -4.462 -16.735  0.00  0.00     0.298 C 
ENDROOT
BRANCH   1   2
HETATM    2  N           1     -33.270  -3.076 -17.301  0.00  0.00    -0.064 N 
HETATM    3  H           1     -33.919  -2.504 -16.715  0.00  0.00     0.275 HD
HETATM    4  H           1     -33.632  -3.123 -18.280  0.00  0.00     0.275 HD
HETATM    5  H           1     -32.322  -2.635 -17.302  0.00  0.00     0.275 HD
ENDBRANCH   1   2
BRANCH   1   6
HETATM    6  C           1     -31.714  -4.814 -16.494  0.00  0.00     0.224 C 
BRANCH   6   7
HETATM    7  O           1     -31.443  -6.079 -17.035  0.00  0.00    -0.287 OA
BRANCH   7   8
HETATM    8  P           1     -29.884  -6.431 -17.263  0.00  0.00     0.406 P 
HETATM    9  O           1     -29.111  -6.051 -16.059  0.00  0.00    -0.624 OA
HETATM   10  O           1     -29.376  -5.683 -18.434  0.00  0.00    -0.624 OA
BRANCH   8  11
HETATM   11  O           1     -29.721  -8.017 -17.527  0.00  0.00    -0.300 OA
HETATM   12  H           1     -28.808  -8.195 -17.388  0.00  0.00     0.223 HD
ENDBRANCH   8  11
ENDBRANCH   7   8
ENDBRANCH   6   7
ENDBRANCH   1   6
BRANCH   1  13
HETATM   13  C           1     -33.932  -4.523 -15.431  0.00  0.00     0.251 C 
HETATM   14  O           1     -35.035  -5.015 -15.394  0.00  0.00    -0.271 OA
HETATM   15  N           1     -33.368  -4.021 -14.288  0.00  0.00    -0.344 N 
HETATM   16  H           1     -32.444  -3.610 -14.319  0.00  0.00     0.163 HD
BRANCH  15  17
HETATM   17  C           1     -34.095  -4.080 -13.035  0.00  0.00     0.194 C 
BRANCH  17  18
HETATM   18  C           1     -33.189  -4.648 -11.950  0.00  0.00     0.106 C 
BRANCH  18  19
HETATM   19  S           1     -34.166  -5.687 -10.827  0.00  0.00    -0.180 SA
HETATM   20  H           1     -35.079  -4.746 -10.524  0.00  0.00     0.101 HD
ENDBRANCH  18  19
ENDBRANCH  17  18
BRANCH  17  21
HETATM   21  C           1     -34.538  -2.691 -12.645  0.00  0.00     0.197 C 
HETATM   22  O           1     -33.944  -2.080 -11.731  0.00  0.00    -0.646 OA
HETATM   23  O           1     -35.498  -2.153 -13.237  0.00  0.00    -0.646 OA
ENDBRANCH  17  21
ENDBRANCH  15  17
ENDBRANCH   1  13
TORSDOF 10
ENDMDL
MODEL 6
REMARK VINA RESULT:      -5.4     10.897     11.925
REMARK  10 active torsions:
REMARK  status: ('A' for Active; 'I' for Inactive)
REMARK    1  A    between atoms: C_1  and  C_2 
REMARK    2  A    between atoms: C_1  and  C_23 
REMARK    3  A    between atoms: C_1  and  N_20 
REMARK    4  A    between atoms: C_2  and  S_3 
REMARK    5  A    between atoms: N_11  and  C_18 
REMARK    6  A    between atoms: O_14  and  P_15 
REMARK    7  A    between atoms: P_15  and  O_16 
REMARK    8  A    between atoms: O_16  and  C_17 
REMARK    9  A    between atoms: C_17  and  C_18 
REMARK   10  A    between atoms: C_18  and  C_19 
REMARK       I    between atoms: C_19  and  N_20 
ROOT
HETATM    1  C           1     -28.978  -6.713 -17.372  0.00  0.00     0.298 C 
ENDROOT
BRANCH   1   2
HETATM    2  N           1     -29.361  -8.163 -17.399  0.00  0.00    -0.064 N 
HETATM    3  H           1     -28.844  -8.673 -16.647  0.00  0.00     0.275 HD
HETATM    4  H           1     -29.116  -8.571 -18.329  0.00  0.00     0.275 HD
HETATM    5  H           1     -30.389  -8.256 -17.238  0.00  0.00     0.275 HD
ENDBRANCH   1   2
BRANCH   1   6
HETATM    6  C           1     -28.018  -6.463 -16.216  0.00  0.00     0.224 C 
BRANCH   6   7
HETATM    7  O           1     -26.837  -5.887 -16.705  0.00  0.00    -0.287 OA
BRANCH   7   8
HETATM    8  P           1     -25.463  -6.430 -16.055  0.00  0.00     0.406 P 
HETATM    9  O           1     -24.546  -6.864 -17.132  0.00  0.00    -0.624 OA
HETATM   10  O           1     -25.757  -7.574 -15.164  0.00  0.00    -0.624 OA
BRANCH   8  11
HETATM   11  O           1     -24.767  -5.249 -15.200  0.00  0.00    -0.300 OA
HETATM   12  H           1     -23.843  -5.422 -15.252  0.00  0.00     0.223 HD
ENDBRANCH   8  11
ENDBRANCH   7   8
ENDBRANCH   6   7
ENDBRANCH   1   6
BRANCH   1  13
HETATM   13  C           1     -28.307  -6.347 -18.673  0.00  0.00     0.251 C 
HETATM   14  O           1     -28.539  -5.281 -19.193  0.00  0.00    -0.271 OA
HETATM   15  N           1     -27.435  -7.222 -19.264  0.00  0.00    -0.344 N 
HETATM   16  H           1     -27.240  -8.114 -18.828  0.00  0.00     0.163 HD
BRANCH  15  17
HETATM   17  C           1     -26.791  -6.869 -20.514  0.00  0.00     0.194 C 
BRANCH  17  18
HETATM   18  C           1     -25.414  -6.286 -20.227  0.00  0.00     0.106 C 
BRANCH  18  19
HETATM   19  S           1     -24.237  -7.633 -19.920  0.00  0.00    -0.180 SA
HETATM   20  H           1     -23.998  -7.909 -21.215  0.00  0.00     0.101 HD
ENDBRANCH  18  19
ENDBRANCH  17  18
BRANCH  17  21
HETATM   21  C           1     -26.646  -8.104 -21.370  0.00  0.00     0.197 C 
HETATM   22  O           1     -27.565  -8.950 -21.406  0.00  0.00    -0.646 OA
HETATM   23  O           1     -25.608  -8.279 -22.043  0.00  0.00    -0.646 OA
ENDBRANCH  17  21
ENDBRANCH  15  17
ENDBRANCH   1  13
TORSDOF 10
ENDMDL
MODEL 7
REMARK VINA RESULT:      -5.4     10.287     11.391
REMARK  10 active torsions:
REMARK  status: ('A' for Active; 'I' for Inactive)
REMARK    1  A    between atoms: C_1  and  C_2 
REMARK    2  A    between atoms: C_1  and  C_23 
REMARK    3  A    between atoms: C_1  and  N_20 
REMARK    4  A    between atoms: C_2  and  S_3 
REMARK    5  A    between atoms: N_11  and  C_18 
REMARK    6  A    between atoms: O_14  and  P_15 
REMARK    7  A    between atoms: P_15  and  O_16 
REMARK    8  A    between atoms: O_16  and  C_17 
REMARK    9  A    between atoms: C_17  and  C_18 
REMARK   10  A    between atoms: C_18  and  C_19 
REMARK       I    between atoms: C_19  and  N_20 
ROOT
HETATM    1  C           1     -25.696  -6.301 -16.805  0.00  0.00     0.298 C 
ENDROOT
BRANCH   1   2
HETATM    2  N           1     -25.114  -6.734 -15.492  0.00  0.00    -0.064 N 
HETATM    3  H           1     -24.100  -6.479 -15.460  0.00  0.00     0.275 HD
HETATM    4  H           1     -25.216  -7.769 -15.389  0.00  0.00     0.275 HD
HETATM    5  H           1     -25.618  -6.255 -14.712  0.00  0.00     0.275 HD
ENDBRANCH   1   2
BRANCH   1   6
HETATM    6  C           1     -25.179  -7.209 -17.913  0.00  0.00     0.224 C 
BRANCH   6   7
HETATM    7  O           1     -24.831  -6.434 -19.029  0.00  0.00    -0.287 OA
BRANCH   7   8
HETATM    8  P           1     -25.140  -7.090 -20.471  0.00  0.00     0.406 P 
HETATM    9  O           1     -24.112  -8.109 -20.779  0.00  0.00    -0.624 OA
HETATM   10  O           1     -25.115  -6.034 -21.508  0.00  0.00    -0.624 OA
BRANCH   8  11
HETATM   11  O           1     -26.597  -7.785 -20.447  0.00  0.00    -0.300 OA
HETATM   12  H           1     -27.053  -7.372 -19.734  0.00  0.00     0.223 HD
ENDBRANCH   8  11
ENDBRANCH   7   8
ENDBRANCH   6   7
ENDBRANCH   1   6
BRANCH   1  13
HETATM   13  C           1     -27.201  -6.390 -16.740  0.00  0.00     0.251 C 
HETATM   14  O           1     -27.781  -6.080 -15.727  0.00  0.00    -0.271 OA
HETATM   15  N           1     -27.909  -6.822 -17.829  0.00  0.00    -0.344 N 
HETATM   16  H           1     -27.424  -7.081 -18.679  0.00  0.00     0.163 HD
BRANCH  15  17
HETATM   17  C           1     -29.355  -6.907 -17.766  0.00  0.00     0.194 C 
BRANCH  17  18
HETATM   18  C           1     -29.958  -5.553 -18.118  0.00  0.00     0.106 C 
BRANCH  18  19
HETATM   19  S           1     -31.237  -5.126 -16.903  0.00  0.00    -0.180 SA
HETATM   20  H           1     -31.502  -3.905 -17.401  0.00  0.00     0.101 HD
ENDBRANCH  18  19
ENDBRANCH  17  18
BRANCH  17  21
HETATM   21  C           1     -29.841  -7.945 -18.748  0.00  0.00     0.197 C 
HETATM   22  O           1     -29.019  -8.578 -19.445  0.00  0.00    -0.646 OA
HETATM   23  O           1     -31.064  -8.171 -18.864  0.00  0.00    -0.646 OA
ENDBRANCH  17  21
ENDBRANCH  15  17
ENDBRANCH   1  13
TORSDOF 10
ENDMDL
MODEL 8
REMARK VINA RESULT:      -5.3      2.237      2.841
REMARK  10 active torsions:
REMARK  status: ('A' for Active; 'I' for Inactive)
REMARK    1  A    between atoms: C_1  and  C_2 
REMARK    2  A    between atoms: C_1  and  C_23 
REMARK    3  A    between atoms: C_1  and  N_20 
REMARK    4  A    between atoms: C_2  and  S_3 
REMARK    5  A    between atoms: N_11  and  C_18 
REMARK    6  A    between atoms: O_14  and  P_15 
REMARK    7  A    between atoms: P_15  and  O_16 
REMARK    8  A    between atoms: O_16  and  C_17 
REMARK    9  A    between atoms: C_17  and  C_18 
REMARK   10  A    between atoms: C_18  and  C_19 
REMARK       I    between atoms: C_19  and  N_20 
ROOT
HETATM    1  C           1     -35.554  -1.103 -11.133  0.00  0.00     0.298 C 
ENDROOT
BRANCH   1   2
HETATM    2  N           1     -36.338  -0.514  -9.997  0.00  0.00    -0.064 N 
HETATM    3  H           1     -36.587   0.476 -10.224  0.00  0.00     0.275 HD
HETATM    4  H           1     -35.761  -0.538  -9.126  0.00  0.00     0.275 HD
HETATM    5  H           1     -37.211  -1.068  -9.852  0.00  0.00     0.275 HD
ENDBRANCH   1   2
BRANCH   1   6
HETATM    6  C           1     -35.620  -2.623 -11.060  0.00  0.00     0.224 C 
BRANCH   6   7
HETATM    7  O           1     -35.351  -3.164 -12.326  0.00  0.00    -0.287 OA
BRANCH   7   8
HETATM    8  P           1     -33.997  -4.034 -12.451  0.00  0.00     0.406 P 
HETATM    9  O           1     -34.241  -5.401 -11.939  0.00  0.00    -0.624 OA
HETATM   10  O           1     -32.925  -3.393 -11.657  0.00  0.00    -0.624 OA
BRANCH   8  11
HETATM   11  O           1     -33.546  -4.112 -14.000  0.00  0.00    -0.300 OA
HETATM   12  H           1     -33.273  -5.003 -14.129  0.00  0.00     0.223 HD
ENDBRANCH   8  11
ENDBRANCH   7   8
ENDBRANCH   6   7
ENDBRANCH   1   6
BRANCH   1  13
HETATM   13  C           1     -36.139  -0.634 -12.442  0.00  0.00     0.251 C 
HETATM   14  O           1     -37.333  -0.485 -12.551  0.00  0.00    -0.271 OA
HETATM   15  N           1     -35.317  -0.379 -13.507  0.00  0.00    -0.344 N 
HETATM   16  H           1     -34.317  -0.503 -13.416  0.00  0.00     0.163 HD
BRANCH  15  17
HETATM   17  C           1     -35.881   0.072 -14.765  0.00  0.00     0.194 C 
BRANCH  17  18
HETATM   18  C           1     -35.184   1.355 -15.201  0.00  0.00     0.106 C 
BRANCH  18  19
HETATM   19  S           1     -36.348   2.388 -16.135  0.00  0.00    -0.180 SA
HETATM   20  H           1     -35.552   2.565 -17.205  0.00  0.00     0.101 HD
ENDBRANCH  18  19
ENDBRANCH  17  18
BRANCH  17  21
HETATM   21  C           1     -35.679  -0.993 -15.816  0.00  0.00     0.197 C 
HETATM   22  O           1     -36.173  -0.848 -16.955  0.00  0.00    -0.646 OA
HETATM   23  O           1     -35.017  -2.018 -15.546  0.00  0.00    -0.646 OA
ENDBRANCH  17  21
ENDBRANCH  15  17
ENDBRANCH   1  13
TORSDOF 10
ENDMDL
MODEL 9
REMARK VINA RESULT:      -5.3     12.992     15.561
REMARK  10 active torsions:
REMARK  status: ('A' for Active; 'I' for Inactive)
REMARK    1  A    between atoms: C_1  and  C_2 
REMARK    2  A    between atoms: C_1  and  C_23 
REMARK    3  A    between atoms: C_1  and  N_20 
REMARK    4  A    between atoms: C_2  and  S_3 
REMARK    5  A    between atoms: N_11  and  C_18 
REMARK    6  A    between atoms: O_14  and  P_15 
REMARK    7  A    between atoms: P_15  and  O_16 
REMARK    8  A    between atoms: O_16  and  C_17 
REMARK    9  A    between atoms: C_17  and  C_18 
REMARK   10  A    between atoms: C_18  and  C_19 
REMARK       I    between atoms: C_19  and  N_20 
ROOT
HETATM    1  C           1     -21.126  -4.013  -7.914  0.00  0.00     0.298 C 
ENDROOT
BRANCH   1   2
HETATM    2  N           1     -20.199  -4.348  -9.044  0.00  0.00    -0.064 N 
HETATM    3  H           1     -19.886  -3.467  -9.511  0.00  0.00     0.275 HD
HETATM    4  H           1     -20.697  -4.952  -9.736  0.00  0.00     0.275 HD
HETATM    5  H           1     -19.366  -4.859  -8.672  0.00  0.00     0.275 HD
ENDBRANCH   1   2
BRANCH   1   6
HETATM    6  C           1     -22.547  -4.414  -8.287  0.00  0.00     0.224 C 
BRANCH   6   7
HETATM    7  O           1     -23.192  -3.332  -8.904  0.00  0.00    -0.287 OA
BRANCH   7   8
HETATM    8  P           1     -24.174  -3.700 -10.132  0.00  0.00     0.406 P 
HETATM    9  O           1     -24.094  -5.152 -10.408  0.00  0.00    -0.624 OA
HETATM   10  O           1     -23.762  -2.944 -11.336  0.00  0.00    -0.624 OA
BRANCH   8  11
HETATM   11  O           1     -25.692  -3.309  -9.745  0.00  0.00    -0.300 OA
HETATM   12  H           1     -25.663  -2.391  -9.538  0.00  0.00     0.223 HD
ENDBRANCH   8  11
ENDBRANCH   7   8
ENDBRANCH   6   7
ENDBRANCH   1   6
BRANCH   1  13
HETATM   13  C           1     -20.700  -4.762  -6.675  0.00  0.00     0.251 C 
HETATM   14  O           1     -19.619  -4.544  -6.181  0.00  0.00    -0.271 OA
HETATM   15  N           1     -21.537  -5.687  -6.112  0.00  0.00    -0.344 N 
HETATM   16  H           1     -22.442  -5.869  -6.526  0.00  0.00     0.163 HD
BRANCH  15  17
HETATM   17  C           1     -21.126  -6.406  -4.922  0.00  0.00     0.194 C 
BRANCH  17  18
HETATM   18  C           1     -22.319  -6.565  -3.989  0.00  0.00     0.106 C 
BRANCH  18  19
HETATM   19  S           1     -21.767  -6.408  -2.267  0.00  0.00    -0.180 SA
HETATM   20  H           1     -20.782  -5.525  -2.515  0.00  0.00     0.101 HD
ENDBRANCH  18  19
ENDBRANCH  17  18
BRANCH  17  21
HETATM   21  C           1     -20.607  -7.769  -5.312  0.00  0.00     0.197 C 
HETATM   22  O           1     -19.480  -8.143  -4.923  0.00  0.00    -0.646 OA
HETATM   23  O           1     -21.305  -8.522  -6.024  0.00  0.00    -0.646 OA
ENDBRANCH  17  21
ENDBRANCH  15  17
ENDBRANCH   1  13
TORSDOF 10
ENDMDL
