MODEL 1
REMARK VINA RESULT:      -8.1      0.000      0.000
REMARK  8 active torsions:
REMARK  status: ('A' for Active; 'I' for Inactive)
REMARK    1  A    between atoms: C_2  and  C_26 
REMARK    2  A    between atoms: C_2  and  C_3 
REMARK    3  A    between atoms: C_2  and  N_14 
REMARK    4  A    between atoms: C_3  and  C_24 
REMARK       I    between atoms: N_14  and  C_22 
REMARK    5  A    between atoms: C_21  and  C_22 
REMARK    6  A    between atoms: C_21  and  C_27 
REMARK    7  A    between atoms: C_21  and  N_23 
REMARK    8  A    between atoms: C_27  and  C_28 
ROOT
HETATM    1  N           1     -21.541  -4.188  -6.521  0.00  0.00    -0.344 N 
HETATM    2  O           1     -23.667  -4.846  -6.334  0.00  0.00    -0.271 OA
HETATM    3  C           1     -22.756  -4.519  -7.057  0.00  0.00     0.249 C 
HETATM    4  H           1     -21.346  -3.229  -6.265  0.00  0.00     0.163 HD
ENDROOT
BRANCH   1   5
HETATM    5  C           1     -20.534  -5.212  -6.320  0.00  0.00     0.190 C 
BRANCH   5   6
HETATM    6  C           1     -19.528  -5.153  -7.444  0.00  0.00     0.197 C 
HETATM    7  O           1     -19.679  -5.869  -8.457  0.00  0.00    -0.646 OA
HETATM    8  O           1     -18.543  -4.386  -7.361  0.00  0.00    -0.646 OA
ENDBRANCH   5   6
BRANCH   5   9
HETATM    9  C           1     -21.199  -6.582  -6.305  0.00  0.00     0.077 C 
BRANCH   9  10
HETATM   10  C           1     -20.723  -7.355  -5.115  0.00  0.00    -0.028 A 
HETATM   11  C           1     -19.781  -8.359  -5.123  0.00  0.00     0.096 A 
HETATM   12  N           1     -19.632  -8.803  -3.835  0.00  0.00    -0.365 N 
HETATM   13  C           1     -20.464  -8.103  -2.990  0.00  0.00     0.042 A 
HETATM   14  H           1     -18.979  -9.568  -3.536  0.00  0.00     0.165 HD
HETATM   15  C           1     -20.648  -8.212  -1.607  0.00  0.00     0.030 A 
HETATM   16  C           1     -21.162  -7.183  -3.773  0.00  0.00    -0.002 A 
HETATM   17  C           1     -21.575  -7.353  -1.008  0.00  0.00     0.002 A 
HETATM   18  C           1     -22.288  -6.424  -1.765  0.00  0.00     0.001 A 
HETATM   19  C           1     -22.091  -6.328  -3.148  0.00  0.00     0.014 A 
ENDBRANCH   9  10
ENDBRANCH   5   9
ENDBRANCH   1   5
BRANCH   3  20
HETATM   20  C           1     -22.958  -4.477  -8.553  0.00  0.00     0.280 C 
BRANCH  20  21
HETATM   21  C           1     -22.100  -3.369  -9.150  0.00  0.00     0.101 C 
BRANCH  21  22
HETATM   22  C           1     -22.164  -3.437 -10.644  0.00  0.00     0.028 A 
HETATM   23  N           1     -23.126  -2.831 -11.410  0.00  0.00    -0.355 N 
HETATM   24  C           1     -22.821  -3.134 -12.651  0.00  0.00     0.180 A 
ATOM     25  HN          1     -23.910  -2.266 -11.086  1.00  0.00     0.166 HD
HETATM   26  N           1     -21.701  -3.914 -12.715  0.00  0.00    -0.360 N 
HETATM   27  H           1     -21.254  -4.289 -13.589  0.00  0.00     0.166 HD
HETATM   28  C           1     -21.269  -4.116 -11.434  0.00  0.00     0.114 A 
ENDBRANCH  21  22
ENDBRANCH  20  21
BRANCH  20  29
HETATM   29  N           1     -24.402  -4.208  -8.853  0.00  0.00    -0.066 N 
HETATM   30  H           1     -24.712  -4.815  -9.646  0.00  0.00     0.275 HD
HETATM   31  H           1     -24.979  -4.420  -8.008  0.00  0.00     0.275 HD
HETATM   32  H           1     -24.522  -3.204  -9.116  0.00  0.00     0.275 HD
ENDBRANCH  20  29
ENDBRANCH   3  20
TORSDOF 8
ENDMDL
MODEL 2
REMARK VINA RESULT:      -8.0      2.168      3.104
REMARK  8 active torsions:
REMARK  status: ('A' for Active; 'I' for Inactive)
REMARK    1  A    between atoms: C_2  and  C_26 
REMARK    2  A    between atoms: C_2  and  C_3 
REMARK    3  A    between atoms: C_2  and  N_14 
REMARK    4  A    between atoms: C_3  and  C_24 
REMARK       I    between atoms: N_14  and  C_22 
REMARK    5  A    between atoms: C_21  and  C_22 
REMARK    6  A    between atoms: C_21  and  C_27 
REMARK    7  A    between atoms: C_21  and  N_23 
REMARK    8  A    between atoms: C_27  and  C_28 
ROOT
HETATM    1  N           1     -19.793  -7.073  -6.374  0.00  0.00    -0.344 N 
HETATM    2  O           1     -19.530  -4.882  -6.028  0.00  0.00    -0.271 OA
HETATM    3  C           1     -20.259  -5.786  -6.362  0.00  0.00     0.249 C 
HETATM    4  H           1     -19.365  -7.448  -7.211  0.00  0.00     0.163 HD
ENDROOT
BRANCH   1   5
HETATM    5  C           1     -19.912  -7.898  -5.188  0.00  0.00     0.190 C 
BRANCH   5   6
HETATM    6  C           1     -18.801  -8.920  -5.174  0.00  0.00     0.197 C 
HETATM    7  O           1     -18.176  -9.150  -4.117  0.00  0.00    -0.646 OA
HETATM    8  O           1     -18.507  -9.538  -6.221  0.00  0.00    -0.646 OA
ENDBRANCH   5   6
BRANCH   5   9
HETATM    9  C           1     -21.257  -8.612  -5.200  0.00  0.00     0.077 C 
BRANCH   9  10
HETATM   10  C           1     -21.536  -9.174  -3.840  0.00  0.00    -0.028 A 
HETATM   11  C           1     -21.577 -10.509  -3.508  0.00  0.00     0.096 A 
HETATM   12  N           1     -21.861 -10.599  -2.170  0.00  0.00    -0.365 N 
HETATM   13  C           1     -22.006  -9.341  -1.629  0.00  0.00     0.042 A 
HETATM   14  H           1     -21.956 -11.497  -1.636  0.00  0.00     0.165 HD
HETATM   15  C           1     -22.295  -8.949  -0.317  0.00  0.00     0.030 A 
HETATM   16  C           1     -21.805  -8.425  -2.662  0.00  0.00    -0.002 A 
HETATM   17  C           1     -22.381  -7.578  -0.056  0.00  0.00     0.002 A 
HETATM   18  C           1     -22.186  -6.640  -1.068  0.00  0.00     0.001 A 
HETATM   19  C           1     -21.897  -7.049  -2.375  0.00  0.00     0.014 A 
ENDBRANCH   9  10
ENDBRANCH   5   9
ENDBRANCH   1   5
BRANCH   3  20
HETATM   20  C           1     -21.685  -5.496  -6.765  0.00  0.00     0.280 C 
BRANCH  20  21
HETATM   21  C           1     -21.767  -4.105  -7.377  0.00  0.00     0.101 C 
BRANCH  21  22
HETATM   22  C           1     -22.716  -4.123  -8.535  0.00  0.00     0.028 A 
HETATM   23  N           1     -24.036  -3.760  -8.465  0.00  0.00    -0.355 N 
HETATM   24  C           1     -24.504  -3.918  -9.681  0.00  0.00     0.180 A 
ATOM     25  HN          1     -24.547  -3.438  -7.642  1.00  0.00     0.166 HD
HETATM   26  N           1     -23.537  -4.369 -10.534  0.00  0.00    -0.360 N 
HETATM   27  H           1     -23.657  -4.574 -11.557  0.00  0.00     0.166 HD
HETATM   28  C           1     -22.384  -4.505  -9.812  0.00  0.00     0.114 A 
ENDBRANCH  21  22
ENDBRANCH  20  21
BRANCH  20  29
HETATM   29  N           1     -22.568  -5.563  -5.555  0.00  0.00    -0.066 N 
HETATM   30  H           1     -22.451  -6.491  -5.088  0.00  0.00     0.275 HD
HETATM   31  H           1     -22.304  -4.803  -4.888  0.00  0.00     0.275 HD
HETATM   32  H           1     -23.565  -5.443  -5.844  0.00  0.00     0.275 HD
ENDBRANCH  20  29
ENDBRANCH   3  20
TORSDOF 8
ENDMDL
MODEL 3
REMARK VINA RESULT:      -7.9      2.269      3.696
REMARK  8 active torsions:
REMARK  status: ('A' for Active; 'I' for Inactive)
REMARK    1  A    between atoms: C_2  and  C_26 
REMARK    2  A    between atoms: C_2  and  C_3 
REMARK    3  A    between atoms: C_2  and  N_14 
REMARK    4  A    between atoms: C_3  and  C_24 
REMARK       I    between atoms: N_14  and  C_22 
REMARK    5  A    between atoms: C_21  and  C_22 
REMARK    6  A    between atoms: C_21  and  C_27 
REMARK    7  A    between atoms: C_21  and  N_23 
REMARK    8  A    between atoms: C_27  and  C_28 
ROOT
HETATM    1  N           1     -20.893  -7.471  -6.049  0.00  0.00    -0.344 N 
HETATM    2  O           1     -19.366  -6.463  -7.329  0.00  0.00    -0.271 OA
HETATM    3  C           1     -20.315  -6.354  -6.589  0.00  0.00     0.249 C 
HETATM    4  H           1     -21.648  -7.936  -6.536  0.00  0.00     0.163 HD
ENDROOT
BRANCH   1   5
HETATM    5  C           1     -20.424  -7.986  -4.777  0.00  0.00     0.190 C 
BRANCH   5   6
HETATM    6  C           1     -19.339  -9.007  -5.020  0.00  0.00     0.197 C 
HETATM    7  O           1     -19.384  -9.740  -6.031  0.00  0.00    -0.646 OA
HETATM    8  O           1     -18.393  -9.118  -4.209  0.00  0.00    -0.646 OA
ENDBRANCH   5   6
BRANCH   5   9
HETATM    9  C           1     -21.582  -8.643  -4.038  0.00  0.00     0.077 C 
BRANCH   9  10
HETATM   10  C           1     -21.758  -7.986  -2.703  0.00  0.00    -0.028 A 
HETATM   11  C           1     -22.198  -6.701  -2.483  0.00  0.00     0.096 A 
HETATM   12  N           1     -22.217  -6.491  -1.129  0.00  0.00    -0.365 N 
HETATM   13  C           1     -21.796  -7.622  -0.466  0.00  0.00     0.042 A 
HETATM   14  H           1     -22.510  -5.597  -0.664  0.00  0.00     0.165 HD
HETATM   15  C           1     -21.656  -7.868   0.905  0.00  0.00     0.030 A 
HETATM   16  C           1     -21.501  -8.580  -1.436  0.00  0.00    -0.002 A 
HETATM   17  C           1     -21.201  -9.132   1.292  0.00  0.00     0.002 A 
HETATM   18  C           1     -20.898 -10.108   0.345  0.00  0.00     0.001 A 
HETATM   19  C           1     -21.043  -9.846  -1.022  0.00  0.00     0.014 A 
ENDBRANCH   9  10
ENDBRANCH   5   9
ENDBRANCH   1   5
BRANCH   3  20
HETATM   20  C           1     -20.864  -4.986  -6.263  0.00  0.00     0.280 C 
BRANCH  20  21
HETATM   21  C           1     -20.619  -4.047  -7.436  0.00  0.00     0.101 C 
BRANCH  21  22
HETATM   22  C           1     -21.795  -4.086  -8.362  0.00  0.00     0.028 A 
HETATM   23  N           1     -23.093  -3.867  -7.981  0.00  0.00    -0.355 N 
HETATM   24  C           1     -23.802  -3.991  -9.079  0.00  0.00     0.180 A 
ATOM     25  HN          1     -23.436  -3.654  -7.044  1.00  0.00     0.166 HD
HETATM   26  N           1     -23.011  -4.284 -10.154  0.00  0.00    -0.360 N 
HETATM   27  H           1     -23.335  -4.432 -11.142  0.00  0.00     0.166 HD
HETATM   28  C           1     -21.720  -4.348  -9.709  0.00  0.00     0.114 A 
ENDBRANCH  21  22
ENDBRANCH  20  21
BRANCH  20  29
HETATM   29  N           1     -20.176  -4.452  -5.042  0.00  0.00    -0.066 N 
HETATM   30  H           1     -20.436  -3.448  -4.907  0.00  0.00     0.275 HD
HETATM   31  H           1     -20.474  -5.003  -4.205  0.00  0.00     0.275 HD
HETATM   32  H           1     -19.141  -4.531  -5.163  0.00  0.00     0.275 HD
ENDBRANCH  20  29
ENDBRANCH   3  20
TORSDOF 8
ENDMDL
MODEL 4
REMARK VINA RESULT:      -7.8      1.869      2.713
REMARK  8 active torsions:
REMARK  status: ('A' for Active; 'I' for Inactive)
REMARK    1  A    between atoms: C_2  and  C_26 
REMARK    2  A    between atoms: C_2  and  C_3 
REMARK    3  A    between atoms: C_2  and  N_14 
REMARK    4  A    between atoms: C_3  and  C_24 
REMARK       I    between atoms: N_14  and  C_22 
REMARK    5  A    between atoms: C_21  and  C_22 
REMARK    6  A    between atoms: C_21  and  C_27 
REMARK    7  A    between atoms: C_21  and  N_23 
REMARK    8  A    between atoms: C_27  and  C_28 
ROOT
HETATM    1  N           1     -20.375  -6.818  -6.720  0.00  0.00    -0.344 N 
HETATM    2  O           1     -19.549  -4.766  -6.411  0.00  0.00    -0.271 OA
HETATM    3  C           1     -20.366  -5.470  -6.957  0.00  0.00     0.249 C 
HETATM    4  H           1     -19.827  -7.438  -7.303  0.00  0.00     0.163 HD
ENDROOT
BRANCH   1   5
HETATM    5  C           1     -21.172  -7.358  -5.635  0.00  0.00     0.190 C 
BRANCH   5   6
HETATM    6  C           1     -21.918  -6.236  -4.954  0.00  0.00     0.197 C 
HETATM    7  O           1     -23.092  -5.971  -5.291  0.00  0.00    -0.646 OA
HETATM    8  O           1     -21.361  -5.573  -4.051  0.00  0.00    -0.646 OA
ENDBRANCH   5   6
BRANCH   5   9
HETATM    9  C           1     -20.258  -8.044  -4.628  0.00  0.00     0.077 C 
BRANCH   9  10
HETATM   10  C           1     -21.061  -8.989  -3.789  0.00  0.00    -0.028 A 
HETATM   11  C           1     -21.578 -10.198  -4.197  0.00  0.00     0.096 A 
HETATM   12  N           1     -22.244 -10.748  -3.133  0.00  0.00    -0.365 N 
HETATM   13  C           1     -22.166  -9.915  -2.040  0.00  0.00     0.042 A 
HETATM   14  H           1     -22.741 -11.672  -3.150  0.00  0.00     0.165 HD
HETATM   15  C           1     -22.690 -10.064  -0.751  0.00  0.00     0.030 A 
HETATM   16  C           1     -21.426  -8.798  -2.427  0.00  0.00    -0.002 A 
HETATM   17  C           1     -22.448  -9.039   0.169  0.00  0.00     0.002 A 
HETATM   18  C           1     -21.711  -7.911  -0.190  0.00  0.00     0.001 A 
HETATM   19  C           1     -21.194  -7.778  -1.484  0.00  0.00     0.014 A 
ENDBRANCH   9  10
ENDBRANCH   5   9
ENDBRANCH   1   5
BRANCH   3  20
HETATM   20  C           1     -21.376  -4.862  -7.900  0.00  0.00     0.280 C 
BRANCH  20  21
HETATM   21  C           1     -20.677  -4.430  -9.182  0.00  0.00     0.101 C 
BRANCH  21  22
HETATM   22  C           1     -21.659  -4.434 -10.312  0.00  0.00     0.028 A 
HETATM   23  N           1     -22.967  -4.834 -10.206  0.00  0.00    -0.355 N 
HETATM   24  C           1     -23.473  -4.684 -11.408  0.00  0.00     0.180 A 
ATOM     25  HN          1     -23.444  -5.175  -9.371  1.00  0.00     0.166 HD
HETATM   26  N           1     -22.543  -4.206 -12.287  0.00  0.00    -0.360 N 
HETATM   27  H           1     -22.698  -4.002 -13.305  0.00  0.00     0.166 HD
HETATM   28  C           1     -21.375  -4.040 -11.597  0.00  0.00     0.114 A 
ENDBRANCH  21  22
ENDBRANCH  20  21
BRANCH  20  29
HETATM   29  N           1     -22.009  -3.668  -7.249  0.00  0.00    -0.066 N 
HETATM   30  H           1     -21.744  -2.803  -7.773  0.00  0.00     0.275 HD
HETATM   31  H           1     -23.048  -3.776  -7.262  0.00  0.00     0.275 HD
HETATM   32  H           1     -21.677  -3.593  -6.261  0.00  0.00     0.275 HD
ENDBRANCH  20  29
ENDBRANCH   3  20
TORSDOF 8
ENDMDL
MODEL 5
REMARK VINA RESULT:      -7.7      2.003      8.032
REMARK  8 active torsions:
REMARK  status: ('A' for Active; 'I' for Inactive)
REMARK    1  A    between atoms: C_2  and  C_26 
REMARK    2  A    between atoms: C_2  and  C_3 
REMARK    3  A    between atoms: C_2  and  N_14 
REMARK    4  A    between atoms: C_3  and  C_24 
REMARK       I    between atoms: N_14  and  C_22 
REMARK    5  A    between atoms: C_21  and  C_22 
REMARK    6  A    between atoms: C_21  and  C_27 
REMARK    7  A    between atoms: C_21  and  N_23 
REMARK    8  A    between atoms: C_27  and  C_28 
ROOT
HETATM    1  N           1     -22.316  -5.741  -5.647  0.00  0.00    -0.344 N 
HETATM    2  O           1     -21.193  -5.622  -3.720  0.00  0.00    -0.271 OA
HETATM    3  C           1     -21.731  -6.315  -4.551  0.00  0.00     0.249 C 
HETATM    4  H           1     -23.290  -5.466  -5.614  0.00  0.00     0.163 HD
ENDROOT
BRANCH   1   5
HETATM    5  C           1     -21.543  -5.527  -6.854  0.00  0.00     0.190 C 
BRANCH   5   6
HETATM    6  C           1     -20.071  -5.604  -6.527  0.00  0.00     0.197 C 
HETATM    7  O           1     -19.490  -4.619  -6.023  0.00  0.00    -0.646 OA
HETATM    8  O           1     -19.434  -6.655  -6.759  0.00  0.00    -0.646 OA
ENDBRANCH   5   6
BRANCH   5   9
HETATM    9  C           1     -21.864  -4.152  -7.425  0.00  0.00     0.077 C 
BRANCH   9  10
HETATM   10  C           1     -21.538  -4.130  -8.886  0.00  0.00    -0.028 A 
HETATM   11  C           1     -20.309  -4.394  -9.447  0.00  0.00     0.096 A 
HETATM   12  N           1     -20.433  -4.268 -10.806  0.00  0.00    -0.365 N 
HETATM   13  C           1     -21.725  -3.926 -11.136  0.00  0.00     0.042 A 
HETATM   14  H           1     -19.655  -4.412 -11.496  0.00  0.00     0.165 HD
HETATM   15  C           1     -22.308  -3.695 -12.387  0.00  0.00     0.030 A 
HETATM   16  C           1     -22.442  -3.833  -9.943  0.00  0.00    -0.002 A 
HETATM   17  C           1     -23.665  -3.359 -12.417  0.00  0.00     0.002 A 
HETATM   18  C           1     -24.406  -3.258 -11.241  0.00  0.00     0.001 A 
HETATM   19  C           1     -23.808  -3.492  -9.998  0.00  0.00     0.014 A 
ENDBRANCH   9  10
ENDBRANCH   5   9
ENDBRANCH   1   5
BRANCH   3  20
HETATM   20  C           1     -21.756  -7.815  -4.380  0.00  0.00     0.280 C 
BRANCH  20  21
HETATM   21  C           1     -20.823  -8.212  -3.245  0.00  0.00     0.101 C 
BRANCH  21  22
HETATM   22  C           1     -21.602  -8.321  -1.971  0.00  0.00     0.028 A 
HETATM   23  N           1     -21.979  -7.255  -1.196  0.00  0.00    -0.355 N 
HETATM   24  C           1     -22.636  -7.777  -0.185  0.00  0.00     0.180 A 
ATOM     25  HN          1     -21.790  -6.268  -1.367  1.00  0.00     0.166 HD
HETATM   26  N           1     -22.696  -9.139  -0.278  0.00  0.00    -0.360 N 
HETATM   27  H           1     -23.163  -9.787   0.403  0.00  0.00     0.166 HD
HETATM   28  C           1     -22.037  -9.502  -1.419  0.00  0.00     0.114 A 
ENDBRANCH  21  22
ENDBRANCH  20  21
BRANCH  20  29
HETATM   29  N           1     -21.304  -8.469  -5.652  0.00  0.00    -0.066 N 
HETATM   30  H           1     -21.985  -9.216  -5.921  0.00  0.00     0.275 HD
HETATM   31  H           1     -21.254  -7.754  -6.412  0.00  0.00     0.275 HD
HETATM   32  H           1     -20.360  -8.893  -5.508  0.00  0.00     0.275 HD
ENDBRANCH  20  29
ENDBRANCH   3  20
TORSDOF 8
ENDMDL
MODEL 6
REMARK VINA RESULT:      -7.7      2.369      8.458
REMARK  8 active torsions:
REMARK  status: ('A' for Active; 'I' for Inactive)
REMARK    1  A    between atoms: C_2  and  C_26 
REMARK    2  A    between atoms: C_2  and  C_3 
REMARK    3  A    between atoms: C_2  and  N_14 
REMARK    4  A    between atoms: C_3  and  C_24 
REMARK       I    between atoms: N_14  and  C_22 
REMARK    5  A    between atoms: C_21  and  C_22 
REMARK    6  A    between atoms: C_21  and  C_27 
REMARK    7  A    between atoms: C_21  and  N_23 
REMARK    8  A    between atoms: C_27  and  C_28 
ROOT
HETATM    1  N           1     -22.395  -6.302  -4.485  0.00  0.00    -0.344 N 
HETATM    2  O           1     -20.908  -5.563  -2.992  0.00  0.00    -0.271 OA
HETATM    3  C           1     -21.570  -6.484  -3.409  0.00  0.00     0.249 C 
HETATM    4  H           1     -23.354  -6.011  -4.343  0.00  0.00     0.163 HD
ENDROOT
BRANCH   1   5
HETATM    5  C           1     -21.897  -6.528  -5.828  0.00  0.00     0.190 C 
BRANCH   5   6
HETATM    6  C           1     -20.886  -7.649  -5.805  0.00  0.00     0.197 C 
HETATM    7  O           1     -19.664  -7.389  -5.802  0.00  0.00    -0.646 OA
HETATM    8  O           1     -21.272  -8.839  -5.788  0.00  0.00    -0.646 OA
ENDBRANCH   5   6
BRANCH   5   9
HETATM    9  C           1     -21.235  -5.258  -6.343  0.00  0.00     0.077 C 
BRANCH   9  10
HETATM   10  C           1     -22.066  -4.673  -7.443  0.00  0.00    -0.028 A 
HETATM   11  C           1     -23.394  -4.323  -7.358  0.00  0.00     0.096 A 
HETATM   12  N           1     -23.776  -3.828  -8.577  0.00  0.00    -0.365 N 
HETATM   13  C           1     -22.715  -3.852  -9.454  0.00  0.00     0.042 A 
HETATM   14  H           1     -24.739  -3.481  -8.810  0.00  0.00     0.165 HD
HETATM   15  C           1     -22.638  -3.449 -10.792  0.00  0.00     0.030 A 
HETATM   16  C           1     -21.624  -4.380  -8.763  0.00  0.00    -0.002 A 
HETATM   17  C           1     -21.408  -3.592 -11.441  0.00  0.00     0.002 A 
HETATM   18  C           1     -20.301  -4.117 -10.777  0.00  0.00     0.001 A 
HETATM   19  C           1     -20.395  -4.515  -9.438  0.00  0.00     0.014 A 
ENDBRANCH   9  10
ENDBRANCH   5   9
ENDBRANCH   1   5
BRANCH   3  20
HETATM   20  C           1     -21.485  -7.836  -2.742  0.00  0.00     0.280 C 
BRANCH  20  21
HETATM   21  C           1     -21.891  -7.708  -1.280  0.00  0.00     0.101 C 
BRANCH  21  22
HETATM   22  C           1     -21.910  -9.064  -0.646  0.00  0.00     0.028 A 
HETATM   23  N           1     -22.696 -10.107  -1.061  0.00  0.00    -0.355 N 
HETATM   24  C           1     -22.413 -11.099  -0.249  0.00  0.00     0.180 A 
ATOM     25  HN          1     -23.361 -10.111  -1.835  1.00  0.00     0.166 HD
HETATM   26  N           1     -21.475 -10.736   0.675  0.00  0.00    -0.360 N 
HETATM   27  H           1     -21.081 -11.347   1.433  0.00  0.00     0.166 HD
HETATM   28  C           1     -21.142  -9.433   0.432  0.00  0.00     0.114 A 
ENDBRANCH  21  22
ENDBRANCH  20  21
BRANCH  20  29
HETATM   29  N           1     -20.077  -8.346  -2.827  0.00  0.00    -0.066 N 
HETATM   30  H           1     -19.830  -8.526  -3.827  0.00  0.00     0.275 HD
HETATM   31  H           1     -19.424  -7.632  -2.432  0.00  0.00     0.275 HD
HETATM   32  H           1     -19.994  -9.234  -2.283  0.00  0.00     0.275 HD
ENDBRANCH  20  29
ENDBRANCH   3  20
TORSDOF 8
ENDMDL
MODEL 7
REMARK VINA RESULT:      -7.6      3.175      5.608
REMARK  8 active torsions:
REMARK  status: ('A' for Active; 'I' for Inactive)
REMARK    1  A    between atoms: C_2  and  C_26 
REMARK    2  A    between atoms: C_2  and  C_3 
REMARK    3  A    between atoms: C_2  and  N_14 
REMARK    4  A    between atoms: C_3  and  C_24 
REMARK       I    between atoms: N_14  and  C_22 
REMARK    5  A    between atoms: C_21  and  C_22 
REMARK    6  A    between atoms: C_21  and  C_27 
REMARK    7  A    between atoms: C_21  and  N_23 
REMARK    8  A    between atoms: C_27  and  C_28 
ROOT
HETATM    1  N           1     -20.857  -7.409  -2.230  0.00  0.00    -0.344 N 
HETATM    2  O           1     -22.385  -5.783  -2.341  0.00  0.00    -0.271 OA
HETATM    3  C           1     -21.601  -6.493  -2.925  0.00  0.00     0.249 C 
HETATM    4  H           1     -19.953  -7.148  -1.858  0.00  0.00     0.163 HD
ENDROOT
BRANCH   1   5
HETATM    5  C           1     -21.364  -8.752  -2.029  0.00  0.00     0.190 C 
BRANCH   5   6
HETATM    6  C           1     -22.065  -8.828  -0.694  0.00  0.00     0.197 C 
HETATM    7  O           1     -23.036  -9.600  -0.541  0.00  0.00    -0.646 OA
HETATM    8  O           1     -21.673  -8.120   0.260  0.00  0.00    -0.646 OA
ENDBRANCH   5   6
BRANCH   5   9
HETATM    9  C           1     -20.206  -9.740  -2.051  0.00  0.00     0.077 C 
BRANCH   9  10
HETATM   10  C           1     -19.634  -9.807  -3.433  0.00  0.00    -0.028 A 
HETATM   11  C           1     -20.351  -9.918  -4.603  0.00  0.00     0.096 A 
HETATM   12  N           1     -19.456  -9.948  -5.641  0.00  0.00    -0.365 N 
HETATM   13  C           1     -18.168  -9.858  -5.162  0.00  0.00     0.042 A 
HETATM   14  H           1     -19.716 -10.028  -6.654  0.00  0.00     0.165 HD
HETATM   15  C           1     -16.948  -9.848  -5.846  0.00  0.00     0.030 A 
HETATM   16  C           1     -18.253  -9.768  -3.773  0.00  0.00    -0.002 A 
HETATM   17  C           1     -15.780  -9.744  -5.085  0.00  0.00     0.002 A 
HETATM   18  C           1     -15.833  -9.653  -3.695  0.00  0.00     0.001 A 
HETATM   19  C           1     -17.063  -9.664  -3.026  0.00  0.00     0.014 A 
ENDBRANCH   9  10
ENDBRANCH   5   9
ENDBRANCH   1   5
BRANCH   3  20
HETATM   20  C           1     -21.441  -6.371  -4.421  0.00  0.00     0.280 C 
BRANCH  20  21
HETATM   21  C           1     -20.559  -5.172  -4.742  0.00  0.00     0.101 C 
BRANCH  21  22
HETATM   22  C           1     -20.506  -4.972  -6.224  0.00  0.00     0.028 A 
HETATM   23  N           1     -21.037  -3.893  -6.883  0.00  0.00    -0.355 N 
HETATM   24  C           1     -20.779  -4.101  -8.153  0.00  0.00     0.180 A 
ATOM     25  HN          1     -21.528  -3.098  -6.474  1.00  0.00     0.166 HD
HETATM   26  N           1     -20.103  -5.274  -8.340  0.00  0.00    -0.360 N 
HETATM   27  H           1     -19.783  -5.666  -9.260  0.00  0.00     0.166 HD
HETATM   28  C           1     -19.922  -5.843  -7.111  0.00  0.00     0.114 A 
ENDBRANCH  21  22
ENDBRANCH  20  21
BRANCH  20  29
HETATM   29  N           1     -22.789  -6.182  -5.052  0.00  0.00    -0.066 N 
HETATM   30  H           1     -23.467  -6.862  -4.636  0.00  0.00     0.275 HD
HETATM   31  H           1     -23.123  -5.208  -4.876  0.00  0.00     0.275 HD
HETATM   32  H           1     -22.718  -6.347  -6.081  0.00  0.00     0.275 HD
ENDBRANCH  20  29
ENDBRANCH   3  20
TORSDOF 8
ENDMDL
MODEL 8
REMARK VINA RESULT:      -7.1      2.683      8.221
REMARK  8 active torsions:
REMARK  status: ('A' for Active; 'I' for Inactive)
REMARK    1  A    between atoms: C_2  and  C_26 
REMARK    2  A    between atoms: C_2  and  C_3 
REMARK    3  A    between atoms: C_2  and  N_14 
REMARK    4  A    between atoms: C_3  and  C_24 
REMARK       I    between atoms: N_14  and  C_22 
REMARK    5  A    between atoms: C_21  and  C_22 
REMARK    6  A    between atoms: C_21  and  C_27 
REMARK    7  A    between atoms: C_21  and  N_23 
REMARK    8  A    between atoms: C_27  and  C_28 
ROOT
HETATM    1  N           1     -20.104  -7.578  -4.993  0.00  0.00    -0.344 N 
HETATM    2  O           1     -21.204  -9.214  -6.042  0.00  0.00    -0.271 OA
HETATM    3  C           1     -20.875  -8.709  -4.995  0.00  0.00     0.249 C 
HETATM    4  H           1     -19.095  -7.654  -4.981  0.00  0.00     0.163 HD
ENDROOT
BRANCH   1   5
HETATM    5  C           1     -20.733  -6.272  -5.007  0.00  0.00     0.190 C 
BRANCH   5   6
HETATM    6  C           1     -21.614  -6.126  -3.790  0.00  0.00     0.197 C 
HETATM    7  O           1     -21.100  -5.940  -2.666  0.00  0.00    -0.646 OA
HETATM    8  O           1     -22.857  -6.188  -3.907  0.00  0.00    -0.646 OA
ENDBRANCH   5   6
BRANCH   5   9
HETATM    9  C           1     -21.579  -6.130  -6.266  0.00  0.00     0.077 C 
BRANCH   9  10
HETATM   10  C           1     -20.828  -5.328  -7.283  0.00  0.00    -0.028 A 
HETATM   11  C           1     -19.515  -4.925  -7.191  0.00  0.00     0.096 A 
HETATM   12  N           1     -19.215  -4.216  -8.325  0.00  0.00    -0.365 N 
HETATM   13  C           1     -20.314  -4.152  -9.152  0.00  0.00     0.042 A 
HETATM   14  H           1     -18.281  -3.783  -8.532  0.00  0.00     0.165 HD
HETATM   15  C           1     -20.471  -3.540 -10.401  0.00  0.00     0.030 A 
HETATM   16  C           1     -21.345  -4.846  -8.518  0.00  0.00    -0.002 A 
HETATM   17  C           1     -21.722  -3.642 -11.018  0.00  0.00     0.002 A 
HETATM   18  C           1     -22.771  -4.328 -10.408  0.00  0.00     0.001 A 
HETATM   19  C           1     -22.596  -4.935  -9.159  0.00  0.00     0.014 A 
ENDBRANCH   9  10
ENDBRANCH   5   9
ENDBRANCH   1   5
BRANCH   3  20
HETATM   20  C           1     -21.315  -9.325  -3.689  0.00  0.00     0.280 C 
BRANCH  20  21
HETATM   21  C           1     -20.128  -9.405  -2.739  0.00  0.00     0.101 C 
BRANCH  21  22
HETATM   22  C           1     -20.611  -9.305  -1.326  0.00  0.00     0.028 A 
HETATM   23  N           1     -21.099  -8.161  -0.749  0.00  0.00    -0.355 N 
HETATM   24  C           1     -21.408  -8.498   0.482  0.00  0.00     0.180 A 
ATOM     25  HN          1     -21.200  -7.243  -1.183  1.00  0.00     0.166 HD
HETATM   26  N           1     -21.136  -9.815   0.723  0.00  0.00    -0.360 N 
HETATM   27  H           1     -21.293 -10.326   1.626  0.00  0.00     0.166 HD
HETATM   28  C           1     -20.625 -10.345  -0.429  0.00  0.00     0.114 A 
ENDBRANCH  21  22
ENDBRANCH  20  21
BRANCH  20  29
HETATM   29  N           1     -21.846 -10.705  -3.943  0.00  0.00    -0.066 N 
HETATM   30  H           1     -22.669 -10.649  -4.586  0.00  0.00     0.275 HD
HETATM   31  H           1     -21.100 -11.289  -4.384  0.00  0.00     0.275 HD
HETATM   32  H           1     -22.139 -11.137  -3.038  0.00  0.00     0.275 HD
ENDBRANCH  20  29
ENDBRANCH   3  20
TORSDOF 8
ENDMDL
MODEL 9
REMARK VINA RESULT:      -7.1      1.270      2.072
REMARK  8 active torsions:
REMARK  status: ('A' for Active; 'I' for Inactive)
REMARK    1  A    between atoms: C_2  and  C_26 
REMARK    2  A    between atoms: C_2  and  C_3 
REMARK    3  A    between atoms: C_2  and  N_14 
REMARK    4  A    between atoms: C_3  and  C_24 
REMARK       I    between atoms: N_14  and  C_22 
REMARK    5  A    between atoms: C_21  and  C_22 
REMARK    6  A    between atoms: C_21  and  C_27 
REMARK    7  A    between atoms: C_21  and  N_23 
REMARK    8  A    between atoms: C_27  and  C_28 
ROOT
HETATM    1  N           1     -21.609  -3.877  -6.559  0.00  0.00    -0.344 N 
HETATM    2  O           1     -23.699  -4.447  -7.103  0.00  0.00    -0.271 OA
HETATM    3  C           1     -22.598  -4.113  -7.474  0.00  0.00     0.249 C 
HETATM    4  H           1     -21.484  -2.948  -6.177  0.00  0.00     0.163 HD
ENDROOT
BRANCH   1   5
HETATM    5  C           1     -20.739  -4.958  -6.137  0.00  0.00     0.190 C 
BRANCH   5   6
HETATM    6  C           1     -19.693  -5.202  -7.197  0.00  0.00     0.197 C 
HETATM    7  O           1     -19.650  -6.300  -7.792  0.00  0.00    -0.646 OA
HETATM    8  O           1     -18.869  -4.305  -7.480  0.00  0.00    -0.646 OA
ENDBRANCH   5   6
BRANCH   5   9
HETATM    9  C           1     -21.563  -6.223  -5.936  0.00  0.00     0.077 C 
BRANCH   9  10
HETATM   10  C           1     -21.285  -6.789  -4.577  0.00  0.00    -0.028 A 
HETATM   11  C           1     -21.880  -6.398  -3.399  0.00  0.00     0.096 A 
HETATM   12  N           1     -21.350  -7.160  -2.391  0.00  0.00    -0.365 N 
HETATM   13  C           1     -20.420  -8.040  -2.897  0.00  0.00     0.042 A 
HETATM   14  H           1     -21.615  -7.084  -1.378  0.00  0.00     0.165 HD
HETATM   15  C           1     -19.635  -8.999  -2.248  0.00  0.00     0.030 A 
HETATM   16  C           1     -20.360  -7.826  -4.274  0.00  0.00    -0.002 A 
HETATM   17  C           1     -18.764  -9.762  -3.032  0.00  0.00     0.002 A 
HETATM   18  C           1     -18.683  -9.570  -4.410  0.00  0.00     0.001 A 
HETATM   19  C           1     -19.475  -8.605  -5.044  0.00  0.00     0.014 A 
ENDBRANCH   9  10
ENDBRANCH   5   9
ENDBRANCH   1   5
BRANCH   3  20
HETATM   20  C           1     -22.316  -3.955  -8.949  0.00  0.00     0.280 C 
BRANCH  20  21
HETATM   21  C           1     -23.514  -3.305  -9.629  0.00  0.00     0.101 C 
BRANCH  21  22
HETATM   22  C           1     -23.266  -3.218 -11.103  0.00  0.00     0.028 A 
HETATM   23  N           1     -24.216  -3.436 -12.066  0.00  0.00    -0.355 N 
HETATM   24  C           1     -23.596  -3.262 -13.210  0.00  0.00     0.180 A 
ATOM     25  HN          1     -25.196  -3.681 -11.925  1.00  0.00     0.166 HD
HETATM   26  N           1     -22.281  -2.942 -13.023  0.00  0.00    -0.360 N 
HETATM   27  H           1     -21.574  -2.755 -13.776  0.00  0.00     0.166 HD
HETATM   28  C           1     -22.055  -2.910 -11.675  0.00  0.00     0.114 A 
ENDBRANCH  21  22
ENDBRANCH  20  21
BRANCH  20  29
HETATM   29  N           1     -22.067  -5.303  -9.556  0.00  0.00    -0.066 N 
HETATM   30  H           1     -21.598  -5.187 -10.483  0.00  0.00     0.275 HD
HETATM   31  H           1     -21.451  -5.861  -8.923  0.00  0.00     0.275 HD
HETATM   32  H           1     -22.977  -5.801  -9.686  0.00  0.00     0.275 HD
ENDBRANCH  20  29
ENDBRANCH   3  20
TORSDOF 8
ENDMDL
