MODEL 1
REMARK VINA RESULT:      -7.6      0.000      0.000
REMARK  8 active torsions:
REMARK  status: ('A' for Active; 'I' for Inactive)
REMARK    1  A    between atoms: C_5  and  Se_21 
REMARK    2  A    between atoms: C_5  and  C_6 
REMARK    3  A    between atoms: C_6  and  C_7 
REMARK    4  A    between atoms: C_6  and  N_24 
REMARK    5  A    between atoms: C_13  and  C_26 
REMARK    6  A    between atoms: C_13  and  C_17 
REMARK    7  A    between atoms: C_13  and  N_25 
REMARK    8  A    between atoms: C_17  and  C_19 
REMARK       I    between atoms: N_24  and  C_26 
ROOT
HETATM    1  C           1     -20.991  -5.401  -6.611  0.00  0.00     0.278 C 
ENDROOT
BRANCH   1   2
HETATM    2  C           1     -21.547  -4.393  -7.586  0.00  0.00     0.249 C 
HETATM    3  O           1     -21.521  -3.215  -7.318  0.00  0.00    -0.271 OA
HETATM    4  N           1     -22.080  -4.812  -8.775  0.00  0.00    -0.345 N 
HETATM    5  H           1     -22.103  -5.799  -9.000  0.00  0.00     0.163 HD
BRANCH   4   6
HETATM    6  C           1     -22.614  -3.842  -9.711  0.00  0.00     0.185 C 
BRANCH   6   7
HETATM    7  C           1     -22.118  -4.164 -11.114  0.00  0.00     0.039 C 
BRANCH   7   8
HETATM    8 Se           1     -22.869  -2.885 -12.380  0.00  0.00     0.000 Se
HETATM    9  H           1     -24.220  -2.925 -11.798  0.00  0.00     0.000 HD
ENDBRANCH   7   8
ENDBRANCH   6   7
BRANCH   6  10
HETATM   10  C           1     -24.123  -3.899  -9.688  0.00  0.00     0.196 C 
HETATM   11  O           1     -24.713  -4.968  -9.957  0.00  0.00    -0.646 OA
HETATM   12  O           1     -24.782  -2.877  -9.399  0.00  0.00    -0.646 OA
ENDBRANCH   6  10
ENDBRANCH   4   6
ENDBRANCH   1   2
BRANCH   1  13
HETATM   13  C           1     -22.099  -5.876  -5.682  0.00  0.00     0.083 C 
BRANCH  13  14
HETATM   14  C           1     -21.588  -6.991  -4.822  0.00  0.00    -0.028 A 
HETATM   15  C           1     -20.930  -8.117  -5.260  0.00  0.00     0.096 A 
HETATM   16  N           1     -20.634  -8.883  -4.164  0.00  0.00    -0.365 N 
HETATM   17  C           1     -21.091  -8.271  -3.019  0.00  0.00     0.042 A 
HETATM   18  H           1     -20.132  -9.804  -4.194  0.00  0.00     0.165 HD
HETATM   19  C           1     -21.015  -8.680  -1.683  0.00  0.00     0.030 A 
HETATM   20  C           1     -21.697  -7.076  -3.407  0.00  0.00    -0.002 A 
HETATM   21  C           1     -21.577  -7.840  -0.716  0.00  0.00     0.002 A 
HETATM   22  C           1     -22.188  -6.640  -1.074  0.00  0.00     0.001 A 
HETATM   23  C           1     -22.255  -6.245  -2.415  0.00  0.00     0.014 A 
ENDBRANCH  13  14
ENDBRANCH   1  13
BRANCH   1  24
HETATM   24  N           1     -19.899  -4.765  -5.803  0.00  0.00    -0.066 N 
HETATM   25  H           1     -20.090  -4.908  -4.786  0.00  0.00     0.275 HD
HETATM   26  H           1     -19.864  -3.741  -6.010  0.00  0.00     0.275 HD
HETATM   27  H           1     -18.982  -5.201  -6.050  0.00  0.00     0.275 HD
ENDBRANCH   1  24
TORSDOF 8
ENDMDL
MODEL 2
REMARK VINA RESULT:      -7.3      3.462      7.770
REMARK  8 active torsions:
REMARK  status: ('A' for Active; 'I' for Inactive)
REMARK    1  A    between atoms: C_5  and  Se_21 
REMARK    2  A    between atoms: C_5  and  C_6 
REMARK    3  A    between atoms: C_6  and  C_7 
REMARK    4  A    between atoms: C_6  and  N_24 
REMARK    5  A    between atoms: C_13  and  C_26 
REMARK    6  A    between atoms: C_13  and  C_17 
REMARK    7  A    between atoms: C_13  and  N_25 
REMARK    8  A    between atoms: C_17  and  C_19 
REMARK       I    between atoms: N_24  and  C_26 
ROOT
HETATM    1  C           1     -21.189  -4.999  -6.061  0.00  0.00     0.278 C 
ENDROOT
BRANCH   1   2
HETATM    2  C           1     -21.761  -6.045  -5.136  0.00  0.00     0.249 C 
HETATM    3  O           1     -22.959  -6.160  -5.021  0.00  0.00    -0.271 OA
HETATM    4  N           1     -20.925  -6.864  -4.428  0.00  0.00    -0.345 N 
HETATM    5  H           1     -19.921  -6.769  -4.524  0.00  0.00     0.163 HD
BRANCH   4   6
HETATM    6  C           1     -21.475  -7.869  -3.540  0.00  0.00     0.185 C 
BRANCH   6   7
HETATM    7  C           1     -20.727  -9.182  -3.730  0.00  0.00     0.039 C 
BRANCH   7   8
HETATM    8 Se           1     -19.234  -8.909  -4.953  0.00  0.00     0.000 Se
HETATM    9  H           1     -19.184  -7.452  -4.752  0.00  0.00     0.000 HD
ENDBRANCH   7   8
ENDBRANCH   6   7
BRANCH   6  10
HETATM   10  C           1     -21.327  -7.411  -2.109  0.00  0.00     0.196 C 
HETATM   11  O           1     -22.119  -6.566  -1.638  0.00  0.00    -0.646 OA
HETATM   12  O           1     -20.412  -7.876  -1.396  0.00  0.00    -0.646 OA
ENDBRANCH   6  10
ENDBRANCH   4   6
ENDBRANCH   1   2
BRANCH   1  13
HETATM   13  C           1     -21.223  -5.514  -7.493  0.00  0.00     0.083 C 
BRANCH  13  14
HETATM   14  C           1     -22.216  -4.721  -8.286  0.00  0.00    -0.028 A 
HETATM   15  C           1     -23.454  -4.306  -7.853  0.00  0.00     0.096 A 
HETATM   16  N           1     -24.046  -3.612  -8.875  0.00  0.00    -0.365 N 
HETATM   17  C           1     -23.210  -3.571  -9.968  0.00  0.00     0.042 A 
HETATM   18  H           1     -25.000  -3.176  -8.832  0.00  0.00     0.165 HD
HETATM   19  C           1     -23.391  -2.979 -11.223  0.00  0.00     0.030 A 
HETATM   20  C           1     -22.049  -4.263  -9.622  0.00  0.00    -0.002 A 
HETATM   21  C           1     -22.351  -3.101 -12.152  0.00  0.00     0.002 A 
HETATM   22  C           1     -21.181  -3.786 -11.834  0.00  0.00     0.001 A 
HETATM   23  C           1     -21.016  -4.372 -10.573  0.00  0.00     0.014 A 
ENDBRANCH  13  14
ENDBRANCH   1  13
BRANCH   1  24
HETATM   24  N           1     -19.772  -4.706  -5.669  0.00  0.00    -0.066 N 
HETATM   25  H           1     -19.713  -4.599  -4.631  0.00  0.00     0.275 HD
HETATM   26  H           1     -19.457  -3.822  -6.129  0.00  0.00     0.275 HD
HETATM   27  H           1     -19.155  -5.494  -5.972  0.00  0.00     0.275 HD
ENDBRANCH   1  24
TORSDOF 8
ENDMDL
MODEL 3
REMARK VINA RESULT:      -7.1      4.269      7.818
REMARK  8 active torsions:
REMARK  status: ('A' for Active; 'I' for Inactive)
REMARK    1  A    between atoms: C_5  and  Se_21 
REMARK    2  A    between atoms: C_5  and  C_6 
REMARK    3  A    between atoms: C_6  and  C_7 
REMARK    4  A    between atoms: C_6  and  N_24 
REMARK    5  A    between atoms: C_13  and  C_26 
REMARK    6  A    between atoms: C_13  and  C_17 
REMARK    7  A    between atoms: C_13  and  N_25 
REMARK    8  A    between atoms: C_17  and  C_19 
REMARK       I    between atoms: N_24  and  C_26 
ROOT
HETATM    1  C           1     -21.361  -6.243  -5.675  0.00  0.00     0.278 C 
ENDROOT
BRANCH   1   2
HETATM    2  C           1     -20.233  -7.245  -5.684  0.00  0.00     0.249 C 
HETATM    3  O           1     -19.438  -7.252  -6.595  0.00  0.00    -0.271 OA
HETATM    4  N           1     -20.108  -8.146  -4.661  0.00  0.00    -0.345 N 
HETATM    5  H           1     -20.773  -8.141  -3.898  0.00  0.00     0.163 HD
BRANCH   4   6
HETATM    6  C           1     -19.023  -9.108  -4.671  0.00  0.00     0.185 C 
BRANCH   6   7
HETATM    7  C           1     -18.514  -9.315  -3.251  0.00  0.00     0.039 C 
BRANCH   7   8
HETATM    8 Se           1     -16.617  -9.761  -3.298  0.00  0.00     0.000 Se
HETATM    9  H           1     -16.224  -8.524  -3.992  0.00  0.00     0.000 HD
ENDBRANCH   7   8
ENDBRANCH   6   7
BRANCH   6  10
HETATM   10  C           1     -19.522 -10.423  -5.220  0.00  0.00     0.196 C 
HETATM   11  O           1     -20.197 -11.187  -4.497  0.00  0.00    -0.646 OA
HETATM   12  O           1     -19.261 -10.747  -6.398  0.00  0.00    -0.646 OA
ENDBRANCH   6  10
ENDBRANCH   4   6
ENDBRANCH   1   2
BRANCH   1  13
HETATM   13  C           1     -20.900  -4.953  -6.338  0.00  0.00     0.083 C 
BRANCH  13  14
HETATM   14  C           1     -21.887  -4.553  -7.391  0.00  0.00    -0.028 A 
HETATM   15  C           1     -23.244  -4.404  -7.218  0.00  0.00     0.096 A 
HETATM   16  N           1     -23.782  -4.030  -8.420  0.00  0.00    -0.365 N 
HETATM   17  C           1     -22.794  -3.934  -9.374  0.00  0.00     0.042 A 
HETATM   18  H           1     -24.801  -3.845  -8.590  0.00  0.00     0.165 HD
HETATM   19  C           1     -22.875  -3.588 -10.728  0.00  0.00     0.030 A 
HETATM   20  C           1     -21.589  -4.259  -8.751  0.00  0.00    -0.002 A 
HETATM   21  C           1     -21.686  -3.574 -11.464  0.00  0.00     0.002 A 
HETATM   22  C           1     -20.468  -3.893 -10.868  0.00  0.00     0.001 A 
HETATM   23  C           1     -20.405  -4.237  -9.512  0.00  0.00     0.014 A 
ENDBRANCH  13  14
ENDBRANCH   1  13
BRANCH   1  24
HETATM   24  N           1     -21.766  -5.961  -4.259  0.00  0.00    -0.066 N 
HETATM   25  H           1     -20.920  -5.722  -3.696  0.00  0.00     0.275 HD
HETATM   26  H           1     -22.228  -6.807  -3.853  0.00  0.00     0.275 HD
HETATM   27  H           1     -22.436  -5.158  -4.241  0.00  0.00     0.275 HD
ENDBRANCH   1  24
TORSDOF 8
ENDMDL
MODEL 4
REMARK VINA RESULT:      -6.4      5.180      7.934
REMARK  8 active torsions:
REMARK  status: ('A' for Active; 'I' for Inactive)
REMARK    1  A    between atoms: C_5  and  Se_21 
REMARK    2  A    between atoms: C_5  and  C_6 
REMARK    3  A    between atoms: C_6  and  C_7 
REMARK    4  A    between atoms: C_6  and  N_24 
REMARK    5  A    between atoms: C_13  and  C_26 
REMARK    6  A    between atoms: C_13  and  C_17 
REMARK    7  A    between atoms: C_13  and  N_25 
REMARK    8  A    between atoms: C_17  and  C_19 
REMARK       I    between atoms: N_24  and  C_26 
ROOT
HETATM    1  C           1     -19.550  -8.525  -3.815  0.00  0.00     0.278 C 
ENDROOT
BRANCH   1   2
HETATM    2  C           1     -20.531  -9.091  -2.818  0.00  0.00     0.249 C 
HETATM    3  O           1     -21.054 -10.161  -3.025  0.00  0.00    -0.271 OA
HETATM    4  N           1     -20.828  -8.394  -1.678  0.00  0.00    -0.345 N 
HETATM    5  H           1     -20.391  -7.498  -1.504  0.00  0.00     0.163 HD
BRANCH   4   6
HETATM    6  C           1     -21.771  -8.938  -0.720  0.00  0.00     0.185 C 
BRANCH   6   7
HETATM    7  C           1     -21.013  -9.530   0.460  0.00  0.00     0.039 C 
BRANCH   7   8
HETATM    8 Se           1     -21.337 -11.450   0.546  0.00  0.00     0.000 Se
HETATM    9  H           1     -21.412 -11.621  -0.914  0.00  0.00     0.000 HD
ENDBRANCH   7   8
ENDBRANCH   6   7
BRANCH   6  10
HETATM   10  C           1     -22.682  -7.838  -0.231  0.00  0.00     0.196 C 
HETATM   11  O           1     -23.413  -8.029   0.765  0.00  0.00    -0.646 OA
HETATM   12  O           1     -22.704  -6.737  -0.821  0.00  0.00    -0.646 OA
ENDBRANCH   6  10
ENDBRANCH   4   6
ENDBRANCH   1   2
BRANCH   1  13
HETATM   13  C           1     -20.155  -8.580  -5.210  0.00  0.00     0.083 C 
BRANCH  13  14
HETATM   14  C           1     -20.985  -7.355  -5.443  0.00  0.00    -0.028 A 
HETATM   15  C           1     -22.226  -7.102  -4.907  0.00  0.00     0.096 A 
HETATM   16  N           1     -22.641  -5.880  -5.366  0.00  0.00    -0.365 N 
HETATM   17  C           1     -21.686  -5.334  -6.194  0.00  0.00     0.042 A 
HETATM   18  H           1     -23.554  -5.425  -5.122  0.00  0.00     0.165 HD
HETATM   19  C           1     -21.675  -4.116  -6.883  0.00  0.00     0.030 A 
HETATM   20  C           1     -20.631  -6.245  -6.260  0.00  0.00    -0.002 A 
HETATM   21  C           1     -20.551  -3.823  -7.662  0.00  0.00     0.002 A 
HETATM   22  C           1     -19.483  -4.714  -7.746  0.00  0.00     0.001 A 
HETATM   23  C           1     -19.509  -5.928  -7.050  0.00  0.00     0.014 A 
ENDBRANCH  13  14
ENDBRANCH   1  13
BRANCH   1  24
HETATM   24  N           1     -18.287  -9.333  -3.785  0.00  0.00    -0.066 N 
HETATM   25  H           1     -17.522  -8.802  -4.258  0.00  0.00     0.275 HD
HETATM   26  H           1     -18.441 -10.240  -4.284  0.00  0.00     0.275 HD
HETATM   27  H           1     -18.017  -9.524  -2.794  0.00  0.00     0.275 HD
ENDBRANCH   1  24
TORSDOF 8
ENDMDL
MODEL 5
REMARK VINA RESULT:      -6.4     13.389     15.642
REMARK  8 active torsions:
REMARK  status: ('A' for Active; 'I' for Inactive)
REMARK    1  A    between atoms: C_5  and  Se_21 
REMARK    2  A    between atoms: C_5  and  C_6 
REMARK    3  A    between atoms: C_6  and  C_7 
REMARK    4  A    between atoms: C_6  and  N_24 
REMARK    5  A    between atoms: C_13  and  C_26 
REMARK    6  A    between atoms: C_13  and  C_17 
REMARK    7  A    between atoms: C_13  and  N_25 
REMARK    8  A    between atoms: C_17  and  C_19 
REMARK       I    between atoms: N_24  and  C_26 
ROOT
HETATM    1  C           1     -36.077  -0.371 -11.297  0.00  0.00     0.278 C 
ENDROOT
BRANCH   1   2
HETATM    2  C           1     -36.884  -0.442 -12.571  0.00  0.00     0.249 C 
HETATM    3  O           1     -38.073  -0.651 -12.522  0.00  0.00    -0.271 OA
HETATM    4  N           1     -36.270  -0.267 -13.781  0.00  0.00    -0.345 N 
HETATM    5  H           1     -35.273  -0.092 -13.823  0.00  0.00     0.163 HD
BRANCH   4   6
HETATM    6  C           1     -37.046  -0.335 -15.004  0.00  0.00     0.185 C 
BRANCH   6   7
HETATM    7  C           1     -37.392   1.074 -15.466  0.00  0.00     0.039 C 
BRANCH   7   8
HETATM    8 Se           1     -35.752   2.092 -15.738  0.00  0.00     0.000 Se
HETATM    9  H           1     -36.235   2.769 -16.951  0.00  0.00     0.000 HD
ENDBRANCH   7   8
ENDBRANCH   6   7
BRANCH   6  10
HETATM   10  C           1     -36.237  -1.028 -16.074  0.00  0.00     0.196 C 
HETATM   11  O           1     -36.602  -0.972 -17.269  0.00  0.00    -0.646 OA
HETATM   12  O           1     -35.204  -1.659 -15.766  0.00  0.00    -0.646 OA
ENDBRANCH   6  10
ENDBRANCH   4   6
ENDBRANCH   1   2
BRANCH   1  13
HETATM   13  C           1     -36.135  -1.715 -10.584  0.00  0.00     0.083 C 
BRANCH  13  14
HETATM   14  C           1     -34.893  -2.495 -10.888  0.00  0.00    -0.028 A 
HETATM   15  C           1     -33.688  -1.975 -11.298  0.00  0.00     0.096 A 
HETATM   16  N           1     -32.816  -3.018 -11.467  0.00  0.00    -0.365 N 
HETATM   17  C           1     -33.438  -4.210 -11.172  0.00  0.00     0.042 A 
HETATM   18  H           1     -31.818  -2.922 -11.777  0.00  0.00     0.165 HD
HETATM   19  C           1     -32.945  -5.519 -11.203  0.00  0.00     0.030 A 
HETATM   20  C           1     -34.749  -3.908 -10.804  0.00  0.00    -0.002 A 
HETATM   21  C           1     -33.821  -6.549 -10.846  0.00  0.00     0.002 A 
HETATM   22  C           1     -35.136  -6.277 -10.473  0.00  0.00     0.001 A 
HETATM   23  C           1     -35.613  -4.962 -10.448  0.00  0.00     0.014 A 
ENDBRANCH  13  14
ENDBRANCH   1  13
BRANCH   1  24
HETATM   24  N           1     -36.644   0.693 -10.406  0.00  0.00    -0.066 N 
HETATM   25  H           1     -37.579   0.987 -10.766  0.00  0.00     0.275 HD
HETATM   26  H           1     -36.000   1.517 -10.393  0.00  0.00     0.275 HD
HETATM   27  H           1     -36.747   0.318  -9.436  0.00  0.00     0.275 HD
ENDBRANCH   1  24
TORSDOF 8
ENDMDL
MODEL 6
REMARK VINA RESULT:      -6.2      4.619      7.853
REMARK  8 active torsions:
REMARK  status: ('A' for Active; 'I' for Inactive)
REMARK    1  A    between atoms: C_5  and  Se_21 
REMARK    2  A    between atoms: C_5  and  C_6 
REMARK    3  A    between atoms: C_6  and  C_7 
REMARK    4  A    between atoms: C_6  and  N_24 
REMARK    5  A    between atoms: C_13  and  C_26 
REMARK    6  A    between atoms: C_13  and  C_17 
REMARK    7  A    between atoms: C_13  and  N_25 
REMARK    8  A    between atoms: C_17  and  C_19 
REMARK       I    between atoms: N_24  and  C_26 
ROOT
HETATM    1  C           1     -20.730  -7.534  -4.788  0.00  0.00     0.278 C 
ENDROOT
BRANCH   1   2
HETATM    2  C           1     -21.391  -8.286  -3.659  0.00  0.00     0.249 C 
HETATM    3  O           1     -22.049  -9.273  -3.894  0.00  0.00    -0.271 OA
HETATM    4  N           1     -21.244  -7.853  -2.369  0.00  0.00    -0.345 N 
HETATM    5  H           1     -20.693  -7.027  -2.171  0.00  0.00     0.163 HD
BRANCH   4   6
HETATM    6  C           1     -21.879  -8.578  -1.285  0.00  0.00     0.185 C 
BRANCH   6   7
HETATM    7  C           1     -20.821  -9.321  -0.482  0.00  0.00     0.039 C 
BRANCH   7   8
HETATM    8 Se           1     -21.407 -11.155  -0.173  0.00  0.00     0.000 Se
HETATM    9  H           1     -22.514 -11.087  -1.139  0.00  0.00     0.000 HD
ENDBRANCH   7   8
ENDBRANCH   6   7
BRANCH   6  10
HETATM   10  C           1     -22.599  -7.604  -0.384  0.00  0.00     0.196 C 
HETATM   11  O           1     -23.231  -8.022   0.611  0.00  0.00    -0.646 OA
HETATM   12  O           1     -22.565  -6.380  -0.633  0.00  0.00    -0.646 OA
ENDBRANCH   6  10
ENDBRANCH   4   6
ENDBRANCH   1   2
BRANCH   1  13
HETATM   13  C           1     -21.175  -6.078  -4.757  0.00  0.00     0.083 C 
BRANCH  13  14
HETATM   14  C           1     -20.725  -5.392  -6.010  0.00  0.00    -0.028 A 
HETATM   15  C           1     -19.422  -5.167  -6.389  0.00  0.00     0.096 A 
HETATM   16  N           1     -19.442  -4.513  -7.593  0.00  0.00    -0.365 N 
HETATM   17  C           1     -20.741  -4.309  -8.002  0.00  0.00     0.042 A 
HETATM   18  H           1     -18.590  -4.211  -8.126  0.00  0.00     0.165 HD
HETATM   19  C           1     -21.240  -3.691  -9.153  0.00  0.00     0.030 A 
HETATM   20  C           1     -21.570  -4.854  -7.021  0.00  0.00    -0.002 A 
HETATM   21  C           1     -22.629  -3.628  -9.304  0.00  0.00     0.002 A 
HETATM   22  C           1     -23.481  -4.164  -8.341  0.00  0.00     0.001 A 
HETATM   23  C           1     -22.965  -4.780  -7.194  0.00  0.00     0.014 A 
ENDBRANCH  13  14
ENDBRANCH   1  13
BRANCH   1  24
HETATM   24  N           1     -21.125  -8.149  -6.097  0.00  0.00    -0.066 N 
HETATM   25  H           1     -21.891  -8.841  -5.939  0.00  0.00     0.275 HD
HETATM   26  H           1     -20.300  -8.633  -6.518  0.00  0.00     0.275 HD
HETATM   27  H           1     -21.459  -7.402  -6.748  0.00  0.00     0.275 HD
ENDBRANCH   1  24
TORSDOF 8
ENDMDL
MODEL 7
REMARK VINA RESULT:      -6.1      4.559      8.072
REMARK  8 active torsions:
REMARK  status: ('A' for Active; 'I' for Inactive)
REMARK    1  A    between atoms: C_5  and  Se_21 
REMARK    2  A    between atoms: C_5  and  C_6 
REMARK    3  A    between atoms: C_6  and  C_7 
REMARK    4  A    between atoms: C_6  and  N_24 
REMARK    5  A    between atoms: C_13  and  C_26 
REMARK    6  A    between atoms: C_13  and  C_17 
REMARK    7  A    between atoms: C_13  and  N_25 
REMARK    8  A    between atoms: C_17  and  C_19 
REMARK       I    between atoms: N_24  and  C_26 
ROOT
HETATM    1  C           1     -20.579  -6.943  -5.133  0.00  0.00     0.278 C 
ENDROOT
BRANCH   1   2
HETATM    2  C           1     -20.729  -7.321  -3.680  0.00  0.00     0.249 C 
HETATM    3  O           1     -21.097  -6.497  -2.876  0.00  0.00    -0.271 OA
HETATM    4  N           1     -20.449  -8.597  -3.272  0.00  0.00    -0.345 N 
HETATM    5  H           1     -20.141  -9.288  -3.945  0.00  0.00     0.163 HD
BRANCH   4   6
HETATM    6  C           1     -20.594  -8.959  -1.875  0.00  0.00     0.185 C 
BRANCH   6   7
HETATM    7  C           1     -22.051  -9.287  -1.583  0.00  0.00     0.039 C 
BRANCH   7   8
HETATM    8 Se           1     -22.619  -8.351   0.030  0.00  0.00     0.000 Se
HETATM    9  H           1     -23.518  -7.429  -0.682  0.00  0.00     0.000 HD
ENDBRANCH   7   8
ENDBRANCH   6   7
BRANCH   6  10
HETATM   10  C           1     -19.739 -10.168  -1.579  0.00  0.00     0.196 C 
HETATM   11  O           1     -20.057 -10.948  -0.656  0.00  0.00    -0.646 OA
HETATM   12  O           1     -18.712 -10.388  -2.257  0.00  0.00    -0.646 OA
ENDBRANCH   6  10
ENDBRANCH   4   6
ENDBRANCH   1   2
BRANCH   1  13
HETATM   13  C           1     -21.149  -5.549  -5.357  0.00  0.00     0.083 C 
BRANCH  13  14
HETATM   14  C           1     -20.775  -5.070  -6.726  0.00  0.00    -0.028 A 
HETATM   15  C           1     -19.500  -4.987  -7.236  0.00  0.00     0.096 A 
HETATM   16  N           1     -19.591  -4.503  -8.514  0.00  0.00    -0.365 N 
HETATM   17  C           1     -20.907  -4.269  -8.842  0.00  0.00     0.042 A 
HETATM   18  H           1     -18.774  -4.333  -9.152  0.00  0.00     0.165 HD
HETATM   19  C           1     -21.472  -3.780 -10.026  0.00  0.00     0.030 A 
HETATM   20  C           1     -21.675  -4.619  -7.731  0.00  0.00    -0.002 A 
HETATM   21  C           1     -22.864  -3.645 -10.072  0.00  0.00     0.002 A 
HETATM   22  C           1     -23.655  -3.987  -8.977  0.00  0.00     0.001 A 
HETATM   23  C           1     -23.074  -4.476  -7.801  0.00  0.00     0.014 A 
ENDBRANCH  13  14
ENDBRANCH   1  13
BRANCH   1  24
HETATM   24  N           1     -21.322  -7.929  -5.985  0.00  0.00    -0.066 N 
HETATM   25  H           1     -22.342  -7.880  -5.765  0.00  0.00     0.275 HD
HETATM   26  H           1     -20.969  -8.894  -5.789  0.00  0.00     0.275 HD
HETATM   27  H           1     -21.171  -7.702  -6.994  0.00  0.00     0.275 HD
ENDBRANCH   1  24
TORSDOF 8
ENDMDL
MODEL 8
REMARK VINA RESULT:      -6.0      5.374      7.309
REMARK  8 active torsions:
REMARK  status: ('A' for Active; 'I' for Inactive)
REMARK    1  A    between atoms: C_5  and  Se_21 
REMARK    2  A    between atoms: C_5  and  C_6 
REMARK    3  A    between atoms: C_6  and  C_7 
REMARK    4  A    between atoms: C_6  and  N_24 
REMARK    5  A    between atoms: C_13  and  C_26 
REMARK    6  A    between atoms: C_13  and  C_17 
REMARK    7  A    between atoms: C_13  and  N_25 
REMARK    8  A    between atoms: C_17  and  C_19 
REMARK       I    between atoms: N_24  and  C_26 
ROOT
HETATM    1  C           1     -20.025  -7.737  -4.906  0.00  0.00     0.278 C 
ENDROOT
BRANCH   1   2
HETATM    2  C           1     -19.164  -8.976  -4.895  0.00  0.00     0.249 C 
HETATM    3  O           1     -19.269  -9.794  -5.778  0.00  0.00    -0.271 OA
HETATM    4  N           1     -18.261  -9.173  -3.885  0.00  0.00    -0.345 N 
HETATM    5  H           1     -18.172  -8.488  -3.144  0.00  0.00     0.163 HD
BRANCH   4   6
HETATM    6  C           1     -17.433 -10.363  -3.874  0.00  0.00     0.185 C 
BRANCH   6   7
HETATM    7  C           1     -16.114 -10.072  -4.576  0.00  0.00     0.039 C 
BRANCH   7   8
HETATM    8 Se           1     -15.641 -11.574  -5.724  0.00  0.00     0.000 Se
HETATM    9  H           1     -16.368 -11.060  -6.895  0.00  0.00     0.000 HD
ENDBRANCH   7   8
ENDBRANCH   6   7
BRANCH   6  10
HETATM   10  C           1     -17.162 -10.774  -2.447  0.00  0.00     0.196 C 
HETATM   11  O           1     -18.077 -11.266  -1.753  0.00  0.00    -0.646 OA
HETATM   12  O           1     -16.021 -10.622  -1.960  0.00  0.00    -0.646 OA
ENDBRANCH   6  10
ENDBRANCH   4   6
ENDBRANCH   1   2
BRANCH   1  13
HETATM   13  C           1     -21.442  -8.100  -4.486  0.00  0.00     0.083 C 
BRANCH  13  14
HETATM   14  C           1     -21.710  -7.563  -3.114  0.00  0.00    -0.028 A 
HETATM   15  C           1     -22.133  -6.290  -2.809  0.00  0.00     0.096 A 
HETATM   16  N           1     -22.257  -6.204  -1.447  0.00  0.00    -0.365 N 
HETATM   17  C           1     -21.919  -7.403  -0.862  0.00  0.00     0.042 A 
HETATM   18  H           1     -22.564  -5.346  -0.926  0.00  0.00     0.165 HD
HETATM   19  C           1     -21.897  -7.777   0.486  0.00  0.00     0.030 A 
HETATM   20  C           1     -21.570  -8.278  -1.892  0.00  0.00    -0.002 A 
HETATM   21  C           1     -21.504  -9.085   0.789  0.00  0.00     0.002 A 
HETATM   22  C           1     -21.151  -9.980  -0.219  0.00  0.00     0.001 A 
HETATM   23  C           1     -21.179  -9.590  -1.563  0.00  0.00     0.014 A 
ENDBRANCH  13  14
ENDBRANCH   1  13
BRANCH   1  24
HETATM   24  N           1     -20.047  -7.157  -6.289  0.00  0.00    -0.066 N 
HETATM   25  H           1     -19.083  -7.179  -6.691  0.00  0.00     0.275 HD
HETATM   26  H           1     -20.384  -6.169  -6.247  0.00  0.00     0.275 HD
HETATM   27  H           1     -20.689  -7.718  -6.893  0.00  0.00     0.275 HD
ENDBRANCH   1  24
TORSDOF 8
ENDMDL
MODEL 9
REMARK VINA RESULT:      -5.9      5.457      7.985
REMARK  8 active torsions:
REMARK  status: ('A' for Active; 'I' for Inactive)
REMARK    1  A    between atoms: C_5  and  Se_21 
REMARK    2  A    between atoms: C_5  and  C_6 
REMARK    3  A    between atoms: C_6  and  C_7 
REMARK    4  A    between atoms: C_6  and  N_24 
REMARK    5  A    between atoms: C_13  and  C_26 
REMARK    6  A    between atoms: C_13  and  C_17 
REMARK    7  A    between atoms: C_13  and  N_25 
REMARK    8  A    between atoms: C_17  and  C_19 
REMARK       I    between atoms: N_24  and  C_26 
ROOT
HETATM    1  C           1     -23.482  -3.856 -13.447  0.00  0.00     0.278 C 
ENDROOT
BRANCH   1   2
HETATM    2  C           1     -24.201  -5.126 -13.828  0.00  0.00     0.249 C 
HETATM    3  O           1     -24.245  -6.052 -13.052  0.00  0.00    -0.271 OA
HETATM    4  N           1     -24.805  -5.231 -15.052  0.00  0.00    -0.345 N 
HETATM    5  H           1     -24.769  -4.456 -15.703  0.00  0.00     0.163 HD
BRANCH   4   6
HETATM    6  C           1     -25.496  -6.452 -15.417  0.00  0.00     0.185 C 
BRANCH   6   7
HETATM    7  C           1     -26.857  -6.110 -16.007  0.00  0.00     0.039 C 
BRANCH   7   8
HETATM    8 Se           1     -28.147  -7.483 -15.508  0.00  0.00     0.000 Se
HETATM    9  H           1     -28.499  -7.822 -16.896  0.00  0.00     0.000 HD
ENDBRANCH   7   8
ENDBRANCH   6   7
BRANCH   6  10
HETATM   10  C           1     -24.681  -7.204 -16.442  0.00  0.00     0.196 C 
HETATM   11  O           1     -24.542  -6.740 -17.594  0.00  0.00    -0.646 OA
HETATM   12  O           1     -24.145  -8.291 -16.138  0.00  0.00    -0.646 OA
ENDBRANCH   6  10
ENDBRANCH   4   6
ENDBRANCH   1   2
BRANCH   1  13
HETATM   13  C           1     -24.369  -3.025 -12.531  0.00  0.00     0.083 C 
BRANCH  13  14
HETATM   14  C           1     -24.016  -3.307 -11.103  0.00  0.00    -0.028 A 
HETATM   15  C           1     -24.881  -3.281 -10.034  0.00  0.00     0.096 A 
HETATM   16  N           1     -24.166  -3.594  -8.908  0.00  0.00    -0.365 N 
HETATM   17  C           1     -22.848  -3.823  -9.231  0.00  0.00     0.042 A 
HETATM   18  H           1     -24.566  -3.650  -7.939  0.00  0.00     0.165 HD
HETATM   19  C           1     -21.764  -4.168  -8.416  0.00  0.00     0.030 A 
HETATM   20  C           1     -22.727  -3.648 -10.609  0.00  0.00    -0.002 A 
HETATM   21  C           1     -20.519  -4.339  -9.032  0.00  0.00     0.002 A 
HETATM   22  C           1     -20.370  -4.171 -10.406  0.00  0.00     0.001 A 
HETATM   23  C           1     -21.464  -3.826 -11.208  0.00  0.00     0.014 A 
ENDBRANCH  13  14
ENDBRANCH   1  13
BRANCH   1  24
HETATM   24  N           1     -23.166  -3.070 -14.685  0.00  0.00    -0.066 N 
HETATM   25  H           1     -22.869  -2.105 -14.418  0.00  0.00     0.275 HD
HETATM   26  H           1     -24.016  -3.019 -15.291  0.00  0.00     0.275 HD
HETATM   27  H           1     -22.394  -3.540 -15.209  0.00  0.00     0.275 HD
ENDBRANCH   1  24
TORSDOF 8
ENDMDL
