MODEL 1
REMARK VINA RESULT:      -7.0      0.000      0.000
REMARK  11 active torsions:
REMARK  status: ('A' for Active; 'I' for Inactive)
REMARK    1  A    between atoms: C_1  and  C_3 
REMARK    2  A    between atoms: C_1  and  C_18 
REMARK    3  A    between atoms: C_3  and  N_4 
REMARK    4  A    between atoms: C_9  and  C_10 
REMARK    5  A    between atoms: C_10  and  C_11 
REMARK    6  A    between atoms: C_11  and  C_12 
REMARK    7  A    between atoms: C_11  and  N_21 
REMARK       I    between atoms: C_12  and  N_17 
REMARK    8  A    between atoms: N_17  and  C_25 
REMARK    9  A    between atoms: C_18  and  C_22 
REMARK   10  A    between atoms: C_22  and  C_25 
REMARK   11  A    between atoms: C_25  and  C_26 
ROOT
HETATM    1  C           1     -34.522  -3.061 -11.580  0.00  0.00     0.249 C 
HETATM    2  O           1     -33.787  -2.674 -10.703  0.00  0.00    -0.271 OA
HETATM    3  N           1     -35.460  -2.216 -12.110  0.00  0.00    -0.345 N 
HETATM    4  H           1     -36.076  -2.540 -12.844  0.00  0.00     0.163 HD
ENDROOT
BRANCH   1   5
HETATM    5  C           1     -34.407  -4.476 -12.092  0.00  0.00     0.280 C 
BRANCH   5   6
HETATM    6  C           1     -33.298  -5.200 -11.340  0.00  0.00     0.101 C 
BRANCH   6   7
HETATM    7  C           1     -33.862  -6.409 -10.661  0.00  0.00     0.028 A 
HETATM    8  C           1     -35.067  -6.443 -10.000  0.00  0.00     0.114 A 
HETATM    9  N           1     -35.183  -7.725  -9.540  0.00  0.00    -0.360 N 
HETATM   10  H           1     -35.985  -8.116  -8.985  0.00  0.00     0.166 HD
HETATM   11  C           1     -34.065  -8.405  -9.932  0.00  0.00     0.180 A 
HETATM   12  N           1     -33.249  -7.633 -10.612  0.00  0.00    -0.355 N 
ATOM     13  HN          1     -32.349  -7.891 -11.018  1.00  0.00     0.166 HD
ENDBRANCH   6   7
ENDBRANCH   5   6
BRANCH   5  14
HETATM   14  N           1     -34.083  -4.452 -13.557  0.00  0.00    -0.066 N 
HETATM   15  H           1     -34.952  -4.252 -14.102  0.00  0.00     0.275 HD
HETATM   16  H           1     -33.374  -3.708 -13.745  0.00  0.00     0.275 HD
HETATM   17  H           1     -33.698  -5.381 -13.843  0.00  0.00     0.275 HD
ENDBRANCH   5  14
ENDBRANCH   1   5
BRANCH   3  18
HETATM   18  C           1     -35.571  -0.856 -11.617  0.00  0.00     0.185 C 
BRANCH  18  19
HETATM   19  C           1     -36.006   0.062 -12.753  0.00  0.00     0.036 C 
BRANCH  19  20
HETATM   20  C           1     -34.778   0.688 -13.399  0.00  0.00     0.004 C 
BRANCH  20  21
HETATM   21  C           1     -35.010   0.835 -14.896  0.00  0.00     0.027 C 
BRANCH  21  22
HETATM   22  C           1     -36.415   0.359 -15.243  0.00  0.00     0.229 C 
BRANCH  22  23
HETATM   23  N           1     -37.129   1.427 -16.016  0.00  0.00    -0.079 N 
HETATM   24  H           1     -37.043   1.234 -17.040  0.00  0.00     0.274 HD
HETATM   25  H           1     -38.139   1.435 -15.747  0.00  0.00     0.274 HD
HETATM   26  H           1     -36.703   2.357 -15.800  0.00  0.00     0.274 HD
ENDBRANCH  22  23
ENDBRANCH  21  22
ENDBRANCH  20  21
ENDBRANCH  19  20
ENDBRANCH  18  19
BRANCH  18  27
HETATM   27  C           1     -36.595  -0.807 -10.510  0.00  0.00     0.196 C 
HETATM   28  O           1     -37.802  -1.005 -10.766  0.00  0.00    -0.646 OA
HETATM   29  O           1     -36.236  -0.567  -9.337  0.00  0.00    -0.646 OA
ENDBRANCH  18  27
ENDBRANCH   3  18
TORSDOF 11
ENDMDL
MODEL 2
REMARK VINA RESULT:      -6.6     12.084     13.737
REMARK  11 active torsions:
REMARK  status: ('A' for Active; 'I' for Inactive)
REMARK    1  A    between atoms: C_1  and  C_3 
REMARK    2  A    between atoms: C_1  and  C_18 
REMARK    3  A    between atoms: C_3  and  N_4 
REMARK    4  A    between atoms: C_9  and  C_10 
REMARK    5  A    between atoms: C_10  and  C_11 
REMARK    6  A    between atoms: C_11  and  C_12 
REMARK    7  A    between atoms: C_11  and  N_21 
REMARK       I    between atoms: C_12  and  N_17 
REMARK    8  A    between atoms: N_17  and  C_25 
REMARK    9  A    between atoms: C_18  and  C_22 
REMARK   10  A    between atoms: C_22  and  C_25 
REMARK   11  A    between atoms: C_25  and  C_26 
ROOT
HETATM    1  C           1     -21.705  -4.552  -7.796  0.00  0.00     0.249 C 
HETATM    2  O           1     -21.731  -3.423  -7.365  0.00  0.00    -0.271 OA
HETATM    3  N           1     -22.229  -4.825  -9.031  0.00  0.00    -0.345 N 
HETATM    4  H           1     -22.207  -5.770  -9.392  0.00  0.00     0.163 HD
ENDROOT
BRANCH   1   5
HETATM    5  C           1     -21.095  -5.661  -6.972  0.00  0.00     0.280 C 
BRANCH   5   6
HETATM    6  C           1     -20.816  -5.153  -5.564  0.00  0.00     0.101 C 
BRANCH   6   7
HETATM    7  C           1     -21.148  -6.224  -4.572  0.00  0.00     0.028 A 
HETATM    8  C           1     -21.415  -7.533  -4.896  0.00  0.00     0.114 A 
HETATM    9  N           1     -21.663  -8.150  -3.702  0.00  0.00    -0.360 N 
HETATM   10  H           1     -21.905  -9.164  -3.564  0.00  0.00     0.166 HD
HETATM   11  C           1     -21.541  -7.209  -2.720  0.00  0.00     0.180 A 
HETATM   12  N           1     -21.230  -6.034  -3.218  0.00  0.00    -0.355 N 
ATOM     13  HN          1     -21.080  -5.165  -2.705  1.00  0.00     0.166 HD
ENDBRANCH   6   7
ENDBRANCH   5   6
BRANCH   5  14
HETATM   14  N           1     -19.811  -6.105  -7.607  0.00  0.00    -0.066 N 
HETATM   15  H           1     -19.006  -5.638  -7.129  0.00  0.00     0.275 HD
HETATM   16  H           1     -19.717  -7.142  -7.514  0.00  0.00     0.275 HD
HETATM   17  H           1     -19.814  -5.844  -8.619  0.00  0.00     0.275 HD
ENDBRANCH   5  14
ENDBRANCH   1   5
BRANCH   3  18
HETATM   18  C           1     -22.814  -3.760  -9.822  0.00  0.00     0.185 C 
BRANCH  18  19
HETATM   19  C           1     -22.413  -3.931 -11.281  0.00  0.00     0.036 C 
BRANCH  19  20
HETATM   20  C           1     -22.639  -2.622 -12.027  0.00  0.00     0.004 C 
BRANCH  20  21
HETATM   21  C           1     -23.799  -2.785 -13.000  0.00  0.00     0.027 C 
BRANCH  21  22
HETATM   22  C           1     -23.436  -2.148 -14.335  0.00  0.00     0.229 C 
BRANCH  22  23
HETATM   23  N           1     -22.375  -2.967 -15.009  0.00  0.00    -0.079 N 
HETATM   24  H           1     -21.992  -3.666 -14.333  0.00  0.00     0.274 HD
HETATM   25  H           1     -22.788  -3.465 -15.829  0.00  0.00     0.274 HD
HETATM   26  H           1     -21.605  -2.339 -15.334  0.00  0.00     0.274 HD
ENDBRANCH  22  23
ENDBRANCH  21  22
ENDBRANCH  20  21
ENDBRANCH  19  20
ENDBRANCH  18  19
BRANCH  18  27
HETATM   27  C           1     -24.317  -3.817  -9.704  0.00  0.00     0.196 C 
HETATM   28  O           1     -24.917  -4.901  -9.872  0.00  0.00    -0.646 OA
HETATM   29  O           1     -24.963  -2.780  -9.437  0.00  0.00    -0.646 OA
ENDBRANCH  18  27
ENDBRANCH   3  18
TORSDOF 11
ENDMDL
MODEL 3
REMARK VINA RESULT:      -6.5     12.267     15.221
REMARK  11 active torsions:
REMARK  status: ('A' for Active; 'I' for Inactive)
REMARK    1  A    between atoms: C_1  and  C_3 
REMARK    2  A    between atoms: C_1  and  C_18 
REMARK    3  A    between atoms: C_3  and  N_4 
REMARK    4  A    between atoms: C_9  and  C_10 
REMARK    5  A    between atoms: C_10  and  C_11 
REMARK    6  A    between atoms: C_11  and  C_12 
REMARK    7  A    between atoms: C_11  and  N_21 
REMARK       I    between atoms: C_12  and  N_17 
REMARK    8  A    between atoms: N_17  and  C_25 
REMARK    9  A    between atoms: C_18  and  C_22 
REMARK   10  A    between atoms: C_22  and  C_25 
REMARK   11  A    between atoms: C_25  and  C_26 
ROOT
HETATM    1  C           1     -23.058  -4.458  -8.464  0.00  0.00     0.249 C 
HETATM    2  O           1     -23.635  -4.209  -7.432  0.00  0.00    -0.271 OA
HETATM    3  N           1     -21.743  -4.838  -8.439  0.00  0.00    -0.345 N 
HETATM    4  H           1     -21.260  -5.046  -9.303  0.00  0.00     0.163 HD
ENDROOT
BRANCH   1   5
HETATM    5  C           1     -23.787  -4.349  -9.782  0.00  0.00     0.280 C 
BRANCH   5   6
HETATM    6  C           1     -23.653  -2.932 -10.321  0.00  0.00     0.101 C 
BRANCH   6   7
HETATM    7  C           1     -23.260  -2.983 -11.765  0.00  0.00     0.028 A 
HETATM    8  C           1     -22.066  -3.478 -12.233  0.00  0.00     0.114 A 
HETATM    9  N           1     -22.128  -3.331 -13.590  0.00  0.00    -0.360 N 
HETATM   10  H           1     -21.384  -3.604 -14.280  0.00  0.00     0.166 HD
HETATM   11  C           1     -23.334  -2.762 -13.887  0.00  0.00     0.180 A 
HETATM   12  N           1     -24.039  -2.540 -12.802  0.00  0.00    -0.355 N 
ATOM     13  HN          1     -24.970  -2.126 -12.742  1.00  0.00     0.166 HD
ENDBRANCH   6   7
ENDBRANCH   5   6
BRANCH   5  14
HETATM   14  N           1     -25.238  -4.671  -9.578  0.00  0.00    -0.066 N 
HETATM   15  H           1     -25.571  -5.285 -10.355  0.00  0.00     0.275 HD
HETATM   16  H           1     -25.360  -5.165  -8.665  0.00  0.00     0.275 HD
HETATM   17  H           1     -25.792  -3.785  -9.571  0.00  0.00     0.275 HD
ENDBRANCH   5  14
ENDBRANCH   1   5
BRANCH   3  18
HETATM   18  C           1     -21.043  -4.941  -7.173  0.00  0.00     0.185 C 
BRANCH  18  19
HETATM   19  C           1     -21.015  -6.397  -6.725  0.00  0.00     0.036 C 
BRANCH  19  20
HETATM   20  C           1     -21.894  -6.566  -5.493  0.00  0.00     0.004 C 
BRANCH  20  21
HETATM   21  C           1     -21.197  -5.958  -4.283  0.00  0.00     0.027 C 
BRANCH  21  22
HETATM   22  C           1     -21.572  -6.743  -3.033  0.00  0.00     0.229 C 
BRANCH  22  23
HETATM   23  N           1     -22.371  -5.868  -2.113  0.00  0.00    -0.079 N 
HETATM   24  H           1     -23.072  -5.326  -2.668  0.00  0.00     0.274 HD
HETATM   25  H           1     -22.867  -6.462  -1.411  0.00  0.00     0.274 HD
HETATM   26  H           1     -21.731  -5.205  -1.619  0.00  0.00     0.274 HD
ENDBRANCH  22  23
ENDBRANCH  21  22
ENDBRANCH  20  21
ENDBRANCH  19  20
ENDBRANCH  18  19
BRANCH  18  27
HETATM   27  C           1     -19.630  -4.440  -7.339  0.00  0.00     0.196 C 
HETATM   28  O           1     -19.342  -3.687  -8.295  0.00  0.00    -0.646 OA
HETATM   29  O           1     -18.747  -4.776  -6.521  0.00  0.00    -0.646 OA
ENDBRANCH  18  27
ENDBRANCH   3  18
TORSDOF 11
ENDMDL
MODEL 4
REMARK VINA RESULT:      -6.5     10.497     12.209
REMARK  11 active torsions:
REMARK  status: ('A' for Active; 'I' for Inactive)
REMARK    1  A    between atoms: C_1  and  C_3 
REMARK    2  A    between atoms: C_1  and  C_18 
REMARK    3  A    between atoms: C_3  and  N_4 
REMARK    4  A    between atoms: C_9  and  C_10 
REMARK    5  A    between atoms: C_10  and  C_11 
REMARK    6  A    between atoms: C_11  and  C_12 
REMARK    7  A    between atoms: C_11  and  N_21 
REMARK       I    between atoms: C_12  and  N_17 
REMARK    8  A    between atoms: N_17  and  C_25 
REMARK    9  A    between atoms: C_18  and  C_22 
REMARK   10  A    between atoms: C_22  and  C_25 
REMARK   11  A    between atoms: C_25  and  C_26 
ROOT
HETATM    1  C           1     -26.849  -6.372 -19.011  0.00  0.00     0.249 C 
HETATM    2  O           1     -27.685  -5.766 -19.639  0.00  0.00    -0.271 OA
HETATM    3  N           1     -27.109  -6.763 -17.725  0.00  0.00    -0.345 N 
HETATM    4  H           1     -26.410  -7.270 -17.199  0.00  0.00     0.163 HD
ENDROOT
BRANCH   1   5
HETATM    5  C           1     -25.518  -6.698 -19.644  0.00  0.00     0.280 C 
BRANCH   5   6
HETATM    6  C           1     -25.714  -7.751 -20.726  0.00  0.00     0.101 C 
BRANCH   6   7
HETATM    7  C           1     -24.403  -8.032 -21.393  0.00  0.00     0.028 A 
HETATM    8  C           1     -24.077  -7.642 -22.670  0.00  0.00     0.114 A 
HETATM    9  N           1     -22.805  -8.101 -22.867  0.00  0.00    -0.360 N 
HETATM   10  H           1     -22.230  -7.984 -23.739  0.00  0.00     0.166 HD
HETATM   11  C           1     -22.417  -8.740 -21.724  0.00  0.00     0.180 A 
HETATM   12  N           1     -23.364  -8.714 -20.815  0.00  0.00    -0.355 N 
ATOM     13  HN          1     -23.334  -9.115 -19.878  1.00  0.00     0.166 HD
ENDBRANCH   6   7
ENDBRANCH   5   6
BRANCH   5  14
HETATM   14  N           1     -24.583  -7.227 -18.596  0.00  0.00    -0.066 N 
HETATM   15  H           1     -24.932  -6.955 -17.649  0.00  0.00     0.275 HD
HETATM   16  H           1     -24.537  -8.269 -18.665  0.00  0.00     0.275 HD
HETATM   17  H           1     -23.630  -6.825 -18.745  0.00  0.00     0.275 HD
ENDBRANCH   5  14
ENDBRANCH   1   5
BRANCH   3  18
HETATM   18  C           1     -28.388  -6.449 -17.117  0.00  0.00     0.185 C 
BRANCH  18  19
HETATM   19  C           1     -29.429  -7.464 -17.571  0.00  0.00     0.036 C 
BRANCH  19  20
HETATM   20  C           1     -30.821  -6.866 -17.421  0.00  0.00     0.004 C 
BRANCH  20  21
HETATM   21  C           1     -30.776  -5.382 -17.758  0.00  0.00     0.027 C 
BRANCH  21  22
HETATM   22  C           1     -31.774  -4.631 -16.886  0.00  0.00     0.229 C 
BRANCH  22  23
HETATM   23  N           1     -31.988  -3.254 -17.442  0.00  0.00    -0.079 N 
HETATM   24  H           1     -31.463  -3.154 -18.340  0.00  0.00     0.274 HD
HETATM   25  H           1     -33.008  -3.104 -17.616  0.00  0.00     0.274 HD
HETATM   26  H           1     -31.643  -2.545 -16.756  0.00  0.00     0.274 HD
ENDBRANCH  22  23
ENDBRANCH  21  22
ENDBRANCH  20  21
ENDBRANCH  19  20
ENDBRANCH  18  19
BRANCH  18  27
HETATM   27  C           1     -28.255  -6.502 -15.615  0.00  0.00     0.196 C 
HETATM   28  O           1     -28.577  -5.512 -14.924  0.00  0.00    -0.646 OA
HETATM   29  O           1     -27.823  -7.537 -15.062  0.00  0.00    -0.646 OA
ENDBRANCH  18  27
ENDBRANCH   3  18
TORSDOF 11
ENDMDL
MODEL 5
REMARK VINA RESULT:      -6.3     13.336     16.422
REMARK  11 active torsions:
REMARK  status: ('A' for Active; 'I' for Inactive)
REMARK    1  A    between atoms: C_1  and  C_3 
REMARK    2  A    between atoms: C_1  and  C_18 
REMARK    3  A    between atoms: C_3  and  N_4 
REMARK    4  A    between atoms: C_9  and  C_10 
REMARK    5  A    between atoms: C_10  and  C_11 
REMARK    6  A    between atoms: C_11  and  C_12 
REMARK    7  A    between atoms: C_11  and  N_21 
REMARK       I    between atoms: C_12  and  N_17 
REMARK    8  A    between atoms: N_17  and  C_25 
REMARK    9  A    between atoms: C_18  and  C_22 
REMARK   10  A    between atoms: C_22  and  C_25 
REMARK   11  A    between atoms: C_25  and  C_26 
ROOT
HETATM    1  C           1     -20.737  -4.893  -6.181  0.00  0.00     0.249 C 
HETATM    2  O           1     -19.987  -4.402  -5.370  0.00  0.00    -0.271 OA
HETATM    3  N           1     -21.330  -6.100  -5.921  0.00  0.00    -0.345 N 
HETATM    4  H           1     -21.958  -6.512  -6.599  0.00  0.00     0.163 HD
ENDROOT
BRANCH   1   5
HETATM    5  C           1     -21.020  -4.178  -7.479  0.00  0.00     0.280 C 
BRANCH   5   6
HETATM    6  C           1     -21.790  -5.103  -8.412  0.00  0.00     0.101 C 
BRANCH   6   7
HETATM    7  C           1     -22.841  -4.321  -9.135  0.00  0.00     0.028 A 
HETATM    8  C           1     -22.763  -3.941 -10.454  0.00  0.00     0.114 A 
HETATM    9  N           1     -23.922  -3.256 -10.694  0.00  0.00    -0.360 N 
HETATM   10  H           1     -24.206  -2.816 -11.605  0.00  0.00     0.166 HD
HETATM   11  C           1     -24.642  -3.246  -9.534  0.00  0.00     0.180 A 
HETATM   12  N           1     -24.012  -3.883  -8.574  0.00  0.00    -0.355 N 
ATOM     13  HN          1     -24.327  -4.022  -7.613  1.00  0.00     0.166 HD
ENDBRANCH   6   7
ENDBRANCH   5   6
BRANCH   5  14
HETATM   14  N           1     -19.724  -3.784  -8.124  0.00  0.00    -0.066 N 
HETATM   15  H           1     -19.766  -3.996  -9.147  0.00  0.00     0.275 HD
HETATM   16  H           1     -19.564  -2.760  -7.988  0.00  0.00     0.275 HD
HETATM   17  H           1     -18.941  -4.321  -7.688  0.00  0.00     0.275 HD
ENDBRANCH   5  14
ENDBRANCH   1   5
BRANCH   3  18
HETATM   18  C           1     -21.057  -6.788  -4.673  0.00  0.00     0.185 C 
BRANCH  18  19
HETATM   19  C           1     -22.187  -6.519  -3.687  0.00  0.00     0.036 C 
BRANCH  19  20
HETATM   20  C           1     -21.601  -6.091  -2.348  0.00  0.00     0.004 C 
BRANCH  20  21
HETATM   21  C           1     -22.324  -6.817  -1.222  0.00  0.00     0.027 C 
BRANCH  21  22
HETATM   22  C           1     -21.431  -7.923  -0.675  0.00  0.00     0.229 C 
BRANCH  22  23
HETATM   23  N           1     -21.754  -9.215  -1.366  0.00  0.00    -0.079 N 
HETATM   24  H           1     -22.791  -9.342  -1.402  0.00  0.00     0.274 HD
HETATM   25  H           1     -21.372  -9.194  -2.338  0.00  0.00     0.274 HD
HETATM   26  H           1     -21.325 -10.008  -0.838  0.00  0.00     0.274 HD
ENDBRANCH  22  23
ENDBRANCH  21  22
ENDBRANCH  20  21
ENDBRANCH  19  20
ENDBRANCH  18  19
BRANCH  18  27
HETATM   27  C           1     -20.957  -8.271  -4.930  0.00  0.00     0.196 C 
HETATM   28  O           1     -20.092  -8.713  -5.717  0.00  0.00    -0.646 OA
HETATM   29  O           1     -21.739  -9.059  -4.356  0.00  0.00    -0.646 OA
ENDBRANCH  18  27
ENDBRANCH   3  18
TORSDOF 11
ENDMDL
MODEL 6
REMARK VINA RESULT:      -6.2     12.054     13.828
REMARK  11 active torsions:
REMARK  status: ('A' for Active; 'I' for Inactive)
REMARK    1  A    between atoms: C_1  and  C_3 
REMARK    2  A    between atoms: C_1  and  C_18 
REMARK    3  A    between atoms: C_3  and  N_4 
REMARK    4  A    between atoms: C_9  and  C_10 
REMARK    5  A    between atoms: C_10  and  C_11 
REMARK    6  A    between atoms: C_11  and  C_12 
REMARK    7  A    between atoms: C_11  and  N_21 
REMARK       I    between atoms: C_12  and  N_17 
REMARK    8  A    between atoms: N_17  and  C_25 
REMARK    9  A    between atoms: C_18  and  C_22 
REMARK   10  A    between atoms: C_22  and  C_25 
REMARK   11  A    between atoms: C_25  and  C_26 
ROOT
HETATM    1  C           1     -21.738  -4.384  -6.992  0.00  0.00     0.249 C 
HETATM    2  O           1     -21.241  -3.285  -6.943  0.00  0.00    -0.271 OA
HETATM    3  N           1     -22.509  -4.740  -8.067  0.00  0.00    -0.345 N 
HETATM    4  H           1     -22.926  -5.660  -8.108  0.00  0.00     0.163 HD
ENDROOT
BRANCH   1   5
HETATM    5  C           1     -21.511  -5.367  -5.869  0.00  0.00     0.280 C 
BRANCH   5   6
HETATM    6  C           1     -20.607  -6.492  -6.354  0.00  0.00     0.101 C 
BRANCH   6   7
HETATM    7  C           1     -20.731  -7.665  -5.432  0.00  0.00     0.028 A 
HETATM    8  C           1     -20.450  -7.634  -4.086  0.00  0.00     0.114 A 
HETATM    9  N           1     -20.697  -8.904  -3.644  0.00  0.00    -0.360 N 
HETATM   10  H           1     -20.589  -9.251  -2.657  0.00  0.00     0.166 HD
HETATM   11  C           1     -21.108  -9.641  -4.717  0.00  0.00     0.180 A 
HETATM   12  N           1     -21.138  -8.917  -5.813  0.00  0.00    -0.355 N 
ATOM     13  HN          1     -21.408  -9.221  -6.748  1.00  0.00     0.166 HD
ENDBRANCH   6   7
ENDBRANCH   5   6
BRANCH   5  14
HETATM   14  N           1     -22.827  -5.938  -5.431  0.00  0.00    -0.066 N 
HETATM   15  H           1     -22.887  -6.940  -5.724  0.00  0.00     0.275 HD
HETATM   16  H           1     -22.906  -5.874  -4.391  0.00  0.00     0.275 HD
HETATM   17  H           1     -23.605  -5.398  -5.874  0.00  0.00     0.275 HD
ENDBRANCH   5  14
ENDBRANCH   1   5
BRANCH   3  18
HETATM   18  C           1     -22.728  -3.795  -9.145  0.00  0.00     0.185 C 
BRANCH  18  19
HETATM   19  C           1     -21.858  -4.174 -10.337  0.00  0.00     0.036 C 
BRANCH  19  20
HETATM   20  C           1     -21.813  -3.013 -11.322  0.00  0.00     0.004 C 
BRANCH  20  21
HETATM   21  C           1     -22.407  -3.453 -12.653  0.00  0.00     0.027 C 
BRANCH  21  22
HETATM   22  C           1     -23.558  -2.528 -13.027  0.00  0.00     0.229 C 
BRANCH  22  23
HETATM   23  N           1     -24.856  -3.144 -12.598  0.00  0.00    -0.079 N 
HETATM   24  H           1     -24.728  -4.172 -12.465  0.00  0.00     0.274 HD
HETATM   25  H           1     -25.166  -2.712 -11.699  0.00  0.00     0.274 HD
HETATM   26  H           1     -25.580  -2.976 -13.333  0.00  0.00     0.274 HD
ENDBRANCH  22  23
ENDBRANCH  21  22
ENDBRANCH  20  21
ENDBRANCH  19  20
ENDBRANCH  18  19
BRANCH  18  27
HETATM   27  C           1     -24.181  -3.827  -9.552  0.00  0.00     0.196 C 
HETATM   28  O           1     -24.874  -2.790  -9.479  0.00  0.00    -0.646 OA
HETATM   29  O           1     -24.691  -4.892  -9.963  0.00  0.00    -0.646 OA
ENDBRANCH  18  27
ENDBRANCH   3  18
TORSDOF 11
ENDMDL
MODEL 7
REMARK VINA RESULT:      -6.1     12.885     16.004
REMARK  11 active torsions:
REMARK  status: ('A' for Active; 'I' for Inactive)
REMARK    1  A    between atoms: C_1  and  C_3 
REMARK    2  A    between atoms: C_1  and  C_18 
REMARK    3  A    between atoms: C_3  and  N_4 
REMARK    4  A    between atoms: C_9  and  C_10 
REMARK    5  A    between atoms: C_10  and  C_11 
REMARK    6  A    between atoms: C_11  and  C_12 
REMARK    7  A    between atoms: C_11  and  N_21 
REMARK       I    between atoms: C_12  and  N_17 
REMARK    8  A    between atoms: N_17  and  C_25 
REMARK    9  A    between atoms: C_18  and  C_22 
REMARK   10  A    between atoms: C_22  and  C_25 
REMARK   11  A    between atoms: C_25  and  C_26 
ROOT
HETATM    1  C           1     -21.835  -4.761  -7.603  0.00  0.00     0.249 C 
HETATM    2  O           1     -20.815  -4.134  -7.440  0.00  0.00    -0.271 OA
HETATM    3  N           1     -22.177  -5.752  -6.721  0.00  0.00    -0.345 N 
HETATM    4  H           1     -23.031  -6.277  -6.857  0.00  0.00     0.163 HD
ENDROOT
BRANCH   1   5
HETATM    5  C           1     -22.732  -4.454  -8.777  0.00  0.00     0.280 C 
BRANCH   5   6
HETATM    6  C           1     -21.993  -3.554  -9.759  0.00  0.00     0.101 C 
BRANCH   6   7
HETATM    7  C           1     -22.664  -3.617 -11.096  0.00  0.00     0.028 A 
HETATM    8  C           1     -23.311  -4.723 -11.593  0.00  0.00     0.114 A 
HETATM    9  N           1     -23.767  -4.343 -12.825  0.00  0.00    -0.360 N 
HETATM   10  H           1     -24.312  -4.939 -13.497  0.00  0.00     0.166 HD
HETATM   11  C           1     -23.385  -3.047 -13.022  0.00  0.00     0.180 A 
HETATM   12  N           1     -22.716  -2.582 -11.992  0.00  0.00    -0.355 N 
ATOM     13  HN          1     -22.319  -1.649 -11.882  1.00  0.00     0.166 HD
ENDBRANCH   6   7
ENDBRANCH   5   6
BRANCH   5  14
HETATM   14  N           1     -23.968  -3.755  -8.292  0.00  0.00    -0.066 N 
HETATM   15  H           1     -24.356  -3.161  -9.060  0.00  0.00     0.275 HD
HETATM   16  H           1     -24.679  -4.464  -8.005  0.00  0.00     0.275 HD
HETATM   17  H           1     -23.727  -3.151  -7.473  0.00  0.00     0.275 HD
ENDBRANCH   5  14
ENDBRANCH   1   5
BRANCH   3  18
HETATM   18  C           1     -21.315  -6.047  -5.593  0.00  0.00     0.185 C 
BRANCH  18  19
HETATM   19  C           1     -22.167  -6.377  -4.374  0.00  0.00     0.036 C 
BRANCH  19  20
HETATM   20  C           1     -21.379  -6.077  -3.106  0.00  0.00     0.004 C 
BRANCH  20  21
HETATM   21  C           1     -21.683  -7.137  -2.056  0.00  0.00     0.027 C 
BRANCH  21  22
HETATM   22  C           1     -20.430  -7.958  -1.784  0.00  0.00     0.229 C 
BRANCH  22  23
HETATM   23  N           1     -20.373  -9.116  -2.736  0.00  0.00    -0.079 N 
HETATM   24  H           1     -21.241  -9.689  -2.641  0.00  0.00     0.274 HD
HETATM   25  H           1     -20.297  -8.757  -3.715  0.00  0.00     0.274 HD
HETATM   26  H           1     -19.540  -9.707  -2.516  0.00  0.00     0.274 HD
ENDBRANCH  22  23
ENDBRANCH  21  22
ENDBRANCH  20  21
ENDBRANCH  19  20
ENDBRANCH  18  19
BRANCH  18  27
HETATM   27  C           1     -20.439  -7.229  -5.928  0.00  0.00     0.196 C 
HETATM   28  O           1     -19.352  -7.054  -6.519  0.00  0.00    -0.646 OA
HETATM   29  O           1     -20.801  -8.384  -5.615  0.00  0.00    -0.646 OA
ENDBRANCH  18  27
ENDBRANCH   3  18
TORSDOF 11
ENDMDL
MODEL 8
REMARK VINA RESULT:      -6.0     13.920     17.080
REMARK  11 active torsions:
REMARK  status: ('A' for Active; 'I' for Inactive)
REMARK    1  A    between atoms: C_1  and  C_3 
REMARK    2  A    between atoms: C_1  and  C_18 
REMARK    3  A    between atoms: C_3  and  N_4 
REMARK    4  A    between atoms: C_9  and  C_10 
REMARK    5  A    between atoms: C_10  and  C_11 
REMARK    6  A    between atoms: C_11  and  C_12 
REMARK    7  A    between atoms: C_11  and  N_21 
REMARK       I    between atoms: C_12  and  N_17 
REMARK    8  A    between atoms: N_17  and  C_25 
REMARK    9  A    between atoms: C_18  and  C_22 
REMARK   10  A    between atoms: C_22  and  C_25 
REMARK   11  A    between atoms: C_25  and  C_26 
ROOT
HETATM    1  C           1     -20.243  -6.948  -5.803  0.00  0.00     0.249 C 
HETATM    2  O           1     -19.364  -7.405  -6.495  0.00  0.00    -0.271 OA
HETATM    3  N           1     -20.679  -7.640  -4.705  0.00  0.00    -0.345 N 
HETATM    4  H           1     -21.415  -7.258  -4.125  0.00  0.00     0.163 HD
ENDROOT
BRANCH   1   5
HETATM    5  C           1     -20.861  -5.615  -6.149  0.00  0.00     0.280 C 
BRANCH   5   6
HETATM    6  C           1     -20.678  -5.341  -7.636  0.00  0.00     0.101 C 
BRANCH   6   7
HETATM    7  C           1     -21.933  -4.743  -8.191  0.00  0.00     0.028 A 
HETATM    8  C           1     -23.033  -4.400  -7.442  0.00  0.00     0.114 A 
HETATM    9  N           1     -23.932  -3.899  -8.342  0.00  0.00    -0.360 N 
HETATM   10  H           1     -24.894  -3.536  -8.123  0.00  0.00     0.166 HD
HETATM   11  C           1     -23.353  -3.958  -9.577  0.00  0.00     0.180 A 
HETATM   12  N           1     -22.143  -4.464  -9.516  0.00  0.00    -0.355 N 
ATOM     13  HN          1     -21.497  -4.617 -10.291  1.00  0.00     0.166 HD
ENDBRANCH   6   7
ENDBRANCH   5   6
BRANCH   5  14
HETATM   14  N           1     -20.191  -4.533  -5.355  0.00  0.00    -0.066 N 
HETATM   15  H           1     -19.975  -4.888  -4.395  0.00  0.00     0.275 HD
HETATM   16  H           1     -19.304  -4.251  -5.830  0.00  0.00     0.275 HD
HETATM   17  H           1     -20.828  -3.707  -5.286  0.00  0.00     0.275 HD
ENDBRANCH   5  14
ENDBRANCH   1   5
BRANCH   3  18
HETATM   18  C           1     -20.086  -8.921  -4.373  0.00  0.00     0.185 C 
BRANCH  18  19
HETATM   19  C           1     -19.894  -9.017  -2.865  0.00  0.00     0.036 C 
BRANCH  19  20
HETATM   20  C           1     -20.450  -7.764  -2.201  0.00  0.00     0.004 C 
BRANCH  20  21
HETATM   21  C           1     -21.628  -8.139  -1.313  0.00  0.00     0.027 C 
BRANCH  21  22
HETATM   22  C           1     -22.402  -6.882  -0.936  0.00  0.00     0.229 C 
BRANCH  22  23
HETATM   23  N           1     -22.340  -5.899  -2.067  0.00  0.00    -0.079 N 
HETATM   24  H           1     -23.298  -5.529  -2.261  0.00  0.00     0.274 HD
HETATM   25  H           1     -21.708  -5.108  -1.806  0.00  0.00     0.274 HD
HETATM   26  H           1     -21.970  -6.373  -2.921  0.00  0.00     0.274 HD
ENDBRANCH  22  23
ENDBRANCH  21  22
ENDBRANCH  20  21
ENDBRANCH  19  20
ENDBRANCH  18  19
BRANCH  18  27
HETATM   27  C           1     -20.998 -10.031  -4.835  0.00  0.00     0.196 C 
HETATM   28  O           1     -21.711 -10.639  -4.008  0.00  0.00    -0.646 OA
HETATM   29  O           1     -21.041 -10.341  -6.045  0.00  0.00    -0.646 OA
ENDBRANCH  18  27
ENDBRANCH   3  18
TORSDOF 11
ENDMDL
MODEL 9
REMARK VINA RESULT:      -5.8      8.678     11.078
REMARK  11 active torsions:
REMARK  status: ('A' for Active; 'I' for Inactive)
REMARK    1  A    between atoms: C_1  and  C_3 
REMARK    2  A    between atoms: C_1  and  C_18 
REMARK    3  A    between atoms: C_3  and  N_4 
REMARK    4  A    between atoms: C_9  and  C_10 
REMARK    5  A    between atoms: C_10  and  C_11 
REMARK    6  A    between atoms: C_11  and  C_12 
REMARK    7  A    between atoms: C_11  and  N_21 
REMARK       I    between atoms: C_12  and  N_17 
REMARK    8  A    between atoms: N_17  and  C_25 
REMARK    9  A    between atoms: C_18  and  C_22 
REMARK   10  A    between atoms: C_22  and  C_25 
REMARK   11  A    between atoms: C_25  and  C_26 
ROOT
HETATM    1  C           1     -29.416  -6.947 -17.511  0.00  0.00     0.249 C 
HETATM    2  O           1     -29.366  -8.135 -17.293  0.00  0.00    -0.271 OA
HETATM    3  N           1     -28.260  -6.237 -17.700  0.00  0.00    -0.345 N 
HETATM    4  H           1     -28.301  -5.243 -17.882  0.00  0.00     0.163 HD
ENDROOT
BRANCH   1   5
HETATM    5  C           1     -30.751  -6.246 -17.575  0.00  0.00     0.280 C 
BRANCH   5   6
HETATM    6  C           1     -30.846  -5.230 -16.446  0.00  0.00     0.101 C 
BRANCH   6   7
HETATM    7  C           1     -32.094  -4.419 -16.608  0.00  0.00     0.028 A 
HETATM    8  C           1     -32.326  -3.541 -17.640  0.00  0.00     0.114 A 
HETATM    9  N           1     -33.570  -3.027 -17.394  0.00  0.00    -0.360 N 
HETATM   10  H           1     -34.076  -2.318 -17.982  0.00  0.00     0.166 HD
HETATM   11  C           1     -34.032  -3.601 -16.245  0.00  0.00     0.180 A 
HETATM   12  N           1     -33.160  -4.448 -15.747  0.00  0.00    -0.355 N 
ATOM     13  HN          1     -33.256  -5.008 -14.900  1.00  0.00     0.166 HD
ENDBRANCH   6   7
ENDBRANCH   5   6
BRANCH   5  14
HETATM   14  N           1     -31.852  -7.255 -17.434  0.00  0.00    -0.066 N 
HETATM   15  H           1     -31.853  -7.889 -18.265  0.00  0.00     0.275 HD
HETATM   16  H           1     -31.699  -7.818 -16.567  0.00  0.00     0.275 HD
HETATM   17  H           1     -32.770  -6.760 -17.371  0.00  0.00     0.275 HD
ENDBRANCH   5  14
ENDBRANCH   1   5
BRANCH   3  18
HETATM   18  C           1     -26.977  -6.911 -17.637  0.00  0.00     0.185 C 
BRANCH  18  19
HETATM   19  C           1     -26.087  -6.416 -18.770  0.00  0.00     0.036 C 
BRANCH  19  20
HETATM   20  C           1     -26.701  -6.810 -20.107  0.00  0.00     0.004 C 
BRANCH  20  21
HETATM   21  C           1     -25.669  -7.558 -20.940  0.00  0.00     0.027 C 
BRANCH  21  22
HETATM   22  C           1     -24.365  -7.661 -20.161  0.00  0.00     0.229 C 
BRANCH  22  23
HETATM   23  N           1     -23.416  -8.566 -20.890  0.00  0.00    -0.079 N 
HETATM   24  H           1     -22.561  -8.030 -21.162  0.00  0.00     0.274 HD
HETATM   25  H           1     -23.146  -9.361 -20.268  0.00  0.00     0.274 HD
HETATM   26  H           1     -23.881  -8.937 -21.750  0.00  0.00     0.274 HD
ENDBRANCH  22  23
ENDBRANCH  21  22
ENDBRANCH  20  21
ENDBRANCH  19  20
ENDBRANCH  18  19
BRANCH  18  27
HETATM   27  C           1     -26.319  -6.612 -16.313  0.00  0.00     0.196 C 
HETATM   28  O           1     -26.558  -7.331 -15.319  0.00  0.00    -0.646 OA
HETATM   29  O           1     -25.533  -5.645 -16.210  0.00  0.00    -0.646 OA
ENDBRANCH  18  27
ENDBRANCH   3  18
TORSDOF 11
ENDMDL
