MODEL 1
REMARK VINA RESULT:      -8.0      0.000      0.000
REMARK  14 active torsions:
REMARK  status: ('A' for Active; 'I' for Inactive)
REMARK    1  A    between atoms: N_5  and  C_18 
REMARK    2  A    between atoms: O_10  and  P_11 
REMARK    3  A    between atoms: P_11  and  O_12 
REMARK    4  A    between atoms: O_12  and  C_13 
REMARK    5  A    between atoms: C_16  and  C_17 
REMARK    6  A    between atoms: C_17  and  C_18 
REMARK    7  A    between atoms: C_18  and  C_19 
REMARK       I    between atoms: C_19  and  N_20 
REMARK    8  A    between atoms: N_20  and  C_24 
REMARK    9  A    between atoms: C_23  and  C_24 
REMARK   10  A    between atoms: C_24  and  C_25 
REMARK   11  A    between atoms: C_25  and  C_26 
REMARK   12  A    between atoms: C_26  and  C_27 
REMARK   13  A    between atoms: C_27  and  C_28 
REMARK   14  A    between atoms: C_28  and  N_29 
ROOT
HETATM    1  C           1     -20.992  -5.471  -6.973  0.00  0.00     0.278 C 
ENDROOT
BRANCH   1   2
HETATM    2  N           1     -20.956  -4.219  -6.146  0.00  0.00    -0.066 N 
HETATM    3  H           1     -21.083  -3.388  -6.766  0.00  0.00     0.275 HD
HETATM    4  H           1     -21.724  -4.247  -5.440  0.00  0.00     0.275 HD
HETATM    5  H           1     -20.034  -4.152  -5.659  0.00  0.00     0.275 HD
ENDBRANCH   1   2
BRANCH   1   6
HETATM    6  C           1     -20.126  -5.286  -8.212  0.00  0.00     0.081 C 
BRANCH   6   7
HETATM    7  C           1     -20.898  -4.538  -9.255  0.00  0.00    -0.056 A 
HETATM    8  C           1     -20.291  -4.203 -10.465  0.00  0.00     0.010 A 
HETATM    9  C           1     -21.011  -3.507 -11.436  0.00  0.00     0.038 A 
HETATM   10  C           1     -22.337  -3.146 -11.198  0.00  0.00     0.081 A 
HETATM   11  C           1     -22.944  -3.481  -9.987  0.00  0.00     0.038 A 
HETATM   12  C           1     -22.224  -4.177  -9.015  0.00  0.00     0.010 A 
BRANCH  10  13
HETATM   13  O           1     -23.036  -2.469 -12.141  0.00  0.00    -0.247 OA
BRANCH  13  14
HETATM   14  P           1     -24.008  -3.314 -13.115  0.00  0.00     0.411 P 
HETATM   15  O           1     -23.706  -2.979 -14.525  0.00  0.00    -0.624 OA
HETATM   16  O           1     -25.418  -2.976 -12.817  0.00  0.00    -0.624 OA
BRANCH  14  17
HETATM   17  O           1     -23.771  -4.893 -12.875  0.00  0.00    -0.300 OA
HETATM   18  H           1     -22.850  -5.026 -13.020  0.00  0.00     0.223 HD
ENDBRANCH  14  17
ENDBRANCH  13  14
ENDBRANCH  10  13
ENDBRANCH   6   7
ENDBRANCH   1   6
BRANCH   1  19
HETATM   19  C           1     -20.466  -6.627  -6.158  0.00  0.00     0.249 C 
HETATM   20  O           1     -19.457  -7.197  -6.501  0.00  0.00    -0.271 OA
HETATM   21  N           1     -21.130  -7.029  -5.031  0.00  0.00    -0.345 N 
HETATM   22  H           1     -21.975  -6.551  -4.744  0.00  0.00     0.163 HD
BRANCH  21  23
HETATM   23  C           1     -20.624  -8.138  -4.248  0.00  0.00     0.185 C 
BRANCH  23  24
HETATM   24  C           1     -21.346  -9.403  -4.643  0.00  0.00     0.196 C 
HETATM   25  O           1     -21.130  -9.924  -5.759  0.00  0.00    -0.646 OA
HETATM   26  O           1     -22.161  -9.931  -3.855  0.00  0.00    -0.646 OA
ENDBRANCH  23  24
BRANCH  23  27
HETATM   27  C           1     -20.856  -7.865  -2.768  0.00  0.00     0.036 C 
BRANCH  27  28
HETATM   28  C           1     -21.531  -6.511  -2.601  0.00  0.00     0.004 C 
BRANCH  28  29
HETATM   29  C           1     -22.301  -6.485  -1.286  0.00  0.00     0.027 C 
BRANCH  29  30
HETATM   30  C           1     -22.286  -7.875  -0.662  0.00  0.00     0.229 C 
BRANCH  30  31
HETATM   31  N           1     -23.376  -7.974   0.362  0.00  0.00    -0.079 N 
HETATM   32  H           1     -22.960  -7.931   1.320  0.00  0.00     0.274 HD
HETATM   33  H           1     -23.885  -8.879   0.244  0.00  0.00     0.274 HD
HETATM   34  H           1     -24.045  -7.181   0.238  0.00  0.00     0.274 HD
ENDBRANCH  30  31
ENDBRANCH  29  30
ENDBRANCH  28  29
ENDBRANCH  27  28
ENDBRANCH  23  27
ENDBRANCH  21  23
ENDBRANCH   1  19
TORSDOF 14
ENDMDL
MODEL 2
REMARK VINA RESULT:      -8.0      1.318      1.637
REMARK  14 active torsions:
REMARK  status: ('A' for Active; 'I' for Inactive)
REMARK    1  A    between atoms: N_5  and  C_18 
REMARK    2  A    between atoms: O_10  and  P_11 
REMARK    3  A    between atoms: P_11  and  O_12 
REMARK    4  A    between atoms: O_12  and  C_13 
REMARK    5  A    between atoms: C_16  and  C_17 
REMARK    6  A    between atoms: C_17  and  C_18 
REMARK    7  A    between atoms: C_18  and  C_19 
REMARK       I    between atoms: C_19  and  N_20 
REMARK    8  A    between atoms: N_20  and  C_24 
REMARK    9  A    between atoms: C_23  and  C_24 
REMARK   10  A    between atoms: C_24  and  C_25 
REMARK   11  A    between atoms: C_25  and  C_26 
REMARK   12  A    between atoms: C_26  and  C_27 
REMARK   13  A    between atoms: C_27  and  C_28 
REMARK   14  A    between atoms: C_28  and  N_29 
ROOT
HETATM    1  C           1     -21.917  -4.607  -7.018  0.00  0.00     0.278 C 
ENDROOT
BRANCH   1   2
HETATM    2  N           1     -21.547  -3.156  -7.102  0.00  0.00    -0.066 N 
HETATM    3  H           1     -22.314  -2.627  -7.576  0.00  0.00     0.275 HD
HETATM    4  H           1     -21.405  -2.776  -6.140  0.00  0.00     0.275 HD
HETATM    5  H           1     -20.664  -3.054  -7.652  0.00  0.00     0.275 HD
ENDBRANCH   1   2
BRANCH   1   6
HETATM    6  C           1     -21.514  -5.309  -8.307  0.00  0.00     0.081 C 
BRANCH   6   7
HETATM    7  C           1     -21.830  -4.429  -9.476  0.00  0.00    -0.056 A 
HETATM    8  C           1     -20.814  -4.035 -10.347  0.00  0.00     0.010 A 
HETATM    9  C           1     -21.109  -3.215 -11.435  0.00  0.00     0.038 A 
HETATM   10  C           1     -22.419  -2.789 -11.654  0.00  0.00     0.081 A 
HETATM   11  C           1     -23.435  -3.183 -10.784  0.00  0.00     0.038 A 
HETATM   12  C           1     -23.140  -4.004  -9.694  0.00  0.00     0.010 A 
BRANCH  10  13
HETATM   13  O           1     -22.706  -1.992 -12.712  0.00  0.00    -0.247 OA
BRANCH  13  14
HETATM   14  P           1     -23.424  -2.663 -13.994  0.00  0.00     0.411 P 
HETATM   15  O           1     -24.307  -1.667 -14.642  0.00  0.00    -0.624 OA
HETATM   16  O           1     -24.228  -3.825 -13.555  0.00  0.00    -0.624 OA
BRANCH  14  17
HETATM   17  O           1     -22.301  -3.151 -15.046  0.00  0.00    -0.300 OA
HETATM   18  H           1     -22.785  -3.515 -15.768  0.00  0.00     0.223 HD
ENDBRANCH  14  17
ENDBRANCH  13  14
ENDBRANCH  10  13
ENDBRANCH   6   7
ENDBRANCH   1   6
BRANCH   1  19
HETATM   19  C           1     -21.198  -5.241  -5.851  0.00  0.00     0.249 C 
HETATM   20  O           1     -20.001  -5.119  -5.742  0.00  0.00    -0.271 OA
HETATM   21  N           1     -21.901  -5.955  -4.919  0.00  0.00    -0.345 N 
HETATM   22  H           1     -22.904  -6.057  -5.011  0.00  0.00     0.163 HD
BRANCH  21  23
HETATM   23  C           1     -21.211  -6.563  -3.799  0.00  0.00     0.185 C 
BRANCH  23  24
HETATM   24  C           1     -20.961  -8.021  -4.094  0.00  0.00     0.196 C 
HETATM   25  O           1     -21.925  -8.802  -4.249  0.00  0.00    -0.646 OA
HETATM   26  O           1     -19.789  -8.449  -4.186  0.00  0.00    -0.646 OA
ENDBRANCH  23  24
BRANCH  23  27
HETATM   27  C           1     -22.066  -6.439  -2.546  0.00  0.00     0.036 C 
BRANCH  27  28
HETATM   28  C           1     -21.461  -7.282  -1.432  0.00  0.00     0.004 C 
BRANCH  28  29
HETATM   29  C           1     -22.489  -7.476  -0.324  0.00  0.00     0.027 C 
BRANCH  29  30
HETATM   30  C           1     -22.625  -8.961  -0.013  0.00  0.00     0.229 C 
BRANCH  30  31
HETATM   31  N           1     -22.445  -9.754  -1.273  0.00  0.00    -0.079 N 
HETATM   32  H           1     -21.624  -9.385  -1.803  0.00  0.00     0.274 HD
HETATM   33  H           1     -23.305  -9.674  -1.861  0.00  0.00     0.274 HD
HETATM   34  H           1     -22.281 -10.758  -1.033  0.00  0.00     0.274 HD
ENDBRANCH  30  31
ENDBRANCH  29  30
ENDBRANCH  28  29
ENDBRANCH  27  28
ENDBRANCH  23  27
ENDBRANCH  21  23
ENDBRANCH   1  19
TORSDOF 14
ENDMDL
MODEL 3
REMARK VINA RESULT:      -7.9      1.783      2.484
REMARK  14 active torsions:
REMARK  status: ('A' for Active; 'I' for Inactive)
REMARK    1  A    between atoms: N_5  and  C_18 
REMARK    2  A    between atoms: O_10  and  P_11 
REMARK    3  A    between atoms: P_11  and  O_12 
REMARK    4  A    between atoms: O_12  and  C_13 
REMARK    5  A    between atoms: C_16  and  C_17 
REMARK    6  A    between atoms: C_17  and  C_18 
REMARK    7  A    between atoms: C_18  and  C_19 
REMARK       I    between atoms: C_19  and  N_20 
REMARK    8  A    between atoms: N_20  and  C_24 
REMARK    9  A    between atoms: C_23  and  C_24 
REMARK   10  A    between atoms: C_24  and  C_25 
REMARK   11  A    between atoms: C_25  and  C_26 
REMARK   12  A    between atoms: C_26  and  C_27 
REMARK   13  A    between atoms: C_27  and  C_28 
REMARK   14  A    between atoms: C_28  and  N_29 
ROOT
HETATM    1  C           1     -20.966  -4.916  -6.390  0.00  0.00     0.278 C 
ENDROOT
BRANCH   1   2
HETATM    2  N           1     -19.663  -4.487  -5.782  0.00  0.00    -0.066 N 
HETATM    3  H           1     -18.890  -5.080  -6.158  0.00  0.00     0.275 HD
HETATM    4  H           1     -19.482  -3.487  -6.019  0.00  0.00     0.275 HD
HETATM    5  H           1     -19.712  -4.596  -4.744  0.00  0.00     0.275 HD
ENDBRANCH   1   2
BRANCH   1   6
HETATM    6  C           1     -20.701  -5.612  -7.718  0.00  0.00     0.081 C 
BRANCH   6   7
HETATM    7  C           1     -21.270  -4.792  -8.835  0.00  0.00    -0.056 A 
HETATM    8  C           1     -22.598  -4.366  -8.780  0.00  0.00     0.010 A 
HETATM    9  C           1     -23.128  -3.603  -9.820  0.00  0.00     0.038 A 
HETATM   10  C           1     -22.331  -3.264 -10.913  0.00  0.00     0.081 A 
HETATM   11  C           1     -21.004  -3.690 -10.968  0.00  0.00     0.038 A 
HETATM   12  C           1     -20.473  -4.455  -9.928  0.00  0.00     0.010 A 
BRANCH  10  13
HETATM   13  O           1     -22.846  -2.523 -11.924  0.00  0.00    -0.247 OA
BRANCH  13  14
HETATM   14  P           1     -23.890  -3.234 -12.931  0.00  0.00     0.411 P 
HETATM   15  O           1     -23.631  -2.774 -14.314  0.00  0.00    -0.624 OA
HETATM   16  O           1     -25.271  -2.876 -12.541  0.00  0.00    -0.624 OA
BRANCH  14  17
HETATM   17  O           1     -23.706  -4.836 -12.853  0.00  0.00    -0.300 OA
HETATM   18  H           1     -23.646  -5.118 -13.751  0.00  0.00     0.223 HD
ENDBRANCH  14  17
ENDBRANCH  13  14
ENDBRANCH  10  13
ENDBRANCH   6   7
ENDBRANCH   1   6
BRANCH   1  19
HETATM   19  C           1     -21.668  -5.868  -5.453  0.00  0.00     0.249 C 
HETATM   20  O           1     -22.875  -5.941  -5.459  0.00  0.00    -0.271 OA
HETATM   21  N           1     -20.940  -6.649  -4.596  0.00  0.00    -0.345 N 
HETATM   22  H           1     -19.930  -6.588  -4.592  0.00  0.00     0.163 HD
BRANCH  21  23
HETATM   23  C           1     -21.615  -7.563  -3.697  0.00  0.00     0.185 C 
BRANCH  23  24
HETATM   24  C           1     -21.672  -6.959  -2.316  0.00  0.00     0.196 C 
HETATM   25  O           1     -21.023  -7.475  -1.380  0.00  0.00    -0.646 OA
HETATM   26  O           1     -22.369  -5.942  -2.106  0.00  0.00    -0.646 OA
ENDBRANCH  23  24
BRANCH  23  27
HETATM   27  C           1     -20.851  -8.879  -3.642  0.00  0.00     0.036 C 
BRANCH  27  28
HETATM   28  C           1     -21.740 -10.005  -4.154  0.00  0.00     0.004 C 
BRANCH  28  29
HETATM   29  C           1     -22.380 -10.725  -2.974  0.00  0.00     0.027 C 
BRANCH  29  30
HETATM   30  C           1     -21.340 -10.924  -1.878  0.00  0.00     0.229 C 
BRANCH  30  31
HETATM   31  N           1     -21.856 -10.352  -0.591  0.00  0.00    -0.079 N 
HETATM   32  H           1     -22.580 -10.990  -0.190  0.00  0.00     0.274 HD
HETATM   33  H           1     -22.280  -9.414  -0.772  0.00  0.00     0.274 HD
HETATM   34  H           1     -21.068 -10.252   0.087  0.00  0.00     0.274 HD
ENDBRANCH  30  31
ENDBRANCH  29  30
ENDBRANCH  28  29
ENDBRANCH  27  28
ENDBRANCH  23  27
ENDBRANCH  21  23
ENDBRANCH   1  19
TORSDOF 14
ENDMDL
MODEL 4
REMARK VINA RESULT:      -7.9      1.943      3.076
REMARK  14 active torsions:
REMARK  status: ('A' for Active; 'I' for Inactive)
REMARK    1  A    between atoms: N_5  and  C_18 
REMARK    2  A    between atoms: O_10  and  P_11 
REMARK    3  A    between atoms: P_11  and  O_12 
REMARK    4  A    between atoms: O_12  and  C_13 
REMARK    5  A    between atoms: C_16  and  C_17 
REMARK    6  A    between atoms: C_17  and  C_18 
REMARK    7  A    between atoms: C_18  and  C_19 
REMARK       I    between atoms: C_19  and  N_20 
REMARK    8  A    between atoms: N_20  and  C_24 
REMARK    9  A    between atoms: C_23  and  C_24 
REMARK   10  A    between atoms: C_24  and  C_25 
REMARK   11  A    between atoms: C_25  and  C_26 
REMARK   12  A    between atoms: C_26  and  C_27 
REMARK   13  A    between atoms: C_27  and  C_28 
REMARK   14  A    between atoms: C_28  and  N_29 
ROOT
HETATM    1  C           1     -21.052  -4.927  -6.310  0.00  0.00     0.278 C 
ENDROOT
BRANCH   1   2
HETATM    2  N           1     -19.774  -4.438  -5.695  0.00  0.00    -0.066 N 
HETATM    3  H           1     -19.257  -5.245  -5.278  0.00  0.00     0.275 HD
HETATM    4  H           1     -19.184  -3.988  -6.429  0.00  0.00     0.275 HD
HETATM    5  H           1     -19.993  -3.742  -4.947  0.00  0.00     0.275 HD
ENDBRANCH   1   2
BRANCH   1   6
HETATM    6  C           1     -20.748  -5.609  -7.637  0.00  0.00     0.081 C 
BRANCH   6   7
HETATM    7  C           1     -21.313  -4.795  -8.759  0.00  0.00    -0.056 A 
HETATM    8  C           1     -20.521  -4.493  -9.868  0.00  0.00     0.010 A 
HETATM    9  C           1     -21.047  -3.734 -10.913  0.00  0.00     0.038 A 
HETATM   10  C           1     -22.364  -3.278 -10.851  0.00  0.00     0.081 A 
HETATM   11  C           1     -23.155  -3.580  -9.742  0.00  0.00     0.038 A 
HETATM   12  C           1     -22.629  -4.339  -8.696  0.00  0.00     0.010 A 
BRANCH  10  13
HETATM   13  O           1     -22.875  -2.541 -11.867  0.00  0.00    -0.247 OA
BRANCH  13  14
HETATM   14  P           1     -23.891  -3.265 -12.892  0.00  0.00     0.411 P 
HETATM   15  O           1     -23.611  -2.803 -14.271  0.00  0.00    -0.624 OA
HETATM   16  O           1     -25.284  -2.924 -12.530  0.00  0.00    -0.624 OA
BRANCH  14  17
HETATM   17  O           1     -23.689  -4.865 -12.810  0.00  0.00    -0.300 OA
HETATM   18  H           1     -24.540  -5.228 -12.992  0.00  0.00     0.223 HD
ENDBRANCH  14  17
ENDBRANCH  13  14
ENDBRANCH  10  13
ENDBRANCH   6   7
ENDBRANCH   1   6
BRANCH   1  19
HETATM   19  C           1     -21.715  -5.911  -5.377  0.00  0.00     0.249 C 
HETATM   20  O           1     -22.920  -6.009  -5.360  0.00  0.00    -0.271 OA
HETATM   21  N           1     -20.953  -6.692  -4.550  0.00  0.00    -0.345 N 
HETATM   22  H           1     -19.945  -6.609  -4.565  0.00  0.00     0.163 HD
BRANCH  21  23
HETATM   23  C           1     -21.590  -7.636  -3.655  0.00  0.00     0.185 C 
BRANCH  23  24
HETATM   24  C           1     -21.520  -7.115  -2.241  0.00  0.00     0.196 C 
HETATM   25  O           1     -20.739  -7.641  -1.419  0.00  0.00    -0.646 OA
HETATM   26  O           1     -22.242  -6.155  -1.891  0.00  0.00    -0.646 OA
ENDBRANCH  23  24
BRANCH  23  27
HETATM   27  C           1     -20.874  -8.977  -3.736  0.00  0.00     0.036 C 
BRANCH  27  28
HETATM   28  C           1     -19.660  -8.851  -4.647  0.00  0.00     0.004 C 
BRANCH  28  29
HETATM   29  C           1     -18.417  -9.332  -3.908  0.00  0.00     0.027 C 
BRANCH  29  30
HETATM   30  C           1     -17.451  -9.967  -4.900  0.00  0.00     0.229 C 
BRANCH  30  31
HETATM   31  N           1     -17.972  -9.780  -6.294  0.00  0.00    -0.079 N 
HETATM   32  H           1     -17.181  -9.850  -6.974  0.00  0.00     0.274 HD
HETATM   33  H           1     -18.420  -8.840  -6.375  0.00  0.00     0.274 HD
HETATM   34  H           1     -18.678 -10.521  -6.505  0.00  0.00     0.274 HD
ENDBRANCH  30  31
ENDBRANCH  29  30
ENDBRANCH  28  29
ENDBRANCH  27  28
ENDBRANCH  23  27
ENDBRANCH  21  23
ENDBRANCH   1  19
TORSDOF 14
ENDMDL
MODEL 5
REMARK VINA RESULT:      -7.5      4.109      9.925
REMARK  14 active torsions:
REMARK  status: ('A' for Active; 'I' for Inactive)
REMARK    1  A    between atoms: N_5  and  C_18 
REMARK    2  A    between atoms: O_10  and  P_11 
REMARK    3  A    between atoms: P_11  and  O_12 
REMARK    4  A    between atoms: O_12  and  C_13 
REMARK    5  A    between atoms: C_16  and  C_17 
REMARK    6  A    between atoms: C_17  and  C_18 
REMARK    7  A    between atoms: C_18  and  C_19 
REMARK       I    between atoms: C_19  and  N_20 
REMARK    8  A    between atoms: N_20  and  C_24 
REMARK    9  A    between atoms: C_23  and  C_24 
REMARK   10  A    between atoms: C_24  and  C_25 
REMARK   11  A    between atoms: C_25  and  C_26 
REMARK   12  A    between atoms: C_26  and  C_27 
REMARK   13  A    between atoms: C_27  and  C_28 
REMARK   14  A    between atoms: C_28  and  N_29 
ROOT
HETATM    1  C           1     -21.082  -5.448  -6.346  0.00  0.00     0.278 C 
ENDROOT
BRANCH   1   2
HETATM    2  N           1     -20.058  -4.864  -5.419  0.00  0.00    -0.066 N 
HETATM    3  H           1     -19.151  -5.367  -5.540  0.00  0.00     0.275 HD
HETATM    4  H           1     -19.926  -3.852  -5.640  0.00  0.00     0.275 HD
HETATM    5  H           1     -20.384  -4.967  -4.432  0.00  0.00     0.275 HD
ENDBRANCH   1   2
BRANCH   1   6
HETATM    6  C           1     -22.284  -5.921  -5.541  0.00  0.00     0.081 C 
BRANCH   6   7
HETATM    7  C           1     -21.816  -6.743  -4.380  0.00  0.00    -0.056 A 
HETATM    8  C           1     -21.286  -8.016  -4.595  0.00  0.00     0.010 A 
HETATM    9  C           1     -20.850  -8.781  -3.514  0.00  0.00     0.038 A 
HETATM   10  C           1     -20.943  -8.274  -2.218  0.00  0.00     0.081 A 
HETATM   11  C           1     -21.473  -7.002  -2.002  0.00  0.00     0.038 A 
HETATM   12  C           1     -21.910  -6.236  -3.085  0.00  0.00     0.010 A 
BRANCH  10  13
HETATM   13  O           1     -20.519  -9.018  -1.167  0.00  0.00    -0.247 OA
BRANCH  13  14
HETATM   14  P           1     -21.576  -9.332   0.014  0.00  0.00     0.411 P 
HETATM   15  O           1     -21.672  -8.160   0.913  0.00  0.00    -0.624 OA
HETATM   16  O           1     -21.118 -10.509   0.784  0.00  0.00    -0.624 OA
BRANCH  14  17
HETATM   17  O           1     -23.025  -9.639  -0.628  0.00  0.00    -0.300 OA
HETATM   18  H           1     -23.092  -9.059  -1.368  0.00  0.00     0.223 HD
ENDBRANCH  14  17
ENDBRANCH  13  14
ENDBRANCH  10  13
ENDBRANCH   6   7
ENDBRANCH   1   6
BRANCH   1  19
HETATM   19  C           1     -21.521  -4.397  -7.337  0.00  0.00     0.249 C 
HETATM   20  O           1     -21.290  -3.230  -7.121  0.00  0.00    -0.271 OA
HETATM   21  N           1     -22.179  -4.764  -8.479  0.00  0.00    -0.345 N 
HETATM   22  H           1     -22.372  -5.741  -8.660  0.00  0.00     0.163 HD
BRANCH  21  23
HETATM   23  C           1     -22.599  -3.755  -9.430  0.00  0.00     0.185 C 
BRANCH  23  24
HETATM   24  C           1     -24.078  -3.895  -9.692  0.00  0.00     0.196 C 
HETATM   25  O           1     -24.536  -4.970 -10.137  0.00  0.00    -0.646 OA
HETATM   26  O           1     -24.848  -2.936  -9.463  0.00  0.00    -0.646 OA
ENDBRANCH  23  24
BRANCH  23  27
HETATM   27  C           1     -21.835  -3.935 -10.735  0.00  0.00     0.036 C 
BRANCH  27  28
HETATM   28  C           1     -22.068  -2.727 -11.632  0.00  0.00     0.004 C 
BRANCH  28  29
HETATM   29  C           1     -22.631  -3.188 -12.970  0.00  0.00     0.027 C 
BRANCH  29  30
HETATM   30  C           1     -24.036  -2.626 -13.150  0.00  0.00     0.229 C 
BRANCH  30  31
HETATM   31  N           1     -23.991  -1.466 -14.100  0.00  0.00    -0.079 N 
HETATM   32  H           1     -23.478  -1.745 -14.967  0.00  0.00     0.274 HD
HETATM   33  H           1     -23.500  -0.663 -13.648  0.00  0.00     0.274 HD
HETATM   34  H           1     -24.965  -1.182 -14.349  0.00  0.00     0.274 HD
ENDBRANCH  30  31
ENDBRANCH  29  30
ENDBRANCH  28  29
ENDBRANCH  27  28
ENDBRANCH  23  27
ENDBRANCH  21  23
ENDBRANCH   1  19
TORSDOF 14
ENDMDL
MODEL 6
REMARK VINA RESULT:      -7.5      1.381      1.842
REMARK  14 active torsions:
REMARK  status: ('A' for Active; 'I' for Inactive)
REMARK    1  A    between atoms: N_5  and  C_18 
REMARK    2  A    between atoms: O_10  and  P_11 
REMARK    3  A    between atoms: P_11  and  O_12 
REMARK    4  A    between atoms: O_12  and  C_13 
REMARK    5  A    between atoms: C_16  and  C_17 
REMARK    6  A    between atoms: C_17  and  C_18 
REMARK    7  A    between atoms: C_18  and  C_19 
REMARK       I    between atoms: C_19  and  N_20 
REMARK    8  A    between atoms: N_20  and  C_24 
REMARK    9  A    between atoms: C_23  and  C_24 
REMARK   10  A    between atoms: C_24  and  C_25 
REMARK   11  A    between atoms: C_25  and  C_26 
REMARK   12  A    between atoms: C_26  and  C_27 
REMARK   13  A    between atoms: C_27  and  C_28 
REMARK   14  A    between atoms: C_28  and  N_29 
ROOT
HETATM    1  C           1     -21.482  -6.527  -5.898  0.00  0.00     0.278 C 
ENDROOT
BRANCH   1   2
HETATM    2  N           1     -22.534  -6.130  -4.905  0.00  0.00    -0.066 N 
HETATM    3  H           1     -22.078  -5.741  -4.049  0.00  0.00     0.275 HD
HETATM    4  H           1     -23.155  -5.405  -5.328  0.00  0.00     0.275 HD
HETATM    5  H           1     -23.102  -6.968  -4.646  0.00  0.00     0.275 HD
ENDBRANCH   1   2
BRANCH   1   6
HETATM    6  C           1     -20.629  -5.315  -6.245  0.00  0.00     0.081 C 
BRANCH   6   7
HETATM    7  C           1     -21.070  -4.753  -7.561  0.00  0.00    -0.056 A 
HETATM    8  C           1     -20.230  -4.834  -8.671  0.00  0.00     0.010 A 
HETATM    9  C           1     -20.641  -4.311  -9.896  0.00  0.00     0.038 A 
HETATM   10  C           1     -21.893  -3.708 -10.013  0.00  0.00     0.081 A 
HETATM   11  C           1     -22.734  -3.627  -8.903  0.00  0.00     0.038 A 
HETATM   12  C           1     -22.322  -4.150  -7.676  0.00  0.00     0.010 A 
BRANCH  10  13
HETATM   13  O           1     -22.294  -3.199 -11.203  0.00  0.00    -0.247 OA
BRANCH  13  14
HETATM   14  P           1     -23.600  -3.842 -11.901  0.00  0.00     0.411 P 
HETATM   15  O           1     -24.814  -3.155 -11.403  0.00  0.00    -0.624 OA
HETATM   16  O           1     -23.676  -5.282 -11.570  0.00  0.00    -0.624 OA
BRANCH  14  17
HETATM   17  O           1     -23.499  -3.663 -13.502  0.00  0.00    -0.300 OA
HETATM   18  H           1     -22.577  -3.687 -13.693  0.00  0.00     0.223 HD
ENDBRANCH  14  17
ENDBRANCH  13  14
ENDBRANCH  10  13
ENDBRANCH   6   7
ENDBRANCH   1   6
BRANCH   1  19
HETATM   19  C           1     -20.609  -7.604  -5.300  0.00  0.00     0.249 C 
HETATM   20  O           1     -19.597  -7.944  -5.867  0.00  0.00    -0.271 OA
HETATM   21  N           1     -20.963  -8.195  -4.117  0.00  0.00    -0.345 N 
HETATM   22  H           1     -21.811  -7.910  -3.643  0.00  0.00     0.163 HD
BRANCH  21  23
HETATM   23  C           1     -20.125  -9.229  -3.544  0.00  0.00     0.185 C 
BRANCH  23  24
HETATM   24  C           1     -20.907 -10.515  -3.448  0.00  0.00     0.196 C 
HETATM   25  O           1     -21.779 -10.782  -4.303  0.00  0.00    -0.646 OA
HETATM   26  O           1     -20.684 -11.315  -2.513  0.00  0.00    -0.646 OA
ENDBRANCH  23  24
BRANCH  23  27
HETATM   27  C           1     -19.674  -8.805  -2.153  0.00  0.00     0.036 C 
BRANCH  27  28
HETATM   28  C           1     -20.703  -7.858  -1.551  0.00  0.00     0.004 C 
BRANCH  28  29
HETATM   29  C           1     -21.194  -8.417  -0.222  0.00  0.00     0.027 C 
BRANCH  29  30
HETATM   30  C           1     -22.653  -8.834  -0.354  0.00  0.00     0.229 C 
BRANCH  30  31
HETATM   31  N           1     -23.487  -8.044   0.610  0.00  0.00    -0.079 N 
HETATM   32  H           1     -23.556  -8.561   1.516  0.00  0.00     0.274 HD
HETATM   33  H           1     -24.444  -7.908   0.213  0.00  0.00     0.274 HD
HETATM   34  H           1     -23.043  -7.113   0.773  0.00  0.00     0.274 HD
ENDBRANCH  30  31
ENDBRANCH  29  30
ENDBRANCH  28  29
ENDBRANCH  27  28
ENDBRANCH  23  27
ENDBRANCH  21  23
ENDBRANCH   1  19
TORSDOF 14
ENDMDL
MODEL 7
REMARK VINA RESULT:      -7.0      2.187      3.689
REMARK  14 active torsions:
REMARK  status: ('A' for Active; 'I' for Inactive)
REMARK    1  A    between atoms: N_5  and  C_18 
REMARK    2  A    between atoms: O_10  and  P_11 
REMARK    3  A    between atoms: P_11  and  O_12 
REMARK    4  A    between atoms: O_12  and  C_13 
REMARK    5  A    between atoms: C_16  and  C_17 
REMARK    6  A    between atoms: C_17  and  C_18 
REMARK    7  A    between atoms: C_18  and  C_19 
REMARK       I    between atoms: C_19  and  N_20 
REMARK    8  A    between atoms: N_20  and  C_24 
REMARK    9  A    between atoms: C_23  and  C_24 
REMARK   10  A    between atoms: C_24  and  C_25 
REMARK   11  A    between atoms: C_25  and  C_26 
REMARK   12  A    between atoms: C_26  and  C_27 
REMARK   13  A    between atoms: C_27  and  C_28 
REMARK   14  A    between atoms: C_28  and  N_29 
ROOT
HETATM    1  C           1     -21.570  -6.751  -5.393  0.00  0.00     0.278 C 
ENDROOT
BRANCH   1   2
HETATM    2  N           1     -22.115  -6.045  -4.187  0.00  0.00    -0.066 N 
HETATM    3  H           1     -22.779  -6.675  -3.685  0.00  0.00     0.275 HD
HETATM    4  H           1     -21.329  -5.788  -3.550  0.00  0.00     0.275 HD
HETATM    5  H           1     -22.618  -5.180  -4.489  0.00  0.00     0.275 HD
ENDBRANCH   1   2
BRANCH   1   6
HETATM    6  C           1     -20.466  -5.909  -6.018  0.00  0.00     0.081 C 
BRANCH   6   7
HETATM    7  C           1     -21.007  -5.181  -7.210  0.00  0.00    -0.056 A 
HETATM    8  C           1     -20.228  -5.050  -8.360  0.00  0.00     0.010 A 
HETATM    9  C           1     -20.731  -4.371  -9.469  0.00  0.00     0.038 A 
HETATM   10  C           1     -22.014  -3.824  -9.430  0.00  0.00     0.081 A 
HETATM   11  C           1     -22.793  -3.955  -8.280  0.00  0.00     0.038 A 
HETATM   12  C           1     -22.289  -4.634  -7.169  0.00  0.00     0.010 A 
BRANCH  10  13
HETATM   13  O           1     -22.504  -3.165 -10.508  0.00  0.00    -0.247 OA
BRANCH  13  14
HETATM   14  P           1     -23.837  -3.746 -11.210  0.00  0.00     0.411 P 
HETATM   15  O           1     -25.028  -3.293 -10.456  0.00  0.00    -0.624 OA
HETATM   16  O           1     -23.787  -5.225 -11.214  0.00  0.00    -0.624 OA
BRANCH  14  17
HETATM   17  O           1     -23.925  -3.206 -12.729  0.00  0.00    -0.300 OA
HETATM   18  H           1     -23.029  -3.109 -13.005  0.00  0.00     0.223 HD
ENDBRANCH  14  17
ENDBRANCH  13  14
ENDBRANCH  10  13
ENDBRANCH   6   7
ENDBRANCH   1   6
BRANCH   1  19
HETATM   19  C           1     -21.011  -8.091  -4.981  0.00  0.00     0.249 C 
HETATM   20  O           1     -21.030  -9.018  -5.756  0.00  0.00    -0.271 OA
HETATM   21  N           1     -20.481  -8.256  -3.729  0.00  0.00    -0.345 N 
HETATM   22  H           1     -20.465  -7.480  -3.080  0.00  0.00     0.163 HD
BRANCH  21  23
HETATM   23  C           1     -19.944  -9.543  -3.334  0.00  0.00     0.185 C 
BRANCH  23  24
HETATM   24  C           1     -20.793 -10.125  -2.231  0.00  0.00     0.196 C 
HETATM   25  O           1     -20.391 -10.089  -1.047  0.00  0.00    -0.646 OA
HETATM   26  O           1     -21.899 -10.642  -2.499  0.00  0.00    -0.646 OA
ENDBRANCH  23  24
BRANCH  23  27
HETATM   27  C           1     -18.516  -9.367  -2.835  0.00  0.00     0.036 C 
BRANCH  27  28
HETATM   28  C           1     -17.663 -10.534  -3.312  0.00  0.00     0.004 C 
BRANCH  28  29
HETATM   29  C           1     -18.026 -10.875  -4.752  0.00  0.00     0.027 C 
BRANCH  29  30
HETATM   30  C           1     -17.168 -10.049  -5.701  0.00  0.00     0.229 C 
BRANCH  30  31
HETATM   31  N           1     -18.051  -9.181  -6.546  0.00  0.00    -0.079 N 
HETATM   32  H           1     -17.641  -9.093  -7.504  0.00  0.00     0.274 HD
HETATM   33  H           1     -18.128  -8.234  -6.112  0.00  0.00     0.274 HD
HETATM   34  H           1     -19.001  -9.611  -6.613  0.00  0.00     0.274 HD
ENDBRANCH  30  31
ENDBRANCH  29  30
ENDBRANCH  28  29
ENDBRANCH  27  28
ENDBRANCH  23  27
ENDBRANCH  21  23
ENDBRANCH   1  19
TORSDOF 14
ENDMDL
MODEL 8
REMARK VINA RESULT:      -6.8      1.998      2.672
REMARK  14 active torsions:
REMARK  status: ('A' for Active; 'I' for Inactive)
REMARK    1  A    between atoms: N_5  and  C_18 
REMARK    2  A    between atoms: O_10  and  P_11 
REMARK    3  A    between atoms: P_11  and  O_12 
REMARK    4  A    between atoms: O_12  and  C_13 
REMARK    5  A    between atoms: C_16  and  C_17 
REMARK    6  A    between atoms: C_17  and  C_18 
REMARK    7  A    between atoms: C_18  and  C_19 
REMARK       I    between atoms: C_19  and  N_20 
REMARK    8  A    between atoms: N_20  and  C_24 
REMARK    9  A    between atoms: C_23  and  C_24 
REMARK   10  A    between atoms: C_24  and  C_25 
REMARK   11  A    between atoms: C_25  and  C_26 
REMARK   12  A    between atoms: C_26  and  C_27 
REMARK   13  A    between atoms: C_27  and  C_28 
REMARK   14  A    between atoms: C_28  and  N_29 
ROOT
HETATM    1  C           1     -20.906  -5.488  -6.066  0.00  0.00     0.278 C 
ENDROOT
BRANCH   1   2
HETATM    2  N           1     -20.085  -4.479  -5.317  0.00  0.00    -0.066 N 
HETATM    3  H           1     -19.129  -4.429  -5.735  0.00  0.00     0.275 HD
HETATM    4  H           1     -20.543  -3.543  -5.380  0.00  0.00     0.275 HD
HETATM    5  H           1     -20.012  -4.767  -4.315  0.00  0.00     0.275 HD
ENDBRANCH   1   2
BRANCH   1   6
HETATM    6  C           1     -20.239  -5.796  -7.399  0.00  0.00     0.081 C 
BRANCH   6   7
HETATM    7  C           1     -20.876  -4.977  -8.479  0.00  0.00    -0.056 A 
HETATM    8  C           1     -22.141  -4.425  -8.280  0.00  0.00     0.010 A 
HETATM    9  C           1     -22.734  -3.662  -9.286  0.00  0.00     0.038 A 
HETATM   10  C           1     -22.062  -3.450 -10.489  0.00  0.00     0.081 A 
HETATM   11  C           1     -20.796  -4.002 -10.688  0.00  0.00     0.038 A 
HETATM   12  C           1     -20.203  -4.765  -9.681  0.00  0.00     0.010 A 
BRANCH  10  13
HETATM   13  O           1     -22.638  -2.708 -11.467  0.00  0.00    -0.247 OA
BRANCH  13  14
HETATM   14  P           1     -23.968  -3.290 -12.175  0.00  0.00     0.411 P 
HETATM   15  O           1     -23.774  -4.726 -12.482  0.00  0.00    -0.624 OA
HETATM   16  O           1     -24.223  -2.547 -13.429  0.00  0.00    -0.624 OA
BRANCH  14  17
HETATM   17  O           1     -25.227  -3.118 -11.181  0.00  0.00    -0.300 OA
HETATM   18  H           1     -24.945  -3.490 -10.362  0.00  0.00     0.223 HD
ENDBRANCH  14  17
ENDBRANCH  13  14
ENDBRANCH  10  13
ENDBRANCH   6   7
ENDBRANCH   1   6
BRANCH   1  19
HETATM   19  C           1     -21.014  -6.753  -5.251  0.00  0.00     0.249 C 
HETATM   20  O           1     -22.038  -7.006  -4.661  0.00  0.00    -0.271 OA
HETATM   21  N           1     -19.952  -7.614  -5.178  0.00  0.00    -0.345 N 
HETATM   22  H           1     -19.094  -7.402  -5.672  0.00  0.00     0.163 HD
BRANCH  21  23
HETATM   23  C           1     -20.056  -8.829  -4.395  0.00  0.00     0.185 C 
BRANCH  23  24
HETATM   24  C           1     -18.682  -9.251  -3.936  0.00  0.00     0.196 C 
HETATM   25  O           1     -17.843  -9.660  -4.767  0.00  0.00    -0.646 OA
HETATM   26  O           1     -18.382  -9.190  -2.723  0.00  0.00    -0.646 OA
ENDBRANCH  23  24
BRANCH  23  27
HETATM   27  C           1     -20.665  -9.933  -5.249  0.00  0.00     0.036 C 
BRANCH  27  28
HETATM   28  C           1     -21.183 -11.046  -4.347  0.00  0.00     0.004 C 
BRANCH  28  29
HETATM   29  C           1     -22.408 -10.556  -3.586  0.00  0.00     0.027 C 
BRANCH  29  30
HETATM   30  C           1     -22.868 -11.636  -2.615  0.00  0.00     0.229 C 
BRANCH  30  31
HETATM   31  N           1     -23.012 -11.046  -1.244  0.00  0.00    -0.079 N 
HETATM   32  H           1     -23.016 -10.002  -1.312  0.00  0.00     0.274 HD
HETATM   33  H           1     -22.213 -11.353  -0.645  0.00  0.00     0.274 HD
HETATM   34  H           1     -23.910 -11.369  -0.818  0.00  0.00     0.274 HD
ENDBRANCH  30  31
ENDBRANCH  29  30
ENDBRANCH  28  29
ENDBRANCH  27  28
ENDBRANCH  23  27
ENDBRANCH  21  23
ENDBRANCH   1  19
TORSDOF 14
ENDMDL
MODEL 9
REMARK VINA RESULT:      -6.7      2.168      3.452
REMARK  14 active torsions:
REMARK  status: ('A' for Active; 'I' for Inactive)
REMARK    1  A    between atoms: N_5  and  C_18 
REMARK    2  A    between atoms: O_10  and  P_11 
REMARK    3  A    between atoms: P_11  and  O_12 
REMARK    4  A    between atoms: O_12  and  C_13 
REMARK    5  A    between atoms: C_16  and  C_17 
REMARK    6  A    between atoms: C_17  and  C_18 
REMARK    7  A    between atoms: C_18  and  C_19 
REMARK       I    between atoms: C_19  and  N_20 
REMARK    8  A    between atoms: N_20  and  C_24 
REMARK    9  A    between atoms: C_23  and  C_24 
REMARK   10  A    between atoms: C_24  and  C_25 
REMARK   11  A    between atoms: C_25  and  C_26 
REMARK   12  A    between atoms: C_26  and  C_27 
REMARK   13  A    between atoms: C_27  and  C_28 
REMARK   14  A    between atoms: C_28  and  N_29 
ROOT
HETATM    1  C           1     -20.365  -6.500  -5.640  0.00  0.00     0.278 C 
ENDROOT
BRANCH   1   2
HETATM    2  N           1     -20.759  -7.074  -6.969  0.00  0.00    -0.066 N 
HETATM    3  H           1     -21.774  -6.894  -7.139  0.00  0.00     0.275 HD
HETATM    4  H           1     -20.195  -6.624  -7.723  0.00  0.00     0.275 HD
HETATM    5  H           1     -20.584  -8.104  -6.968  0.00  0.00     0.275 HD
ENDBRANCH   1   2
BRANCH   1   6
HETATM    6  C           1     -20.792  -5.041  -5.570  0.00  0.00     0.081 C 
BRANCH   6   7
HETATM    7  C           1     -21.209  -4.576  -6.932  0.00  0.00    -0.056 A 
HETATM    8  C           1     -22.556  -4.344  -7.207  0.00  0.00     0.010 A 
HETATM    9  C           1     -22.943  -3.911  -8.475  0.00  0.00     0.038 A 
HETATM   10  C           1     -21.984  -3.710  -9.467  0.00  0.00     0.081 A 
HETATM   11  C           1     -20.636  -3.942  -9.192  0.00  0.00     0.038 A 
HETATM   12  C           1     -20.249  -4.375  -7.923  0.00  0.00     0.010 A 
BRANCH  10  13
HETATM   13  O           1     -22.360  -3.289 -10.699  0.00  0.00    -0.247 OA
BRANCH  13  14
HETATM   14  P           1     -23.643  -3.994 -11.382  0.00  0.00     0.411 P 
HETATM   15  O           1     -24.860  -3.212 -11.065  0.00  0.00    -0.624 OA
HETATM   16  O           1     -23.787  -5.369 -10.855  0.00  0.00    -0.624 OA
BRANCH  14  17
HETATM   17  O           1     -23.440  -4.049 -12.982  0.00  0.00    -0.300 OA
HETATM   18  H           1     -24.239  -4.421 -13.317  0.00  0.00     0.223 HD
ENDBRANCH  14  17
ENDBRANCH  13  14
ENDBRANCH  10  13
ENDBRANCH   6   7
ENDBRANCH   1   6
BRANCH   1  19
HETATM   19  C           1     -21.043  -7.277  -4.537  0.00  0.00     0.249 C 
HETATM   20  O           1     -21.769  -8.204  -4.810  0.00  0.00    -0.271 OA
HETATM   21  N           1     -20.834  -6.933  -3.229  0.00  0.00    -0.345 N 
HETATM   22  H           1     -20.226  -6.158  -3.000  0.00  0.00     0.163 HD
BRANCH  21  23
HETATM   23  C           1     -21.484  -7.680  -2.170  0.00  0.00     0.185 C 
BRANCH  23  24
HETATM   24  C           1     -22.299  -6.739  -1.318  0.00  0.00     0.196 C 
HETATM   25  O           1     -22.403  -5.535  -1.639  0.00  0.00    -0.646 OA
HETATM   26  O           1     -22.871  -7.163  -0.290  0.00  0.00    -0.646 OA
ENDBRANCH  23  24
BRANCH  23  27
HETATM   27  C           1     -20.431  -8.362  -1.307  0.00  0.00     0.036 C 
BRANCH  27  28
HETATM   28  C           1     -20.078  -9.715  -1.909  0.00  0.00     0.004 C 
BRANCH  28  29
HETATM   29  C           1     -18.752  -9.612  -2.651  0.00  0.00     0.027 C 
BRANCH  29  30
HETATM   30  C           1     -18.756 -10.571  -3.834  0.00  0.00     0.229 C 
BRANCH  30  31
HETATM   31  N           1     -20.164 -10.773  -4.308  0.00  0.00    -0.079 N 
HETATM   32  H           1     -20.572 -11.615  -3.841  0.00  0.00     0.274 HD
HETATM   33  H           1     -20.167 -10.915  -5.343  0.00  0.00     0.274 HD
HETATM   34  H           1     -20.736  -9.932  -4.071  0.00  0.00     0.274 HD
ENDBRANCH  30  31
ENDBRANCH  29  30
ENDBRANCH  28  29
ENDBRANCH  27  28
ENDBRANCH  23  27
ENDBRANCH  21  23
ENDBRANCH   1  19
TORSDOF 14
ENDMDL
