MODEL 1
REMARK VINA RESULT:      -6.8      0.000      0.000
REMARK  10 active torsions:
REMARK  status: ('A' for Active; 'I' for Inactive)
REMARK    1  A    between atoms: C_1  and  C_20 
REMARK    2  A    between atoms: N_4  and  C_20 
REMARK       I    between atoms: N_4  and  C_5 
REMARK    3  A    between atoms: C_5  and  C_11 
REMARK       I    between atoms: N_6  and  C_16 
REMARK    4  A    between atoms: N_7  and  C_11 
REMARK    5  A    between atoms: C_10  and  C_18 
REMARK    6  A    between atoms: C_11  and  C_12 
REMARK    7  A    between atoms: C_12  and  C_13 
REMARK    8  A    between atoms: C_13  and  C_14 
REMARK    9  A    between atoms: C_14  and  N_17 
REMARK       I    between atoms: N_15  and  C_16 
REMARK   10  A    between atoms: C_18  and  C_20 
ROOT
HETATM    1  C           1     -21.263  -5.789  -6.861  0.00  0.00     0.274 C 
ENDROOT
BRANCH   1   2
HETATM    2  C           1     -21.789  -4.662  -7.715  0.00  0.00     0.249 C 
HETATM    3  N           1     -22.379  -4.935  -8.920  0.00  0.00    -0.344 N 
HETATM    4  H           1     -22.462  -5.892  -9.239  0.00  0.00     0.163 HD
HETATM    5  O           1     -21.691  -3.519  -7.337  0.00  0.00    -0.271 OA
BRANCH   3   6
HETATM    6  C           1     -22.885  -3.852  -9.742  0.00  0.00     0.189 C 
BRANCH   6   7
HETATM    7  C           1     -24.392  -3.820  -9.658  0.00  0.00     0.197 C 
HETATM    8  O           1     -25.049  -4.871  -9.814  0.00  0.00    -0.646 OA
HETATM    9  O           1     -24.982  -2.741  -9.432  0.00  0.00    -0.646 OA
ENDBRANCH   6   7
BRANCH   6  10
HETATM   10  C           1     -22.462  -4.073 -11.188  0.00  0.00     0.014 C 
HETATM   11  C           1     -22.802  -2.836 -12.010  0.00  0.00     0.012 C 
BRANCH  10  12
HETATM   12  C           1     -20.960  -4.323 -11.244  0.00  0.00     0.002 C 
HETATM   13  C           1     -20.219  -2.997 -11.128  0.00  0.00     0.005 C 
ENDBRANCH  10  12
ENDBRANCH   6  10
ENDBRANCH   3   6
ENDBRANCH   1   2
BRANCH   1  14
HETATM   14  N           1     -19.958  -6.272  -7.421  0.00  0.00    -0.067 N 
HETATM   15  H           1     -19.172  -5.900  -6.842  0.00  0.00     0.275 HD
HETATM   16  H           1     -19.938  -7.317  -7.406  0.00  0.00     0.275 HD
HETATM   17  H           1     -19.855  -5.935  -8.404  0.00  0.00     0.275 HD
ENDBRANCH   1  14
BRANCH   1  18
HETATM   18  C           1     -21.051  -5.291  -5.437  0.00  0.00     0.044 C 
BRANCH  18  19
HETATM   19  C           1     -21.751  -6.230  -4.462  0.00  0.00     0.023 C 
BRANCH  19  20
HETATM   20  C           1     -21.167  -6.041  -3.069  0.00  0.00     0.138 C 
BRANCH  20  21
HETATM   21  N           1     -22.195  -6.344  -2.061  0.00  0.00    -0.227 N 
HETATM   22  C           1     -21.988  -7.248  -1.200  0.00  0.00     0.665 C 
HETATM   23  N           1     -20.868  -7.908  -1.205  0.00  0.00    -0.235 N 
HETATM   24  N           1     -22.872  -7.510  -0.331  0.00  0.00    -0.235 N 
HETATM   25  H           1     -20.696  -8.655  -0.493  0.00  0.00     0.174 HD
HETATM   26  H           1     -20.137  -7.692  -1.921  0.00  0.00     0.174 HD
HETATM   27  H           1     -22.701  -8.260   0.384  0.00  0.00     0.174 HD
HETATM   28  H           1     -23.777  -6.977  -0.327  0.00  0.00     0.174 HD
HETATM   29  H           1     -23.098  -5.812  -2.057  0.00  0.00     0.177 HD
ENDBRANCH  20  21
ENDBRANCH  19  20
ENDBRANCH  18  19
ENDBRANCH   1  18
TORSDOF 10
ENDMDL
MODEL 2
REMARK VINA RESULT:      -6.7      3.073      8.266
REMARK  10 active torsions:
REMARK  status: ('A' for Active; 'I' for Inactive)
REMARK    1  A    between atoms: C_1  and  C_20 
REMARK    2  A    between atoms: N_4  and  C_20 
REMARK       I    between atoms: N_4  and  C_5 
REMARK    3  A    between atoms: C_5  and  C_11 
REMARK       I    between atoms: N_6  and  C_16 
REMARK    4  A    between atoms: N_7  and  C_11 
REMARK    5  A    between atoms: C_10  and  C_18 
REMARK    6  A    between atoms: C_11  and  C_12 
REMARK    7  A    between atoms: C_12  and  C_13 
REMARK    8  A    between atoms: C_13  and  C_14 
REMARK    9  A    between atoms: C_14  and  N_17 
REMARK       I    between atoms: N_15  and  C_16 
REMARK   10  A    between atoms: C_18  and  C_20 
ROOT
HETATM    1  C           1     -21.859  -5.044  -7.622  0.00  0.00     0.274 C 
ENDROOT
BRANCH   1   2
HETATM    2  C           1     -20.956  -5.737  -6.632  0.00  0.00     0.249 C 
HETATM    3  N           1     -21.457  -6.718  -5.819  0.00  0.00    -0.344 N 
HETATM    4  H           1     -22.433  -6.978  -5.881  0.00  0.00     0.163 HD
HETATM    5  O           1     -19.791  -5.428  -6.557  0.00  0.00    -0.271 OA
BRANCH   3   6
HETATM    6  C           1     -20.590  -7.384  -4.867  0.00  0.00     0.189 C 
BRANCH   6   7
HETATM    7  C           1     -20.150  -8.712  -5.432  0.00  0.00     0.197 C 
HETATM    8  O           1     -20.998  -9.595  -5.687  0.00  0.00    -0.646 OA
HETATM    9  O           1     -18.938  -8.930  -5.645  0.00  0.00    -0.646 OA
ENDBRANCH   6   7
BRANCH   6  10
HETATM   10  C           1     -21.347  -7.612  -3.565  0.00  0.00     0.014 C 
HETATM   11  C           1     -20.418  -8.261  -2.547  0.00  0.00     0.012 C 
BRANCH  10  12
HETATM   12  C           1     -21.839  -6.275  -3.024  0.00  0.00     0.002 C 
HETATM   13  C           1     -22.229  -6.431  -1.560  0.00  0.00     0.005 C 
ENDBRANCH  10  12
ENDBRANCH   6  10
ENDBRANCH   3   6
ENDBRANCH   1   2
BRANCH   1  14
HETATM   14  N           1     -23.009  -4.414  -6.894  0.00  0.00    -0.067 N 
HETATM   15  H           1     -23.153  -4.903  -5.982  0.00  0.00     0.275 HD
HETATM   16  H           1     -22.799  -3.405  -6.719  0.00  0.00     0.275 HD
HETATM   17  H           1     -23.874  -4.495  -7.473  0.00  0.00     0.275 HD
ENDBRANCH   1  14
BRANCH   1  18
HETATM   18  C           1     -21.074  -3.968  -8.360  0.00  0.00     0.044 C 
BRANCH  18  19
HETATM   19  C           1     -20.898  -4.376  -9.817  0.00  0.00     0.023 C 
BRANCH  19  20
HETATM   20  C           1     -22.253  -4.373 -10.512  0.00  0.00     0.138 C 
BRANCH  20  21
HETATM   21  N           1     -22.059  -4.301 -11.968  0.00  0.00    -0.227 N 
HETATM   22  C           1     -22.499  -3.307 -12.617  0.00  0.00     0.665 C 
HETATM   23  N           1     -23.122  -2.350 -11.997  0.00  0.00    -0.235 N 
HETATM   24  N           1     -22.331  -3.245 -13.870  0.00  0.00    -0.235 N 
HETATM   25  H           1     -23.485  -1.528 -12.532  0.00  0.00     0.174 HD
HETATM   26  H           1     -23.260  -2.400 -10.961  0.00  0.00     0.174 HD
HETATM   27  H           1     -22.696  -2.421 -14.409  0.00  0.00     0.174 HD
HETATM   28  H           1     -21.827  -4.019 -14.371  0.00  0.00     0.174 HD
HETATM   29  H           1     -21.556  -5.074 -12.468  0.00  0.00     0.177 HD
ENDBRANCH  20  21
ENDBRANCH  19  20
ENDBRANCH  18  19
ENDBRANCH   1  18
TORSDOF 10
ENDMDL
MODEL 3
REMARK VINA RESULT:      -6.6      3.143      7.816
REMARK  10 active torsions:
REMARK  status: ('A' for Active; 'I' for Inactive)
REMARK    1  A    between atoms: C_1  and  C_20 
REMARK    2  A    between atoms: N_4  and  C_20 
REMARK       I    between atoms: N_4  and  C_5 
REMARK    3  A    between atoms: C_5  and  C_11 
REMARK       I    between atoms: N_6  and  C_16 
REMARK    4  A    between atoms: N_7  and  C_11 
REMARK    5  A    between atoms: C_10  and  C_18 
REMARK    6  A    between atoms: C_11  and  C_12 
REMARK    7  A    between atoms: C_12  and  C_13 
REMARK    8  A    between atoms: C_13  and  C_14 
REMARK    9  A    between atoms: C_14  and  N_17 
REMARK       I    between atoms: N_15  and  C_16 
REMARK   10  A    between atoms: C_18  and  C_20 
ROOT
HETATM    1  C           1     -20.455  -5.164  -6.378  0.00  0.00     0.274 C 
ENDROOT
BRANCH   1   2
HETATM    2  C           1     -21.316  -5.969  -5.438  0.00  0.00     0.249 C 
HETATM    3  N           1     -20.735  -6.813  -4.530  0.00  0.00    -0.344 N 
HETATM    4  H           1     -19.727  -6.897  -4.490  0.00  0.00     0.163 HD
HETATM    5  O           1     -22.519  -5.870  -5.485  0.00  0.00    -0.271 OA
BRANCH   3   6
HETATM    6  C           1     -21.563  -7.588  -3.626  0.00  0.00     0.189 C 
BRANCH   6   7
HETATM    7  C           1     -21.625  -6.898  -2.286  0.00  0.00     0.197 C 
HETATM    8  O           1     -21.050  -7.401  -1.297  0.00  0.00    -0.646 OA
HETATM    9  O           1     -22.251  -5.823  -2.165  0.00  0.00    -0.646 OA
ENDBRANCH   6   7
BRANCH   6  10
HETATM   10  C           1     -20.963  -8.978  -3.455  0.00  0.00     0.014 C 
HETATM   11  C           1     -21.867 -10.005  -4.123  0.00  0.00     0.012 C 
BRANCH  10  12
HETATM   12  C           1     -19.584  -9.018  -4.101  0.00  0.00     0.002 C 
HETATM   13  C           1     -18.540  -9.369  -3.049  0.00  0.00     0.005 C 
ENDBRANCH  10  12
ENDBRANCH   6  10
ENDBRANCH   3   6
ENDBRANCH   1   2
BRANCH   1  14
HETATM   14  N           1     -19.979  -6.043  -7.497  0.00  0.00    -0.067 N 
HETATM   15  H           1     -20.749  -6.689  -7.783  0.00  0.00     0.275 HD
HETATM   16  H           1     -19.701  -5.450  -8.311  0.00  0.00     0.275 HD
HETATM   17  H           1     -19.158  -6.601  -7.174  0.00  0.00     0.275 HD
ENDBRANCH   1  14
BRANCH   1  18
HETATM   18  C           1     -21.268  -4.009  -6.950  0.00  0.00     0.044 C 
BRANCH  18  19
HETATM   19  C           1     -21.614  -4.304  -8.404  0.00  0.00     0.023 C 
BRANCH  19  20
HETATM   20  C           1     -23.087  -4.005  -8.645  0.00  0.00     0.138 C 
BRANCH  20  21
HETATM   21  N           1     -23.297  -3.685 -10.065  0.00  0.00    -0.227 N 
HETATM   22  C           1     -24.470  -3.508 -10.507  0.00  0.00     0.665 C 
HETATM   23  N           1     -25.489  -3.609  -9.706  0.00  0.00    -0.235 N 
HETATM   24  N           1     -24.652  -3.232 -11.729  0.00  0.00    -0.235 N 
HETATM   25  H           1     -26.458  -3.463 -10.071  0.00  0.00     0.174 HD
HETATM   26  H           1     -25.340  -3.837  -8.696  0.00  0.00     0.174 HD
HETATM   27  H           1     -25.624  -3.085 -12.097  0.00  0.00     0.174 HD
HETATM   28  H           1     -23.828  -3.150 -12.377  0.00  0.00     0.174 HD
HETATM   29  H           1     -22.475  -3.603 -10.711  0.00  0.00     0.177 HD
ENDBRANCH  20  21
ENDBRANCH  19  20
ENDBRANCH  18  19
ENDBRANCH   1  18
TORSDOF 10
ENDMDL
MODEL 4
REMARK VINA RESULT:      -6.2      3.460      7.982
REMARK  10 active torsions:
REMARK  status: ('A' for Active; 'I' for Inactive)
REMARK    1  A    between atoms: C_1  and  C_20 
REMARK    2  A    between atoms: N_4  and  C_20 
REMARK       I    between atoms: N_4  and  C_5 
REMARK    3  A    between atoms: C_5  and  C_11 
REMARK       I    between atoms: N_6  and  C_16 
REMARK    4  A    between atoms: N_7  and  C_11 
REMARK    5  A    between atoms: C_10  and  C_18 
REMARK    6  A    between atoms: C_11  and  C_12 
REMARK    7  A    between atoms: C_12  and  C_13 
REMARK    8  A    between atoms: C_13  and  C_14 
REMARK    9  A    between atoms: C_14  and  N_17 
REMARK       I    between atoms: N_15  and  C_16 
REMARK   10  A    between atoms: C_18  and  C_20 
ROOT
HETATM    1  C           1     -21.095  -5.522  -5.709  0.00  0.00     0.274 C 
ENDROOT
BRANCH   1   2
HETATM    2  C           1     -20.441  -6.876  -5.602  0.00  0.00     0.249 C 
HETATM    3  N           1     -20.721  -7.690  -4.538  0.00  0.00    -0.344 N 
HETATM    4  H           1     -21.368  -7.382  -3.822  0.00  0.00     0.163 HD
HETATM    5  O           1     -19.669  -7.245  -6.456  0.00  0.00    -0.271 OA
BRANCH   3   6
HETATM    6  C           1     -20.092  -8.992  -4.434  0.00  0.00     0.189 C 
BRANCH   6   7
HETATM    7  C           1     -21.046 -10.051  -4.931  0.00  0.00     0.197 C 
HETATM    8  O           1     -21.076 -10.346  -6.144  0.00  0.00    -0.646 OA
HETATM    9  O           1     -21.807 -10.633  -4.127  0.00  0.00    -0.646 OA
ENDBRANCH   6   7
BRANCH   6  10
HETATM   10  C           1     -19.738  -9.270  -2.979  0.00  0.00     0.014 C 
HETATM   11  C           1     -18.225  -9.358  -2.834  0.00  0.00     0.012 C 
BRANCH  10  12
HETATM   12  C           1     -20.268  -8.141  -2.104  0.00  0.00     0.002 C 
HETATM   13  C           1     -21.302  -8.693  -1.132  0.00  0.00     0.005 C 
ENDBRANCH  10  12
ENDBRANCH   6  10
ENDBRANCH   3   6
ENDBRANCH   1   2
BRANCH   1  14
HETATM   14  N           1     -20.078  -4.453  -5.435  0.00  0.00    -0.067 N 
HETATM   15  H           1     -20.439  -3.813  -4.692  0.00  0.00     0.275 HD
HETATM   16  H           1     -19.188  -4.894  -5.113  0.00  0.00     0.275 HD
HETATM   17  H           1     -19.903  -3.908  -6.308  0.00  0.00     0.275 HD
ENDBRANCH   1  14
BRANCH   1  18
HETATM   18  C           1     -21.658  -5.338  -7.113  0.00  0.00     0.044 C 
BRANCH  18  19
HETATM   19  C           1     -21.712  -3.853  -7.447  0.00  0.00     0.023 C 
BRANCH  19  20
HETATM   20  C           1     -22.261  -3.670  -8.856  0.00  0.00     0.138 C 
BRANCH  20  21
HETATM   21  N           1     -23.710  -3.428  -8.791  0.00  0.00    -0.227 N 
HETATM   22  C           1     -24.456  -3.793  -9.746  0.00  0.00     0.665 C 
HETATM   23  N           1     -23.942  -4.383 -10.784  0.00  0.00    -0.235 N 
HETATM   24  N           1     -25.704  -3.586  -9.690  0.00  0.00    -0.235 N 
HETATM   25  H           1     -24.558  -4.685 -11.573  0.00  0.00     0.174 HD
HETATM   26  H           1     -22.911  -4.555 -10.830  0.00  0.00     0.174 HD
HETATM   27  H           1     -26.323  -3.888 -10.482  0.00  0.00     0.174 HD
HETATM   28  H           1     -26.120  -3.109  -8.851  0.00  0.00     0.174 HD
HETATM   29  H           1     -24.125  -2.952  -7.953  0.00  0.00     0.177 HD
ENDBRANCH  20  21
ENDBRANCH  19  20
ENDBRANCH  18  19
ENDBRANCH   1  18
TORSDOF 10
ENDMDL
MODEL 5
REMARK VINA RESULT:      -5.9      3.700      8.242
REMARK  10 active torsions:
REMARK  status: ('A' for Active; 'I' for Inactive)
REMARK    1  A    between atoms: C_1  and  C_20 
REMARK    2  A    between atoms: N_4  and  C_20 
REMARK       I    between atoms: N_4  and  C_5 
REMARK    3  A    between atoms: C_5  and  C_11 
REMARK       I    between atoms: N_6  and  C_16 
REMARK    4  A    between atoms: N_7  and  C_11 
REMARK    5  A    between atoms: C_10  and  C_18 
REMARK    6  A    between atoms: C_11  and  C_12 
REMARK    7  A    between atoms: C_12  and  C_13 
REMARK    8  A    between atoms: C_13  and  C_14 
REMARK    9  A    between atoms: C_14  and  N_17 
REMARK       I    between atoms: N_15  and  C_16 
REMARK   10  A    between atoms: C_18  and  C_20 
ROOT
HETATM    1  C           1     -21.332  -6.754  -5.819  0.00  0.00     0.274 C 
ENDROOT
BRANCH   1   2
HETATM    2  C           1     -20.804  -7.875  -4.959  0.00  0.00     0.249 C 
HETATM    3  N           1     -21.597  -8.424  -3.988  0.00  0.00    -0.344 N 
HETATM    4  H           1     -22.538  -8.078  -3.846  0.00  0.00     0.163 HD
HETATM    5  O           1     -19.682  -8.290  -5.127  0.00  0.00    -0.271 OA
BRANCH   3   6
HETATM    6  C           1     -21.090  -9.502  -3.160  0.00  0.00     0.189 C 
BRANCH   6   7
HETATM    7  C           1     -21.680 -10.811  -3.625  0.00  0.00     0.197 C 
HETATM    8  O           1     -20.940 -11.692  -4.111  0.00  0.00    -0.646 OA
HETATM    9  O           1     -22.910 -11.014  -3.523  0.00  0.00    -0.646 OA
ENDBRANCH   6   7
BRANCH   6  10
HETATM   10  C           1     -21.483  -9.255  -1.709  0.00  0.00     0.014 C 
HETATM   11  C           1     -20.681 -10.180  -0.804  0.00  0.00     0.012 C 
BRANCH  10  12
HETATM   12  C           1     -21.188  -7.805  -1.345  0.00  0.00     0.002 C 
HETATM   13  C           1     -22.381  -7.213  -0.607  0.00  0.00     0.005 C 
ENDBRANCH  10  12
ENDBRANCH   6  10
ENDBRANCH   3   6
ENDBRANCH   1   2
BRANCH   1  14
HETATM   14  N           1     -22.452  -6.060  -5.103  0.00  0.00    -0.067 N 
HETATM   15  H           1     -22.462  -6.358  -4.102  0.00  0.00     0.275 HD
HETATM   16  H           1     -22.312  -5.026  -5.157  0.00  0.00     0.275 HD
HETATM   17  H           1     -23.361  -6.313  -5.551  0.00  0.00     0.275 HD
ENDBRANCH   1  14
BRANCH   1  18
HETATM   18  C           1     -20.214  -5.758  -6.099  0.00  0.00     0.044 C 
BRANCH  18  19
HETATM   19  C           1     -20.817  -4.410  -6.474  0.00  0.00     0.023 C 
BRANCH  19  20
HETATM   20  C           1     -21.357  -4.475  -7.896  0.00  0.00     0.138 C 
BRANCH  20  21
HETATM   21  N           1     -22.668  -3.810  -7.953  0.00  0.00    -0.227 N 
HETATM   22  C           1     -23.403  -3.947  -8.976  0.00  0.00     0.665 C 
HETATM   23  N           1     -22.999  -4.674  -9.974  0.00  0.00    -0.235 N 
HETATM   24  N           1     -24.532  -3.375  -9.025  0.00  0.00    -0.235 N 
HETATM   25  H           1     -23.605  -4.787 -10.819  0.00  0.00     0.174 HD
HETATM   26  H           1     -22.067  -5.146  -9.934  0.00  0.00     0.174 HD
HETATM   27  H           1     -25.141  -3.488  -9.872  0.00  0.00     0.174 HD
HETATM   28  H           1     -24.858  -2.788  -8.217  0.00  0.00     0.174 HD
HETATM   29  H           1     -22.994  -3.224  -7.147  0.00  0.00     0.177 HD
ENDBRANCH  20  21
ENDBRANCH  19  20
ENDBRANCH  18  19
ENDBRANCH   1  18
TORSDOF 10
ENDMDL
MODEL 6
REMARK VINA RESULT:      -5.9      3.354      8.220
REMARK  10 active torsions:
REMARK  status: ('A' for Active; 'I' for Inactive)
REMARK    1  A    between atoms: C_1  and  C_20 
REMARK    2  A    between atoms: N_4  and  C_20 
REMARK       I    between atoms: N_4  and  C_5 
REMARK    3  A    between atoms: C_5  and  C_11 
REMARK       I    between atoms: N_6  and  C_16 
REMARK    4  A    between atoms: N_7  and  C_11 
REMARK    5  A    between atoms: C_10  and  C_18 
REMARK    6  A    between atoms: C_11  and  C_12 
REMARK    7  A    between atoms: C_12  and  C_13 
REMARK    8  A    between atoms: C_13  and  C_14 
REMARK    9  A    between atoms: C_14  and  N_17 
REMARK       I    between atoms: N_15  and  C_16 
REMARK   10  A    between atoms: C_18  and  C_20 
ROOT
HETATM    1  C           1     -20.135  -7.051  -5.318  0.00  0.00     0.274 C 
ENDROOT
BRANCH   1   2
HETATM    2  C           1     -21.219  -7.489  -4.365  0.00  0.00     0.249 C 
HETATM    3  N           1     -20.889  -7.946  -3.117  0.00  0.00    -0.344 N 
HETATM    4  H           1     -19.919  -7.991  -2.834  0.00  0.00     0.163 HD
HETATM    5  O           1     -22.378  -7.437  -4.701  0.00  0.00    -0.271 OA
BRANCH   3   6
HETATM    6  C           1     -21.931  -8.368  -2.200  0.00  0.00     0.189 C 
BRANCH   6   7
HETATM    7  C           1     -22.034  -7.375  -1.068  0.00  0.00     0.197 C 
HETATM    8  O           1     -22.433  -6.212  -1.290  0.00  0.00    -0.646 OA
HETATM    9  O           1     -21.721  -7.717   0.093  0.00  0.00    -0.646 OA
ENDBRANCH   6   7
BRANCH   6  10
HETATM   10  C           1     -21.588  -9.742  -1.641  0.00  0.00     0.014 C 
HETATM   11  C           1     -22.487 -10.789  -2.285  0.00  0.00     0.012 C 
BRANCH  10  12
HETATM   12  C           1     -20.131 -10.065  -1.947  0.00  0.00     0.002 C 
HETATM   13  C           1     -19.624 -11.112  -0.963  0.00  0.00     0.005 C 
ENDBRANCH  10  12
ENDBRANCH   6  10
ENDBRANCH   3   6
ENDBRANCH   1   2
BRANCH   1  14
HETATM   14  N           1     -19.474  -8.260  -5.912  0.00  0.00    -0.067 N 
HETATM   15  H           1     -19.259  -8.080  -6.918  0.00  0.00     0.275 HD
HETATM   16  H           1     -18.588  -8.461  -5.396  0.00  0.00     0.275 HD
HETATM   17  H           1     -20.116  -9.080  -5.835  0.00  0.00     0.275 HD
ENDBRANCH   1  14
BRANCH   1  18
HETATM   18  C           1     -20.746  -6.209  -6.430  0.00  0.00     0.044 C 
BRANCH  18  19
HETATM   19  C           1     -20.476  -4.735  -6.157  0.00  0.00     0.023 C 
BRANCH  19  20
HETATM   20  C           1     -20.832  -3.917  -7.391  0.00  0.00     0.138 C 
BRANCH  20  21
HETATM   21  N           1     -22.291  -3.748  -7.464  0.00  0.00    -0.227 N 
HETATM   22  C           1     -22.898  -3.956  -8.555  0.00  0.00     0.665 C 
HETATM   23  N           1     -22.233  -4.319  -9.611  0.00  0.00    -0.235 N 
HETATM   24  N           1     -24.155  -3.811  -8.619  0.00  0.00    -0.235 N 
HETATM   25  H           1     -22.734  -4.492 -10.512  0.00  0.00     0.174 HD
HETATM   26  H           1     -21.195  -4.440  -9.559  0.00  0.00     0.174 HD
HETATM   27  H           1     -24.659  -3.983  -9.523  0.00  0.00     0.174 HD
HETATM   28  H           1     -24.693  -3.517  -7.765  0.00  0.00     0.174 HD
HETATM   29  H           1     -22.828  -3.455  -6.612  0.00  0.00     0.177 HD
ENDBRANCH  20  21
ENDBRANCH  19  20
ENDBRANCH  18  19
ENDBRANCH   1  18
TORSDOF 10
ENDMDL
MODEL 7
REMARK VINA RESULT:      -5.8     12.285     14.498
REMARK  10 active torsions:
REMARK  status: ('A' for Active; 'I' for Inactive)
REMARK    1  A    between atoms: C_1  and  C_20 
REMARK    2  A    between atoms: N_4  and  C_20 
REMARK       I    between atoms: N_4  and  C_5 
REMARK    3  A    between atoms: C_5  and  C_11 
REMARK       I    between atoms: N_6  and  C_16 
REMARK    4  A    between atoms: N_7  and  C_11 
REMARK    5  A    between atoms: C_10  and  C_18 
REMARK    6  A    between atoms: C_11  and  C_12 
REMARK    7  A    between atoms: C_12  and  C_13 
REMARK    8  A    between atoms: C_13  and  C_14 
REMARK    9  A    between atoms: C_14  and  N_17 
REMARK       I    between atoms: N_15  and  C_16 
REMARK   10  A    between atoms: C_18  and  C_20 
ROOT
HETATM    1  C           1     -25.296  -6.549 -19.129  0.00  0.00     0.274 C 
ENDROOT
BRANCH   1   2
HETATM    2  C           1     -26.294  -6.294 -18.028  0.00  0.00     0.249 C 
HETATM    3  N           1     -27.610  -6.631 -18.204  0.00  0.00    -0.344 N 
HETATM    4  H           1     -27.913  -7.049 -19.075  0.00  0.00     0.163 HD
HETATM    5  O           1     -25.934  -5.795 -16.989  0.00  0.00    -0.271 OA
BRANCH   3   6
HETATM    6  C           1     -28.570  -6.385 -17.146  0.00  0.00     0.189 C 
BRANCH   6   7
HETATM    7  C           1     -28.602  -7.571 -16.213  0.00  0.00     0.197 C 
HETATM    8  O           1     -29.155  -8.633 -16.571  0.00  0.00    -0.646 OA
HETATM    9  O           1     -28.076  -7.491 -15.082  0.00  0.00    -0.646 OA
ENDBRANCH   6   7
BRANCH   6  10
HETATM   10  C           1     -29.952  -6.178 -17.752  0.00  0.00     0.014 C 
HETATM   11  C           1     -30.393  -7.456 -18.454  0.00  0.00     0.012 C 
BRANCH  10  12
HETATM   12  C           1     -30.944  -5.836 -16.648  0.00  0.00     0.002 C 
HETATM   13  C           1     -31.648  -4.528 -16.983  0.00  0.00     0.005 C 
ENDBRANCH  10  12
ENDBRANCH   6  10
ENDBRANCH   3   6
ENDBRANCH   1   2
BRANCH   1  14
HETATM   14  N           1     -24.346  -7.629 -18.702  0.00  0.00    -0.067 N 
HETATM   15  H           1     -24.525  -7.875 -17.703  0.00  0.00     0.275 HD
HETATM   16  H           1     -24.487  -8.474 -19.300  0.00  0.00     0.275 HD
HETATM   17  H           1     -23.364  -7.288 -18.805  0.00  0.00     0.275 HD
ENDBRANCH   1  14
BRANCH   1  18
HETATM   18  C           1     -26.030  -6.989 -20.389  0.00  0.00     0.044 C 
BRANCH  18  19
HETATM   19  C           1     -25.253  -8.112 -21.064  0.00  0.00     0.023 C 
BRANCH  19  20
HETATM   20  C           1     -24.202  -7.516 -21.991  0.00  0.00     0.138 C 
BRANCH  20  21
HETATM   21  N           1     -23.483  -8.598 -22.679  0.00  0.00    -0.227 N 
HETATM   22  C           1     -22.417  -9.066 -22.181  0.00  0.00     0.665 C 
HETATM   23  N           1     -21.958  -8.590 -21.062  0.00  0.00    -0.235 N 
HETATM   24  N           1     -21.798  -9.999 -22.773  0.00  0.00    -0.235 N 
HETATM   25  H           1     -21.078  -8.976 -20.651  0.00  0.00     0.174 HD
HETATM   26  H           1     -22.469  -7.820 -20.573  0.00  0.00     0.174 HD
HETATM   27  H           1     -20.913 -10.387 -22.361  0.00  0.00     0.174 HD
HETATM   28  H           1     -22.169 -10.383 -23.678  0.00  0.00     0.174 HD
HETATM   29  H           1     -23.853  -8.982 -23.582  0.00  0.00     0.177 HD
ENDBRANCH  20  21
ENDBRANCH  19  20
ENDBRANCH  18  19
ENDBRANCH   1  18
TORSDOF 10
ENDMDL
MODEL 8
REMARK VINA RESULT:      -5.8      4.286      9.179
REMARK  10 active torsions:
REMARK  status: ('A' for Active; 'I' for Inactive)
REMARK    1  A    between atoms: C_1  and  C_20 
REMARK    2  A    between atoms: N_4  and  C_20 
REMARK       I    between atoms: N_4  and  C_5 
REMARK    3  A    between atoms: C_5  and  C_11 
REMARK       I    between atoms: N_6  and  C_16 
REMARK    4  A    between atoms: N_7  and  C_11 
REMARK    5  A    between atoms: C_10  and  C_18 
REMARK    6  A    between atoms: C_11  and  C_12 
REMARK    7  A    between atoms: C_12  and  C_13 
REMARK    8  A    between atoms: C_13  and  C_14 
REMARK    9  A    between atoms: C_14  and  N_17 
REMARK       I    between atoms: N_15  and  C_16 
REMARK   10  A    between atoms: C_18  and  C_20 
ROOT
HETATM    1  C           1     -21.027  -7.112  -3.450  0.00  0.00     0.274 C 
ENDROOT
BRANCH   1   2
HETATM    2  C           1     -21.732  -7.565  -2.195  0.00  0.00     0.249 C 
HETATM    3  N           1     -21.663  -8.876  -1.806  0.00  0.00    -0.344 N 
HETATM    4  H           1     -21.139  -9.541  -2.361  0.00  0.00     0.163 HD
HETATM    5  O           1     -22.357  -6.771  -1.533  0.00  0.00    -0.271 OA
BRANCH   3   6
HETATM    6  C           1     -22.340  -9.312  -0.601  0.00  0.00     0.189 C 
BRANCH   6   7
HETATM    7  C           1     -21.375  -9.274   0.558  0.00  0.00     0.197 C 
HETATM    8  O           1     -20.603 -10.236   0.761  0.00  0.00    -0.646 OA
HETATM    9  O           1     -21.347  -8.281   1.317  0.00  0.00    -0.646 OA
ENDBRANCH   6   7
BRANCH   6  10
HETATM   10  C           1     -22.850 -10.734  -0.792  0.00  0.00     0.014 C 
HETATM   11  C           1     -24.167 -10.904  -0.047  0.00  0.00     0.012 C 
BRANCH  10  12
HETATM   12  C           1     -23.066 -11.000  -2.276  0.00  0.00     0.002 C 
HETATM   13  C           1     -22.645 -12.427  -2.604  0.00  0.00     0.005 C 
ENDBRANCH  10  12
ENDBRANCH   6  10
ENDBRANCH   3   6
ENDBRANCH   1   2
BRANCH   1  14
HETATM   14  N           1     -20.189  -8.235  -3.985  0.00  0.00    -0.067 N 
HETATM   15  H           1     -19.219  -8.158  -3.604  0.00  0.00     0.275 HD
HETATM   16  H           1     -20.606  -9.149  -3.696  0.00  0.00     0.275 HD
HETATM   17  H           1     -20.158  -8.179  -5.028  0.00  0.00     0.275 HD
ENDBRANCH   1  14
BRANCH   1  18
HETATM   18  C           1     -22.059  -6.706  -4.494  0.00  0.00     0.044 C 
BRANCH  18  19
HETATM   19  C           1     -21.380  -6.567  -5.851  0.00  0.00     0.023 C 
BRANCH  19  20
HETATM   20  C           1     -21.472  -5.121  -6.320  0.00  0.00     0.138 C 
BRANCH  20  21
HETATM   21  N           1     -21.531  -5.084  -7.789  0.00  0.00    -0.227 N 
HETATM   22  C           1     -22.549  -4.605  -8.369  0.00  0.00     0.665 C 
HETATM   23  N           1     -23.542  -4.145  -7.667  0.00  0.00    -0.235 N 
HETATM   24  N           1     -22.600  -4.572  -9.634  0.00  0.00    -0.235 N 
HETATM   25  H           1     -24.383  -3.749  -8.146  0.00  0.00     0.174 HD
HETATM   26  H           1     -23.500  -4.171  -6.622  0.00  0.00     0.174 HD
HETATM   27  H           1     -23.444  -4.175 -10.116  0.00  0.00     0.174 HD
HETATM   28  H           1     -21.798  -4.944 -10.201  0.00  0.00     0.174 HD
HETATM   29  H           1     -20.730  -5.455  -8.355  0.00  0.00     0.177 HD
ENDBRANCH  20  21
ENDBRANCH  19  20
ENDBRANCH  18  19
ENDBRANCH   1  18
TORSDOF 10
ENDMDL
MODEL 9
REMARK VINA RESULT:      -5.7      2.390      2.988
REMARK  10 active torsions:
REMARK  status: ('A' for Active; 'I' for Inactive)
REMARK    1  A    between atoms: C_1  and  C_20 
REMARK    2  A    between atoms: N_4  and  C_20 
REMARK       I    between atoms: N_4  and  C_5 
REMARK    3  A    between atoms: C_5  and  C_11 
REMARK       I    between atoms: N_6  and  C_16 
REMARK    4  A    between atoms: N_7  and  C_11 
REMARK    5  A    between atoms: C_10  and  C_18 
REMARK    6  A    between atoms: C_11  and  C_12 
REMARK    7  A    between atoms: C_12  and  C_13 
REMARK    8  A    between atoms: C_13  and  C_14 
REMARK    9  A    between atoms: C_14  and  N_17 
REMARK       I    between atoms: N_15  and  C_16 
REMARK   10  A    between atoms: C_18  and  C_20 
ROOT
HETATM    1  C           1     -21.504  -5.232  -6.146  0.00  0.00     0.274 C 
ENDROOT
BRANCH   1   2
HETATM    2  C           1     -21.852  -4.234  -7.222  0.00  0.00     0.249 C 
HETATM    3  N           1     -22.544  -4.638  -8.332  0.00  0.00    -0.344 N 
HETATM    4  H           1     -22.821  -5.606  -8.432  0.00  0.00     0.163 HD
HETATM    5  O           1     -21.521  -3.079  -7.105  0.00  0.00    -0.271 OA
BRANCH   3   6
HETATM    6  C           1     -22.877  -3.679  -9.368  0.00  0.00     0.189 C 
BRANCH   6   7
HETATM    7  C           1     -24.357  -3.748  -9.657  0.00  0.00     0.197 C 
HETATM    8  O           1     -25.057  -2.715  -9.586  0.00  0.00    -0.646 OA
HETATM    9  O           1     -24.883  -4.839  -9.967  0.00  0.00    -0.646 OA
ENDBRANCH   6   7
BRANCH   6  10
HETATM   10  C           1     -22.097  -4.007 -10.634  0.00  0.00     0.014 C 
HETATM   11  C           1     -22.622  -3.160 -11.785  0.00  0.00     0.012 C 
BRANCH  10  12
HETATM   12  C           1     -20.620  -3.704 -10.412  0.00  0.00     0.002 C 
HETATM   13  C           1     -19.828  -5.005 -10.411  0.00  0.00     0.005 C 
ENDBRANCH  10  12
ENDBRANCH   6  10
ENDBRANCH   3   6
ENDBRANCH   1   2
BRANCH   1  14
HETATM   14  N           1     -22.760  -5.691  -5.465  0.00  0.00    -0.067 N 
HETATM   15  H           1     -23.588  -5.260  -5.935  0.00  0.00     0.275 HD
HETATM   16  H           1     -22.828  -6.732  -5.525  0.00  0.00     0.275 HD
HETATM   17  H           1     -22.738  -5.399  -4.463  0.00  0.00     0.275 HD
ENDBRANCH   1  14
BRANCH   1  18
HETATM   18  C           1     -20.799  -6.429  -6.771  0.00  0.00     0.044 C 
BRANCH  18  19
HETATM   19  C           1     -19.873  -7.066  -5.742  0.00  0.00     0.023 C 
BRANCH  19  20
HETATM   20  C           1     -20.585  -8.234  -5.073  0.00  0.00     0.138 C 
BRANCH  20  21
HETATM   21  N           1     -20.114  -9.498  -5.660  0.00  0.00    -0.227 N 
HETATM   22  C           1     -20.664 -10.590  -5.333  0.00  0.00     0.665 C 
HETATM   23  N           1     -21.644 -10.595  -4.479  0.00  0.00    -0.235 N 
HETATM   24  N           1     -20.259 -11.678  -5.838  0.00  0.00    -0.235 N 
HETATM   25  H           1     -22.098 -11.498  -4.209  0.00  0.00     0.174 HD
HETATM   26  H           1     -21.979  -9.697  -4.062  0.00  0.00     0.174 HD
HETATM   27  H           1     -20.715 -12.585  -5.568  0.00  0.00     0.174 HD
HETATM   28  H           1     -19.467 -11.674  -6.529  0.00  0.00     0.174 HD
HETATM   29  H           1     -19.323  -9.493  -6.349  0.00  0.00     0.177 HD
ENDBRANCH  20  21
ENDBRANCH  19  20
ENDBRANCH  18  19
ENDBRANCH   1  18
TORSDOF 10
ENDMDL
