MODEL 1
REMARK VINA RESULT:      -5.5      0.000      0.000
REMARK  6 active torsions:
REMARK  status: ('A' for Active; 'I' for Inactive)
REMARK    1  A    between atoms: C_1  and  C_2 
REMARK       I    between atoms: C_2  and  N_3 
REMARK    2  A    between atoms: N_3  and  C_10 
REMARK    3  A    between atoms: Se_7  and  C_19 
REMARK    4  A    between atoms: C_9  and  C_10 
REMARK    5  A    between atoms: C_10  and  C_11 
REMARK    6  A    between atoms: C_11  and  C_19 
ROOT
HETATM    1  C           1     -23.057  -3.996  -8.839  0.00  0.00     0.249 C 
HETATM    2  N           1     -22.206  -4.737  -8.063  0.00  0.00    -0.345 N 
HETATM    3  O           1     -22.841  -2.822  -9.021  0.00  0.00    -0.271 OA
HETATM    4  H           1     -22.387  -5.721  -7.911  0.00  0.00     0.163 HD
ENDROOT
BRANCH   1   5
HETATM    5  C           1     -24.264  -4.647  -9.469  0.00  0.00     0.274 C 
HETATM    6  C           1     -23.827  -5.475 -10.670  0.00  0.00     0.042 C 
HETATM    7  C           1     -23.147  -4.572 -11.691  0.00  0.00     0.003 C 
HETATM    8 Se           1     -24.396  -3.194 -12.274  0.00  0.00     0.000 Se
HETATM    9  C           1     -23.140  -2.343 -13.497  0.00  0.00     0.000 C 
HETATM   10  H           1     -24.757  -2.966 -10.617  0.00  0.00     0.275 HD
HETATM   11  N           1     -25.225  -3.587  -9.918  0.00  0.00    -0.067 N 
HETATM   12  H           1     -26.061  -4.036 -10.354  0.00  0.00     0.275 HD
HETATM   13  H           1     -25.526  -3.018  -9.094  0.00  0.00     0.275 HD
ENDBRANCH   1   5
BRANCH   2  14
HETATM   14  C           1     -21.046  -4.111  -7.458  0.00  0.00     0.185 C 
BRANCH  14  15
HETATM   15  C           1     -19.818  -4.436  -8.273  0.00  0.00     0.196 C 
HETATM   16  O           1     -19.936  -4.796  -9.465  0.00  0.00    -0.646 OA
HETATM   17  O           1     -18.683  -4.344  -7.757  0.00  0.00    -0.646 OA
ENDBRANCH  14  15
BRANCH  14  18
HETATM   18  C           1     -20.868  -4.637  -6.040  0.00  0.00     0.036 C 
BRANCH  18  19
HETATM   19  C           1     -21.824  -5.799  -5.805  0.00  0.00     0.003 C 
BRANCH  19  20
HETATM   20 Se           1     -20.981  -7.110  -4.635  0.00  0.00     0.000 Se
HETATM   21  C           1     -21.529  -6.231  -2.984  0.00  0.00     0.000 C 
ENDBRANCH  19  20
ENDBRANCH  18  19
ENDBRANCH  14  18
ENDBRANCH   2  14
TORSDOF 6
ENDMDL
MODEL 2
REMARK VINA RESULT:      -5.2      3.374      4.760
REMARK  6 active torsions:
REMARK  status: ('A' for Active; 'I' for Inactive)
REMARK    1  A    between atoms: C_1  and  C_2 
REMARK       I    between atoms: C_2  and  N_3 
REMARK    2  A    between atoms: N_3  and  C_10 
REMARK    3  A    between atoms: Se_7  and  C_19 
REMARK    4  A    between atoms: C_9  and  C_10 
REMARK    5  A    between atoms: C_10  and  C_11 
REMARK    6  A    between atoms: C_11  and  C_19 
ROOT
HETATM    1  C           1     -20.677  -5.704  -6.516  0.00  0.00     0.249 C 
HETATM    2  N           1     -20.752  -5.774  -5.150  0.00  0.00    -0.345 N 
HETATM    3  O           1     -20.983  -6.661  -7.187  0.00  0.00    -0.271 OA
HETATM    4  H           1     -20.496  -4.973  -4.588  0.00  0.00     0.163 HD
ENDROOT
BRANCH   1   5
HETATM    5  C           1     -20.214  -4.432  -7.183  0.00  0.00     0.274 C 
HETATM    6  C           1     -21.344  -3.412  -7.170  0.00  0.00     0.042 C 
HETATM    7  C           1     -22.544  -3.971  -7.923  0.00  0.00     0.003 C 
HETATM    8 Se           1     -22.035  -4.353  -9.765  0.00  0.00     0.000 Se
HETATM    9  C           1     -23.795  -5.007 -10.287  0.00  0.00     0.000 C 
HETATM   10  H           1     -20.647  -5.112  -9.116  0.00  0.00     0.275 HD
HETATM   11  N           1     -19.823  -4.727  -8.600  0.00  0.00    -0.067 N 
HETATM   12  H           1     -19.502  -3.846  -9.063  0.00  0.00     0.275 HD
HETATM   13  H           1     -19.047  -5.427  -8.609  0.00  0.00     0.275 HD
ENDBRANCH   1   5
BRANCH   2  14
HETATM   14  C           1     -21.197  -6.997  -4.509  0.00  0.00     0.185 C 
BRANCH  14  15
HETATM   15  C           1     -21.559  -6.708  -3.073  0.00  0.00     0.196 C 
HETATM   16  O           1     -22.527  -5.962  -2.810  0.00  0.00    -0.646 OA
HETATM   17  O           1     -20.889  -7.213  -2.146  0.00  0.00    -0.646 OA
ENDBRANCH  14  15
BRANCH  14  18
HETATM   18  C           1     -20.078  -8.029  -4.554  0.00  0.00     0.036 C 
BRANCH  18  19
HETATM   19  C           1     -20.664  -9.400  -4.867  0.00  0.00     0.003 C 
BRANCH  19  20
HETATM   20 Se           1     -19.606 -10.777  -3.982  0.00  0.00     0.000 Se
HETATM   21  C           1     -18.366  -9.522  -3.154  0.00  0.00     0.000 C 
ENDBRANCH  19  20
ENDBRANCH  18  19
ENDBRANCH  14  18
ENDBRANCH   2  14
TORSDOF 6
ENDMDL
MODEL 3
REMARK VINA RESULT:      -4.9      2.906      4.456
REMARK  6 active torsions:
REMARK  status: ('A' for Active; 'I' for Inactive)
REMARK    1  A    between atoms: C_1  and  C_2 
REMARK       I    between atoms: C_2  and  N_3 
REMARK    2  A    between atoms: N_3  and  C_10 
REMARK    3  A    between atoms: Se_7  and  C_19 
REMARK    4  A    between atoms: C_9  and  C_10 
REMARK    5  A    between atoms: C_10  and  C_11 
REMARK    6  A    between atoms: C_11  and  C_19 
ROOT
HETATM    1  C           1     -20.294  -5.334  -6.644  0.00  0.00     0.249 C 
HETATM    2  N           1     -20.699  -5.219  -5.341  0.00  0.00    -0.345 N 
HETATM    3  O           1     -20.125  -6.427  -7.129  0.00  0.00    -0.271 OA
HETATM    4  H           1     -20.841  -4.303  -4.935  0.00  0.00     0.163 HD
ENDROOT
BRANCH   1   5
HETATM    5  C           1     -20.060  -4.095  -7.474  0.00  0.00     0.274 C 
HETATM    6  C           1     -21.278  -3.187  -7.387  0.00  0.00     0.042 C 
HETATM    7  C           1     -22.502  -3.926  -7.913  0.00  0.00     0.003 C 
HETATM    8 Se           1     -22.206  -4.437  -9.770  0.00  0.00     0.000 Se
HETATM    9  C           1     -23.940  -5.299  -9.981  0.00  0.00     0.000 C 
HETATM   10  H           1     -20.671  -4.997  -9.263  0.00  0.00     0.275 HD
HETATM   11  N           1     -19.831  -4.489  -8.903  0.00  0.00    -0.067 N 
HETATM   12  H           1     -19.669  -3.632  -9.479  0.00  0.00     0.275 HD
HETATM   13  H           1     -18.994  -5.112  -8.963  0.00  0.00     0.275 HD
ENDBRANCH   1   5
BRANCH   2  14
HETATM   14  C           1     -20.924  -6.409  -4.544  0.00  0.00     0.185 C 
BRANCH  14  15
HETATM   15  C           1     -22.225  -7.052  -4.958  0.00  0.00     0.196 C 
HETATM   16  O           1     -22.274  -8.283  -5.171  0.00  0.00    -0.646 OA
HETATM   17  O           1     -23.254  -6.354  -5.090  0.00  0.00    -0.646 OA
ENDBRANCH  14  15
BRANCH  14  18
HETATM   18  C           1     -20.993  -6.027  -3.071  0.00  0.00     0.036 C 
BRANCH  18  19
HETATM   19  C           1     -20.991  -7.289  -2.218  0.00  0.00     0.003 C 
BRANCH  19  20
HETATM   20 Se           1     -22.328  -7.124  -0.810  0.00  0.00     0.000 Se
HETATM   21  C           1     -21.437  -8.360   0.406  0.00  0.00     0.000 C 
ENDBRANCH  19  20
ENDBRANCH  18  19
ENDBRANCH  14  18
ENDBRANCH   2  14
TORSDOF 6
ENDMDL
MODEL 4
REMARK VINA RESULT:      -4.7      7.098      8.429
REMARK  6 active torsions:
REMARK  status: ('A' for Active; 'I' for Inactive)
REMARK    1  A    between atoms: C_1  and  C_2 
REMARK       I    between atoms: C_2  and  N_3 
REMARK    2  A    between atoms: N_3  and  C_10 
REMARK    3  A    between atoms: Se_7  and  C_19 
REMARK    4  A    between atoms: C_9  and  C_10 
REMARK    5  A    between atoms: C_10  and  C_11 
REMARK    6  A    between atoms: C_11  and  C_19 
ROOT
HETATM    1  C           1     -21.223  -9.713  -4.059  0.00  0.00     0.249 C 
HETATM    2  N           1     -20.895  -8.459  -3.619  0.00  0.00    -0.345 N 
HETATM    3  O           1     -22.085 -10.344  -3.495  0.00  0.00    -0.271 OA
HETATM    4  H           1     -20.173  -7.930  -4.091  0.00  0.00     0.163 HD
ENDROOT
BRANCH   1   5
HETATM    5  C           1     -20.509 -10.306  -5.249  0.00  0.00     0.274 C 
HETATM    6  C           1     -19.752 -11.554  -4.816  0.00  0.00     0.042 C 
HETATM    7  C           1     -18.734 -11.186  -3.745  0.00  0.00     0.003 C 
HETATM    8 Se           1     -17.477  -9.882  -4.464  0.00  0.00     0.000 Se
HETATM    9  C           1     -16.438  -9.734  -2.822  0.00  0.00     0.000 C 
HETATM   10  H           1     -18.844  -9.049  -5.066  0.00  0.00     0.275 HD
HETATM   11  N           1     -19.542  -9.302  -5.801  0.00  0.00    -0.067 N 
HETATM   12  H           1     -19.047  -9.712  -6.625  0.00  0.00     0.275 HD
HETATM   13  H           1     -20.062  -8.446  -6.099  0.00  0.00     0.275 HD
ENDBRANCH   1   5
BRANCH   2  14
HETATM   14  C           1     -21.581  -7.888  -2.475  0.00  0.00     0.185 C 
BRANCH  14  15
HETATM   15  C           1     -21.953  -6.456  -2.776  0.00  0.00     0.196 C 
HETATM   16  O           1     -21.846  -6.013  -3.940  0.00  0.00    -0.646 OA
HETATM   17  O           1     -22.367  -5.713  -1.860  0.00  0.00    -0.646 OA
ENDBRANCH  14  15
BRANCH  14  18
HETATM   18  C           1     -20.665  -7.931  -1.260  0.00  0.00     0.036 C 
BRANCH  18  19
HETATM   19  C           1     -21.134  -9.024  -0.309  0.00  0.00     0.003 C 
BRANCH  19  20
HETATM   20 Se           1     -22.982  -8.686   0.210  0.00  0.00     0.000 Se
HETATM   21  C           1     -23.608 -10.475  -0.246  0.00  0.00     0.000 C 
ENDBRANCH  19  20
ENDBRANCH  18  19
ENDBRANCH  14  18
ENDBRANCH   2  14
TORSDOF 6
ENDMDL
MODEL 5
REMARK VINA RESULT:      -4.7      4.976      8.092
REMARK  6 active torsions:
REMARK  status: ('A' for Active; 'I' for Inactive)
REMARK    1  A    between atoms: C_1  and  C_2 
REMARK       I    between atoms: C_2  and  N_3 
REMARK    2  A    between atoms: N_3  and  C_10 
REMARK    3  A    between atoms: Se_7  and  C_19 
REMARK    4  A    between atoms: C_9  and  C_10 
REMARK    5  A    between atoms: C_10  and  C_11 
REMARK    6  A    between atoms: C_11  and  C_19 
ROOT
HETATM    1  C           1     -20.439  -9.105  -5.130  0.00  0.00     0.249 C 
HETATM    2  N           1     -21.385  -8.506  -4.340  0.00  0.00    -0.345 N 
HETATM    3  O           1     -19.573  -8.440  -5.645  0.00  0.00    -0.271 OA
HETATM    4  H           1     -22.110  -9.064  -3.908  0.00  0.00     0.163 HD
ENDROOT
BRANCH   1   5
HETATM    5  C           1     -20.479 -10.597  -5.355  0.00  0.00     0.274 C 
HETATM    6  C           1     -20.241 -11.317  -4.035  0.00  0.00     0.042 C 
HETATM    7  C           1     -18.878 -10.924  -3.480  0.00  0.00     0.003 C 
HETATM    8 Se           1     -17.489 -11.425  -4.752  0.00  0.00     0.000 Se
HETATM    9  C           1     -16.019 -10.758  -3.660  0.00  0.00     0.000 C 
HETATM   10  H           1     -18.475 -10.711  -5.953  0.00  0.00     0.275 HD
HETATM   11  N           1     -19.411 -10.982  -6.334  0.00  0.00    -0.067 N 
HETATM   12  H           1     -19.437 -12.015  -6.490  0.00  0.00     0.275 HD
HETATM   13  H           1     -19.574 -10.488  -7.240  0.00  0.00     0.275 HD
ENDBRANCH   1   5
BRANCH   2  14
HETATM   14  C           1     -21.346  -7.072  -4.124  0.00  0.00     0.185 C 
BRANCH  14  15
HETATM   15  C           1     -21.569  -6.780  -2.660  0.00  0.00     0.196 C 
HETATM   16  O           1     -22.391  -5.903  -2.315  0.00  0.00    -0.646 OA
HETATM   17  O           1     -20.930  -7.413  -1.791  0.00  0.00    -0.646 OA
ENDBRANCH  14  15
BRANCH  14  18
HETATM   18  C           1     -22.439  -6.406  -4.948  0.00  0.00     0.036 C 
BRANCH  18  19
HETATM   19  C           1     -21.819  -5.733  -6.165  0.00  0.00     0.003 C 
BRANCH  19  20
HETATM   20 Se           1     -20.192  -4.801  -5.636  0.00  0.00     0.000 Se
HETATM   21  C           1     -19.484  -4.668  -7.447  0.00  0.00     0.000 C 
ENDBRANCH  19  20
ENDBRANCH  18  19
ENDBRANCH  14  18
ENDBRANCH   2  14
TORSDOF 6
ENDMDL
MODEL 6
REMARK VINA RESULT:      -4.6      7.005     10.350
REMARK  6 active torsions:
REMARK  status: ('A' for Active; 'I' for Inactive)
REMARK    1  A    between atoms: C_1  and  C_2 
REMARK       I    between atoms: C_2  and  N_3 
REMARK    2  A    between atoms: N_3  and  C_10 
REMARK    3  A    between atoms: Se_7  and  C_19 
REMARK    4  A    between atoms: C_9  and  C_10 
REMARK    5  A    between atoms: C_10  and  C_11 
REMARK    6  A    between atoms: C_11  and  C_19 
ROOT
HETATM    1  C           1     -21.389 -10.396   0.391  0.00  0.00     0.249 C 
HETATM    2  N           1     -21.716  -9.561  -0.644  0.00  0.00    -0.345 N 
HETATM    3  O           1     -20.716  -9.987   1.307  0.00  0.00    -0.271 OA
HETATM    4  H           1     -22.280  -9.903  -1.411  0.00  0.00     0.163 HD
ENDROOT
BRANCH   1   5
HETATM    5  C           1     -21.870 -11.826   0.387  0.00  0.00     0.274 C 
HETATM    6  C           1     -20.674 -12.765   0.311  0.00  0.00     0.042 C 
HETATM    7  C           1     -19.891 -12.490  -0.966  0.00  0.00     0.003 C 
HETATM    8 Se           1     -21.044 -12.782  -2.510  0.00  0.00     0.000 Se
HETATM    9  C           1     -19.676 -12.331  -3.823  0.00  0.00     0.000 C 
HETATM   10  H           1     -22.220 -11.861  -1.677  0.00  0.00     0.275 HD
HETATM   11  N           1     -22.757 -12.051  -0.800  0.00  0.00    -0.067 N 
HETATM   12  H           1     -23.091 -13.041  -0.804  0.00  0.00     0.275 HD
HETATM   13  H           1     -23.579 -11.407  -0.749  0.00  0.00     0.275 HD
ENDBRANCH   1   5
BRANCH   2  14
HETATM   14  C           1     -21.254  -8.186  -0.641  0.00  0.00     0.185 C 
BRANCH  14  15
HETATM   15  C           1     -22.441  -7.257  -0.569  0.00  0.00     0.196 C 
HETATM   16  O           1     -23.399  -7.524   0.188  0.00  0.00    -0.646 OA
HETATM   17  O           1     -22.467  -6.221  -1.269  0.00  0.00    -0.646 OA
ENDBRANCH  14  15
BRANCH  14  18
HETATM   18  C           1     -20.469  -7.912  -1.916  0.00  0.00     0.036 C 
BRANCH  18  19
HETATM   19  C           1     -20.925  -8.870  -3.009  0.00  0.00     0.003 C 
BRANCH  19  20
HETATM   20 Se           1     -20.351  -8.197  -4.746  0.00  0.00     0.000 Se
HETATM   21  C           1     -21.206  -6.458  -4.537  0.00  0.00     0.000 C 
ENDBRANCH  19  20
ENDBRANCH  18  19
ENDBRANCH  14  18
ENDBRANCH   2  14
TORSDOF 6
ENDMDL
MODEL 7
REMARK VINA RESULT:      -4.6      7.820      9.876
REMARK  6 active torsions:
REMARK  status: ('A' for Active; 'I' for Inactive)
REMARK    1  A    between atoms: C_1  and  C_2 
REMARK       I    between atoms: C_2  and  N_3 
REMARK    2  A    between atoms: N_3  and  C_10 
REMARK    3  A    between atoms: Se_7  and  C_19 
REMARK    4  A    between atoms: C_9  and  C_10 
REMARK    5  A    between atoms: C_10  and  C_11 
REMARK    6  A    between atoms: C_11  and  C_19 
ROOT
HETATM    1  C           1     -22.279  -9.642  -0.336  0.00  0.00     0.249 C 
HETATM    2  N           1     -22.055  -9.121  -1.582  0.00  0.00    -0.345 N 
HETATM    3  O           1     -21.709  -9.180   0.624  0.00  0.00    -0.271 OA
HETATM    4  H           1     -22.533  -9.508  -2.385  0.00  0.00     0.163 HD
ENDROOT
BRANCH   1   5
HETATM    5  C           1     -23.239 -10.793  -0.161  0.00  0.00     0.274 C 
HETATM    6  C           1     -22.489 -12.002   0.383  0.00  0.00     0.042 C 
HETATM    7  C           1     -21.391 -12.402  -0.593  0.00  0.00     0.003 C 
HETATM    8 Se           1     -22.184 -12.852  -2.315  0.00  0.00     0.000 Se
HETATM    9  C           1     -20.485 -13.271  -3.173  0.00  0.00     0.000 C 
HETATM   10  H           1     -23.095 -11.413  -2.156  0.00  0.00     0.275 HD
HETATM   11  N           1     -23.849 -11.140  -1.486  0.00  0.00    -0.067 N 
HETATM   12  H           1     -24.514 -11.937  -1.366  0.00  0.00     0.275 HD
HETATM   13  H           1     -24.364 -10.311  -1.860  0.00  0.00     0.275 HD
ENDBRANCH   1   5
BRANCH   2  14
HETATM   14  C           1     -21.132  -8.014  -1.750  0.00  0.00     0.185 C 
BRANCH  14  15
HETATM   15  C           1     -21.910  -6.745  -2.000  0.00  0.00     0.196 C 
HETATM   16  O           1     -22.605  -6.248  -1.086  0.00  0.00    -0.646 OA
HETATM   17  O           1     -21.862  -6.192  -3.120  0.00  0.00    -0.646 OA
ENDBRANCH  14  15
BRANCH  14  18
HETATM   18  C           1     -20.219  -8.292  -2.936  0.00  0.00     0.036 C 
BRANCH  18  19
HETATM   19  C           1     -19.317  -9.477  -2.617  0.00  0.00     0.003 C 
BRANCH  19  20
HETATM   20 Se           1     -18.024  -9.717  -4.055  0.00  0.00     0.000 Se
HETATM   21  C           1     -16.463  -9.537  -2.902  0.00  0.00     0.000 C 
ENDBRANCH  19  20
ENDBRANCH  18  19
ENDBRANCH  14  18
ENDBRANCH   2  14
TORSDOF 6
ENDMDL
MODEL 8
REMARK VINA RESULT:      -4.6      6.196      9.046
REMARK  6 active torsions:
REMARK  status: ('A' for Active; 'I' for Inactive)
REMARK    1  A    between atoms: C_1  and  C_2 
REMARK       I    between atoms: C_2  and  N_3 
REMARK    2  A    between atoms: N_3  and  C_10 
REMARK    3  A    between atoms: Se_7  and  C_19 
REMARK    4  A    between atoms: C_9  and  C_10 
REMARK    5  A    between atoms: C_10  and  C_11 
REMARK    6  A    between atoms: C_11  and  C_19 
ROOT
HETATM    1  C           1     -21.012  -7.875  -1.254  0.00  0.00     0.249 C 
HETATM    2  N           1     -21.794  -7.698  -2.364  0.00  0.00    -0.345 N 
HETATM    3  O           1     -19.814  -7.975  -1.368  0.00  0.00    -0.271 OA
HETATM    4  H           1     -22.798  -7.614  -2.267  0.00  0.00     0.163 HD
ENDROOT
BRANCH   1   5
HETATM    5  C           1     -21.647  -7.945   0.114  0.00  0.00     0.274 C 
HETATM    6  C           1     -21.205  -9.222   0.815  0.00  0.00     0.042 C 
HETATM    7  C           1     -21.635 -10.430  -0.007  0.00  0.00     0.003 C 
HETATM    8 Se           1     -23.575 -10.432  -0.193  0.00  0.00     0.000 Se
HETATM    9  C           1     -23.636 -12.064  -1.255  0.00  0.00     0.000 C 
HETATM   10  H           1     -23.435  -8.775  -0.595  0.00  0.00     0.275 HD
HETATM   11  N           1     -23.140  -7.947  -0.030  0.00  0.00    -0.067 N 
HETATM   12  H           1     -23.581  -7.995   0.916  0.00  0.00     0.275 HD
HETATM   13  H           1     -23.445  -7.070  -0.511  0.00  0.00     0.275 HD
ENDBRANCH   1   5
BRANCH   2  14
HETATM   14  C           1     -21.183  -7.631  -3.678  0.00  0.00     0.185 C 
BRANCH  14  15
HETATM   15  C           1     -21.646  -6.379  -4.383  0.00  0.00     0.196 C 
HETATM   16  O           1     -22.837  -6.270  -4.748  0.00  0.00    -0.646 OA
HETATM   17  O           1     -20.838  -5.450  -4.602  0.00  0.00    -0.646 OA
ENDBRANCH  14  15
BRANCH  14  18
HETATM   18  C           1     -21.592  -8.852  -4.490  0.00  0.00     0.036 C 
BRANCH  18  19
HETATM   19  C           1     -20.730 -10.041  -4.088  0.00  0.00     0.003 C 
BRANCH  19  20
HETATM   20 Se           1     -19.147 -10.112  -5.222  0.00  0.00     0.000 Se
HETATM   21  C           1     -17.908  -9.611  -3.804  0.00  0.00     0.000 C 
ENDBRANCH  19  20
ENDBRANCH  18  19
ENDBRANCH  14  18
ENDBRANCH   2  14
TORSDOF 6
ENDMDL
MODEL 9
REMARK VINA RESULT:      -4.5      6.835     10.201
REMARK  6 active torsions:
REMARK  status: ('A' for Active; 'I' for Inactive)
REMARK    1  A    between atoms: C_1  and  C_2 
REMARK       I    between atoms: C_2  and  N_3 
REMARK    2  A    between atoms: N_3  and  C_10 
REMARK    3  A    between atoms: Se_7  and  C_19 
REMARK    4  A    between atoms: C_9  and  C_10 
REMARK    5  A    between atoms: C_10  and  C_11 
REMARK    6  A    between atoms: C_11  and  C_19 
ROOT
HETATM    1  C           1     -20.160  -9.519  -2.255  0.00  0.00     0.249 C 
HETATM    2  N           1     -21.334  -9.110  -1.681  0.00  0.00    -0.345 N 
HETATM    3  O           1     -19.179  -8.817  -2.190  0.00  0.00    -0.271 OA
HETATM    4  H           1     -22.155  -9.698  -1.735  0.00  0.00     0.163 HD
ENDROOT
BRANCH   1   5
HETATM    5  C           1     -20.091 -10.846  -2.969  0.00  0.00     0.274 C 
HETATM    6  C           1     -20.289 -11.974  -1.965  0.00  0.00     0.042 C 
HETATM    7  C           1     -19.196 -11.910  -0.906  0.00  0.00     0.003 C 
HETATM    8 Se           1     -17.454 -12.099  -1.758  0.00  0.00     0.000 Se
HETATM    9  C           1     -16.445 -11.961  -0.096  0.00  0.00     0.000 C 
HETATM   10  H           1     -18.000 -10.946  -2.897  0.00  0.00     0.275 HD
HETATM   11  N           1     -18.750 -10.991  -3.624  0.00  0.00    -0.067 N 
HETATM   12  H           1     -18.701 -11.911  -4.119  0.00  0.00     0.275 HD
HETATM   13  H           1     -18.614 -10.218  -4.314  0.00  0.00     0.275 HD
ENDBRANCH   1   5
BRANCH   2  14
HETATM   14  C           1     -21.400  -7.834  -0.995  0.00  0.00     0.185 C 
BRANCH  14  15
HETATM   15  C           1     -22.009  -8.029   0.372  0.00  0.00     0.196 C 
HETATM   16  O           1     -21.278  -8.302   1.349  0.00  0.00    -0.646 OA
HETATM   17  O           1     -23.245  -7.919   0.527  0.00  0.00    -0.646 OA
ENDBRANCH  14  15
BRANCH  14  18
HETATM   18  C           1     -22.258  -6.868  -1.801  0.00  0.00     0.036 C 
BRANCH  18  19
HETATM   19  C           1     -21.394  -6.167  -2.840  0.00  0.00     0.003 C 
BRANCH  19  20
HETATM   20 Se           1     -22.024  -6.626  -4.627  0.00  0.00     0.000 Se
HETATM   21  C           1     -20.319  -7.365  -5.215  0.00  0.00     0.000 C 
ENDBRANCH  19  20
ENDBRANCH  18  19
ENDBRANCH  14  18
ENDBRANCH   2  14
TORSDOF 6
ENDMDL
