MODEL 1
REMARK VINA RESULT:      -6.3      0.000      0.000
REMARK  10 active torsions:
REMARK  status: ('A' for Active; 'I' for Inactive)
REMARK    1  A    between atoms: C_4  and  C_23 
REMARK    2  A    between atoms: N_11  and  C_14 
REMARK    3  A    between atoms: Se_12  and  C_13 
REMARK    4  A    between atoms: C_13  and  C_14 
REMARK    5  A    between atoms: C_14  and  C_15 
REMARK       I    between atoms: C_15  and  N_16 
REMARK    6  A    between atoms: N_16  and  C_23 
REMARK    7  A    between atoms: O_18  and  P_20 
REMARK    8  A    between atoms: P_20  and  O_21 
REMARK    9  A    between atoms: O_21  and  C_22 
REMARK   10  A    between atoms: C_22  and  C_23 
ROOT
HETATM    1  H           1     -35.192  -2.153 -13.698  0.00  0.00     0.163 HD
HETATM    2  O           1     -33.416  -2.364 -11.121  0.00  0.00    -0.271 OA
HETATM    3  C           1     -33.958  -2.724 -12.139  0.00  0.00     0.249 C 
HETATM    4  N           1     -34.739  -1.849 -12.845  0.00  0.00    -0.343 N 
ENDROOT
BRANCH   4   5
HETATM    5  C           1     -34.916  -0.491 -12.372  0.00  0.00     0.210 C 
BRANCH   5   6
HETATM    6  C           1     -36.180  -0.406 -11.551  0.00  0.00     0.198 C 
HETATM    7  O           1     -37.142  -1.161 -11.806  0.00  0.00    -0.646 OA
HETATM    8  O           1     -36.263   0.419 -10.616  0.00  0.00    -0.646 OA
ENDBRANCH   5   6
BRANCH   5   9
HETATM    9  C           1     -35.021   0.451 -13.564  0.00  0.00     0.217 C 
BRANCH   9  10
HETATM   10  O           1     -35.070  -0.296 -14.749  0.00  0.00    -0.287 OA
BRANCH  10  11
HETATM   11  P           1     -36.378  -0.079 -15.670  0.00  0.00     0.406 P 
HETATM   12  O           1     -36.172  -0.735 -16.981  0.00  0.00    -0.624 OA
HETATM   13  O           1     -37.557  -0.674 -15.002  0.00  0.00    -0.624 OA
BRANCH  11  14
HETATM   14  O           1     -36.626   1.501 -15.890  0.00  0.00    -0.300 OA
HETATM   15  H           1     -35.772   1.893 -15.833  0.00  0.00     0.223 HD
ENDBRANCH  11  14
ENDBRANCH  10  11
ENDBRANCH   9  10
ENDBRANCH   5   9
ENDBRANCH   4   5
BRANCH   3  16
HETATM   16  C           1     -33.773  -4.139 -12.631  0.00  0.00     0.274 C 
BRANCH  16  17
HETATM   17  N           1     -32.448  -4.662 -12.161  0.00  0.00    -0.067 N 
HETATM   18  H           1     -32.134  -5.431 -12.794  0.00  0.00     0.275 HD
HETATM   19  H           1     -32.544  -5.027 -11.187  0.00  0.00     0.275 HD
HETATM   20  H           1     -31.745  -3.889 -12.175  0.00  0.00     0.275 HD
ENDBRANCH  16  17
BRANCH  16  21
HETATM   21  C           1     -34.890  -5.018 -12.084  0.00  0.00     0.045 C 
BRANCH  21  22
HETATM   22 Se           1     -34.179  -6.177 -10.688  0.00  0.00     0.000 Se
HETATM   23  H           1     -32.785  -6.069 -11.146  0.00  0.00     0.000 HD
ENDBRANCH  21  22
ENDBRANCH  16  21
ENDBRANCH   3  16
TORSDOF 10
ENDMDL
MODEL 2
REMARK VINA RESULT:      -5.6      3.493      5.397
REMARK  10 active torsions:
REMARK  status: ('A' for Active; 'I' for Inactive)
REMARK    1  A    between atoms: C_4  and  C_23 
REMARK    2  A    between atoms: N_11  and  C_14 
REMARK    3  A    between atoms: Se_12  and  C_13 
REMARK    4  A    between atoms: C_13  and  C_14 
REMARK    5  A    between atoms: C_14  and  C_15 
REMARK       I    between atoms: C_15  and  N_16 
REMARK    6  A    between atoms: N_16  and  C_23 
REMARK    7  A    between atoms: O_18  and  P_20 
REMARK    8  A    between atoms: P_20  and  O_21 
REMARK    9  A    between atoms: O_21  and  C_22 
REMARK   10  A    between atoms: C_22  and  C_23 
ROOT
HETATM    1  H           1     -35.878  -2.087 -13.575  0.00  0.00     0.163 HD
HETATM    2  O           1     -34.616   0.604 -12.571  0.00  0.00    -0.271 OA
HETATM    3  C           1     -35.295  -0.128 -13.252  0.00  0.00     0.249 C 
HETATM    4  N           1     -35.309  -1.475 -13.004  0.00  0.00    -0.343 N 
ENDROOT
BRANCH   4   5
HETATM    5  C           1     -34.510  -2.022 -11.926  0.00  0.00     0.210 C 
BRANCH   5   6
HETATM    6  C           1     -33.852  -3.300 -12.387  0.00  0.00     0.198 C 
HETATM    7  O           1     -33.963  -3.665 -13.577  0.00  0.00    -0.646 OA
HETATM    8  O           1     -33.196  -3.992 -11.579  0.00  0.00    -0.646 OA
ENDBRANCH   5   6
BRANCH   5   9
HETATM    9  C           1     -35.406  -2.315 -10.729  0.00  0.00     0.217 C 
BRANCH   9  10
HETATM   10  O           1     -35.436  -1.199  -9.882  0.00  0.00    -0.287 OA
BRANCH  10  11
HETATM   11  P           1     -36.846  -0.419  -9.787  0.00  0.00     0.406 P 
HETATM   12  O           1     -37.461  -0.674  -8.465  0.00  0.00    -0.624 OA
HETATM   13  O           1     -36.619   1.034  -9.952  0.00  0.00    -0.624 OA
BRANCH  11  14
HETATM   14  O           1     -37.832  -0.945 -10.952  0.00  0.00    -0.300 OA
HETATM   15  H           1     -37.315  -1.550 -11.456  0.00  0.00     0.223 HD
ENDBRANCH  11  14
ENDBRANCH  10  11
ENDBRANCH   9  10
ENDBRANCH   5   9
ENDBRANCH   4   5
BRANCH   3  16
HETATM   16  C           1     -36.127   0.442 -14.374  0.00  0.00     0.274 C 
BRANCH  16  17
HETATM   17  N           1     -35.475   1.688 -14.895  0.00  0.00    -0.067 N 
HETATM   18  H           1     -35.499   1.682 -15.940  0.00  0.00     0.275 HD
HETATM   19  H           1     -34.483   1.725 -14.569  0.00  0.00     0.275 HD
HETATM   20  H           1     -35.989   2.525 -14.540  0.00  0.00     0.275 HD
ENDBRANCH  16  17
BRANCH  16  21
HETATM   21  C           1     -36.238  -0.582 -15.496  0.00  0.00     0.045 C 
BRANCH  21  22
HETATM   22 Se           1     -38.074  -0.635 -16.147  0.00  0.00     0.000 Se
HETATM   23  H           1     -37.792  -1.615 -17.208  0.00  0.00     0.000 HD
ENDBRANCH  21  22
ENDBRANCH  16  21
ENDBRANCH   3  16
TORSDOF 10
ENDMDL
MODEL 3
REMARK VINA RESULT:      -5.1     13.275     15.212
REMARK  10 active torsions:
REMARK  status: ('A' for Active; 'I' for Inactive)
REMARK    1  A    between atoms: C_4  and  C_23 
REMARK    2  A    between atoms: N_11  and  C_14 
REMARK    3  A    between atoms: Se_12  and  C_13 
REMARK    4  A    between atoms: C_13  and  C_14 
REMARK    5  A    between atoms: C_14  and  C_15 
REMARK       I    between atoms: C_15  and  N_16 
REMARK    6  A    between atoms: N_16  and  C_23 
REMARK    7  A    between atoms: O_18  and  P_20 
REMARK    8  A    between atoms: P_20  and  O_21 
REMARK    9  A    between atoms: O_21  and  C_22 
REMARK   10  A    between atoms: C_22  and  C_23 
ROOT
HETATM    1  H           1     -21.407  -4.573  -5.640  0.00  0.00     0.163 HD
HETATM    2  O           1     -21.236  -7.581  -6.516  0.00  0.00    -0.271 OA
HETATM    3  C           1     -21.234  -6.631  -5.769  0.00  0.00     0.249 C 
HETATM    4  N           1     -21.409  -5.368  -6.267  0.00  0.00    -0.343 N 
ENDROOT
BRANCH   4   5
HETATM    5  C           1     -21.595  -5.170  -7.691  0.00  0.00     0.210 C 
BRANCH   5   6
HETATM    6  C           1     -20.301  -4.695  -8.305  0.00  0.00     0.198 C 
HETATM    7  O           1     -19.508  -4.002  -7.633  0.00  0.00    -0.646 OA
HETATM    8  O           1     -20.022  -4.996  -9.486  0.00  0.00    -0.646 OA
ENDBRANCH   5   6
BRANCH   5   9
HETATM    9  C           1     -22.679  -4.125  -7.920  0.00  0.00     0.217 C 
BRANCH   9  10
HETATM   10  O           1     -22.632  -3.684  -9.249  0.00  0.00    -0.287 OA
BRANCH  10  11
HETATM   11  P           1     -24.041  -3.648 -10.035  0.00  0.00     0.406 P 
HETATM   12  O           1     -23.852  -3.009 -11.357  0.00  0.00    -0.624 OA
HETATM   13  O           1     -24.538  -5.030 -10.223  0.00  0.00    -0.624 OA
BRANCH  11  14
HETATM   14  O           1     -25.116  -2.803  -9.176  0.00  0.00    -0.300 OA
HETATM   15  H           1     -25.151  -3.232  -8.338  0.00  0.00     0.223 HD
ENDBRANCH  11  14
ENDBRANCH  10  11
ENDBRANCH   9  10
ENDBRANCH   5   9
ENDBRANCH   4   5
BRANCH   3  16
HETATM   16  C           1     -21.041  -6.838  -4.287  0.00  0.00     0.274 C 
BRANCH  16  17
HETATM   17  N           1     -22.142  -6.149  -3.538  0.00  0.00    -0.067 N 
HETATM   18  H           1     -22.623  -5.472  -4.173  0.00  0.00     0.275 HD
HETATM   19  H           1     -21.740  -5.637  -2.721  0.00  0.00     0.275 HD
HETATM   20  H           1     -22.830  -6.859  -3.200  0.00  0.00     0.275 HD
ENDBRANCH  16  17
BRANCH  16  21
HETATM   21  C           1     -21.069  -8.328  -3.973  0.00  0.00     0.045 C 
BRANCH  21  22
HETATM   22 Se           1     -20.367  -8.628  -2.180  0.00  0.00     0.000 Se
HETATM   23  H           1     -19.222  -7.719  -2.350  0.00  0.00     0.000 HD
ENDBRANCH  21  22
ENDBRANCH  16  21
ENDBRANCH   3  16
TORSDOF 10
ENDMDL
MODEL 4
REMARK VINA RESULT:      -4.8     16.264     18.025
REMARK  10 active torsions:
REMARK  status: ('A' for Active; 'I' for Inactive)
REMARK    1  A    between atoms: C_4  and  C_23 
REMARK    2  A    between atoms: N_11  and  C_14 
REMARK    3  A    between atoms: Se_12  and  C_13 
REMARK    4  A    between atoms: C_13  and  C_14 
REMARK    5  A    between atoms: C_14  and  C_15 
REMARK       I    between atoms: C_15  and  N_16 
REMARK    6  A    between atoms: N_16  and  C_23 
REMARK    7  A    between atoms: O_18  and  P_20 
REMARK    8  A    between atoms: P_20  and  O_21 
REMARK    9  A    between atoms: O_21  and  C_22 
REMARK   10  A    between atoms: C_22  and  C_23 
ROOT
HETATM    1  H           1     -23.021  -6.210  -4.975  0.00  0.00     0.163 HD
HETATM    2  O           1     -20.243  -5.308  -6.121  0.00  0.00    -0.271 OA
HETATM    3  C           1     -21.442  -5.454  -6.078  0.00  0.00     0.249 C 
HETATM    4  N           1     -22.017  -6.089  -5.009  0.00  0.00    -0.343 N 
ENDROOT
BRANCH   4   5
HETATM    5  C           1     -21.187  -6.587  -3.930  0.00  0.00     0.210 C 
BRANCH   5   6
HETATM    6  C           1     -20.866  -8.042  -4.174  0.00  0.00     0.198 C 
HETATM    7  O           1     -19.677  -8.407  -4.288  0.00  0.00    -0.646 OA
HETATM    8  O           1     -21.789  -8.880  -4.260  0.00  0.00    -0.646 OA
ENDBRANCH   5   6
BRANCH   5   9
HETATM    9  C           1     -21.934  -6.446  -2.610  0.00  0.00     0.217 C 
BRANCH   9  10
HETATM   10  O           1     -21.189  -7.044  -1.584  0.00  0.00    -0.287 OA
BRANCH  10  11
HETATM   11  P           1     -22.009  -8.010  -0.584  0.00  0.00     0.406 P 
HETATM   12  O           1     -21.178  -8.307   0.605  0.00  0.00    -0.624 OA
HETATM   13  O           1     -23.256  -7.338  -0.159  0.00  0.00    -0.624 OA
BRANCH  11  14
HETATM   14  O           1     -22.373  -9.387  -1.344  0.00  0.00    -0.300 OA
HETATM   15  H           1     -21.554  -9.704  -1.683  0.00  0.00     0.223 HD
ENDBRANCH  11  14
ENDBRANCH  10  11
ENDBRANCH   9  10
ENDBRANCH   5   9
ENDBRANCH   4   5
BRANCH   3  16
HETATM   16  C           1     -22.305  -4.935  -7.201  0.00  0.00     0.274 C 
BRANCH  16  17
HETATM   17  N           1     -23.641  -4.527  -6.657  0.00  0.00    -0.067 N 
HETATM   18  H           1     -24.064  -3.802  -7.280  0.00  0.00     0.275 HD
HETATM   19  H           1     -23.521  -4.135  -5.696  0.00  0.00     0.275 HD
HETATM   20  H           1     -24.270  -5.361  -6.616  0.00  0.00     0.275 HD
ENDBRANCH  16  17
BRANCH  16  21
HETATM   21  C           1     -21.630  -3.732  -7.847  0.00  0.00     0.045 C 
BRANCH  21  22
HETATM   22 Se           1     -21.223  -4.138  -9.710  0.00  0.00     0.000 Se
HETATM   23  H           1     -22.542  -3.720 -10.210  0.00  0.00     0.000 HD
ENDBRANCH  21  22
ENDBRANCH  16  21
ENDBRANCH   3  16
TORSDOF 10
ENDMDL
MODEL 5
REMARK VINA RESULT:      -4.6     16.303     18.118
REMARK  10 active torsions:
REMARK  status: ('A' for Active; 'I' for Inactive)
REMARK    1  A    between atoms: C_4  and  C_23 
REMARK    2  A    between atoms: N_11  and  C_14 
REMARK    3  A    between atoms: Se_12  and  C_13 
REMARK    4  A    between atoms: C_13  and  C_14 
REMARK    5  A    between atoms: C_14  and  C_15 
REMARK       I    between atoms: C_15  and  N_16 
REMARK    6  A    between atoms: N_16  and  C_23 
REMARK    7  A    between atoms: O_18  and  P_20 
REMARK    8  A    between atoms: P_20  and  O_21 
REMARK    9  A    between atoms: O_21  and  C_22 
REMARK   10  A    between atoms: C_22  and  C_23 
ROOT
HETATM    1  H           1     -19.840  -7.002  -4.133  0.00  0.00     0.163 HD
HETATM    2  O           1     -22.523  -5.945  -5.368  0.00  0.00    -0.271 OA
HETATM    3  C           1     -21.330  -6.076  -5.231  0.00  0.00     0.249 C 
HETATM    4  N           1     -20.840  -6.893  -4.246  0.00  0.00    -0.343 N 
ENDROOT
BRANCH   4   5
HETATM    5  C           1     -21.752  -7.600  -3.370  0.00  0.00     0.210 C 
BRANCH   5   6
HETATM    6  C           1     -21.780  -6.921  -2.022  0.00  0.00     0.198 C 
HETATM    7  O           1     -22.220  -5.756  -1.919  0.00  0.00    -0.646 OA
HETATM    8  O           1     -21.363  -7.524  -1.010  0.00  0.00    -0.646 OA
ENDBRANCH   5   6
BRANCH   5   9
HETATM    9  C           1     -21.284  -9.039  -3.204  0.00  0.00     0.217 C 
BRANCH   9  10
HETATM   10  O           1     -21.729  -9.805  -4.291  0.00  0.00    -0.287 OA
BRANCH  10  11
HETATM   11  P           1     -20.583 -10.382  -5.270  0.00  0.00     0.406 P 
HETATM   12  O           1     -19.820 -11.437  -4.566  0.00  0.00    -0.624 OA
HETATM   13  O           1     -21.210 -10.953  -6.483  0.00  0.00    -0.624 OA
BRANCH  11  14
HETATM   14  O           1     -19.585  -9.186  -5.693  0.00  0.00    -0.300 OA
HETATM   15  H           1     -18.722  -9.504  -5.491  0.00  0.00     0.223 HD
ENDBRANCH  11  14
ENDBRANCH  10  11
ENDBRANCH   9  10
ENDBRANCH   5   9
ENDBRANCH   4   5
BRANCH   3  16
HETATM   16  C           1     -20.381  -5.341  -6.144  0.00  0.00     0.274 C 
BRANCH  16  17
HETATM   17  N           1     -19.729  -6.317  -7.077  0.00  0.00    -0.067 N 
HETATM   18  H           1     -18.720  -6.069  -7.191  0.00  0.00     0.275 HD
HETATM   19  H           1     -20.205  -6.281  -8.007  0.00  0.00     0.275 HD
HETATM   20  H           1     -19.808  -7.282  -6.683  0.00  0.00     0.275 HD
ENDBRANCH  16  17
BRANCH  16  21
HETATM   21  C           1     -21.151  -4.304  -6.950  0.00  0.00     0.045 C 
BRANCH  21  22
HETATM   22 Se           1     -20.509  -4.302  -8.790  0.00  0.00     0.000 Se
HETATM   23  H           1     -21.752  -4.859  -9.347  0.00  0.00     0.000 HD
ENDBRANCH  21  22
ENDBRANCH  16  21
ENDBRANCH   3  16
TORSDOF 10
ENDMDL
MODEL 6
REMARK VINA RESULT:      -4.6     16.340     18.089
REMARK  10 active torsions:
REMARK  status: ('A' for Active; 'I' for Inactive)
REMARK    1  A    between atoms: C_4  and  C_23 
REMARK    2  A    between atoms: N_11  and  C_14 
REMARK    3  A    between atoms: Se_12  and  C_13 
REMARK    4  A    between atoms: C_13  and  C_14 
REMARK    5  A    between atoms: C_14  and  C_15 
REMARK       I    between atoms: C_15  and  N_16 
REMARK    6  A    between atoms: N_16  and  C_23 
REMARK    7  A    between atoms: O_18  and  P_20 
REMARK    8  A    between atoms: P_20  and  O_21 
REMARK    9  A    between atoms: O_21  and  C_22 
REMARK   10  A    between atoms: C_22  and  C_23 
ROOT
HETATM    1  H           1     -21.385  -7.376  -7.137  0.00  0.00     0.163 HD
HETATM    2  O           1     -20.521  -4.629  -5.892  0.00  0.00    -0.271 OA
HETATM    3  C           1     -20.938  -5.398  -6.726  0.00  0.00     0.249 C 
HETATM    4  N           1     -21.035  -6.734  -6.438  0.00  0.00    -0.343 N 
ENDROOT
BRANCH   4   5
HETATM    5  C           1     -20.637  -7.224  -5.134  0.00  0.00     0.210 C 
BRANCH   5   6
HETATM    6  C           1     -19.895  -8.529  -5.293  0.00  0.00     0.198 C 
HETATM    7  O           1     -20.284  -9.547  -4.682  0.00  0.00    -0.646 OA
HETATM    8  O           1     -18.892  -8.591  -6.036  0.00  0.00    -0.646 OA
ENDBRANCH   5   6
BRANCH   5   9
HETATM    9  C           1     -21.876  -7.446  -4.276  0.00  0.00     0.217 C 
BRANCH   9  10
HETATM   10  O           1     -21.710  -6.806  -3.040  0.00  0.00    -0.287 OA
BRANCH  10  11
HETATM   11  P           1     -21.499  -7.771  -1.764  0.00  0.00     0.406 P 
HETATM   12  O           1     -20.061  -7.815  -1.411  0.00  0.00    -0.624 OA
HETATM   13  O           1     -22.272  -7.249  -0.615  0.00  0.00    -0.624 OA
BRANCH  11  14
HETATM   14  O           1     -22.011  -9.260  -2.124  0.00  0.00    -0.300 OA
HETATM   15  H           1     -22.553  -9.154  -2.887  0.00  0.00     0.223 HD
ENDBRANCH  11  14
ENDBRANCH  10  11
ENDBRANCH   9  10
ENDBRANCH   5   9
ENDBRANCH   4   5
BRANCH   3  16
HETATM   16  C           1     -21.353  -4.886  -8.083  0.00  0.00     0.274 C 
BRANCH  16  17
HETATM   17  N           1     -22.218  -3.673  -7.917  0.00  0.00    -0.067 N 
HETATM   18  H           1     -21.633  -2.813  -8.014  0.00  0.00     0.275 HD
HETATM   19  H           1     -22.662  -3.689  -6.971  0.00  0.00     0.275 HD
HETATM   20  H           1     -22.963  -3.673  -8.650  0.00  0.00     0.275 HD
ENDBRANCH  16  17
BRANCH  16  21
HETATM   21  C           1     -20.114  -4.520  -8.889  0.00  0.00     0.045 C 
BRANCH  21  22
HETATM   22 Se           1     -20.614  -4.218 -10.749  0.00  0.00     0.000 Se
HETATM   23  H           1     -22.061  -4.311 -10.496  0.00  0.00     0.000 HD
ENDBRANCH  21  22
ENDBRANCH  16  21
ENDBRANCH   3  16
TORSDOF 10
ENDMDL
MODEL 7
REMARK VINA RESULT:      -4.5     17.021     18.612
REMARK  10 active torsions:
REMARK  status: ('A' for Active; 'I' for Inactive)
REMARK    1  A    between atoms: C_4  and  C_23 
REMARK    2  A    between atoms: N_11  and  C_14 
REMARK    3  A    between atoms: Se_12  and  C_13 
REMARK    4  A    between atoms: C_13  and  C_14 
REMARK    5  A    between atoms: C_14  and  C_15 
REMARK       I    between atoms: C_15  and  N_16 
REMARK    6  A    between atoms: N_16  and  C_23 
REMARK    7  A    between atoms: O_18  and  P_20 
REMARK    8  A    between atoms: P_20  and  O_21 
REMARK    9  A    between atoms: O_21  and  C_22 
REMARK   10  A    between atoms: C_22  and  C_23 
ROOT
HETATM    1  H           1     -22.617  -9.366  -1.640  0.00  0.00     0.163 HD
HETATM    2  O           1     -19.504  -9.737  -1.747  0.00  0.00    -0.271 OA
HETATM    3  C           1     -20.657 -10.018  -1.521  0.00  0.00     0.249 C 
HETATM    4  N           1     -21.652  -9.128  -1.830  0.00  0.00    -0.343 N 
ENDROOT
BRANCH   4   5
HETATM    5  C           1     -21.322  -7.850  -2.427  0.00  0.00     0.210 C 
BRANCH   5   6
HETATM    6  C           1     -22.163  -6.768  -1.794  0.00  0.00     0.198 C 
HETATM    7  O           1     -22.310  -5.672  -2.376  0.00  0.00    -0.646 OA
HETATM    8  O           1     -22.711  -6.968  -0.689  0.00  0.00    -0.646 OA
ENDBRANCH   5   6
BRANCH   5   9
HETATM    9  C           1     -21.602  -7.902  -3.923  0.00  0.00     0.217 C 
BRANCH   9  10
HETATM   10  O           1     -20.559  -7.273  -4.617  0.00  0.00    -0.287 OA
BRANCH  10  11
HETATM   11  P           1     -20.995  -6.123  -5.662  0.00  0.00     0.406 P 
HETATM   12  O           1     -20.166  -4.916  -5.440  0.00  0.00    -0.624 OA
HETATM   13  O           1     -20.795  -6.610  -7.045  0.00  0.00    -0.624 OA
BRANCH  11  14
HETATM   14  O           1     -22.552  -5.756  -5.441  0.00  0.00    -0.300 OA
HETATM   15  H           1     -22.672  -4.928  -5.874  0.00  0.00     0.223 HD
ENDBRANCH  11  14
ENDBRANCH  10  11
ENDBRANCH   9  10
ENDBRANCH   5   9
ENDBRANCH   4   5
BRANCH   3  16
HETATM   16  C           1     -21.001 -11.349  -0.900  0.00  0.00     0.274 C 
BRANCH  16  17
HETATM   17  N           1     -19.772 -11.941  -0.276  0.00  0.00    -0.067 N 
HETATM   18  H           1     -18.954 -11.317  -0.459  0.00  0.00     0.275 HD
HETATM   19  H           1     -19.592 -12.884  -0.689  0.00  0.00     0.275 HD
HETATM   20  H           1     -19.915 -12.035   0.755  0.00  0.00     0.275 HD
ENDBRANCH  16  17
BRANCH  16  21
HETATM   21  C           1     -22.068 -11.152   0.169  0.00  0.00     0.045 C 
BRANCH  21  22
HETATM   22 Se           1     -23.772 -11.838  -0.481  0.00  0.00     0.000 Se
HETATM   23  H           1     -24.259 -10.526  -0.936  0.00  0.00     0.000 HD
ENDBRANCH  21  22
ENDBRANCH  16  21
ENDBRANCH   3  16
TORSDOF 10
ENDMDL
MODEL 8
REMARK VINA RESULT:      -4.5     16.831     18.365
REMARK  10 active torsions:
REMARK  status: ('A' for Active; 'I' for Inactive)
REMARK    1  A    between atoms: C_4  and  C_23 
REMARK    2  A    between atoms: N_11  and  C_14 
REMARK    3  A    between atoms: Se_12  and  C_13 
REMARK    4  A    between atoms: C_13  and  C_14 
REMARK    5  A    between atoms: C_14  and  C_15 
REMARK       I    between atoms: C_15  and  N_16 
REMARK    6  A    between atoms: N_16  and  C_23 
REMARK    7  A    between atoms: O_18  and  P_20 
REMARK    8  A    between atoms: P_20  and  O_21 
REMARK    9  A    between atoms: O_21  and  C_22 
REMARK   10  A    between atoms: C_22  and  C_23 
ROOT
HETATM    1  H           1     -21.845  -8.660  -3.784  0.00  0.00     0.163 HD
HETATM    2  O           1     -18.939  -9.073  -2.677  0.00  0.00    -0.271 OA
HETATM    3  C           1     -19.917  -9.277  -3.356  0.00  0.00     0.249 C 
HETATM    4  N           1     -21.027  -8.488  -3.213  0.00  0.00    -0.343 N 
ENDROOT
BRANCH   4   5
HETATM    5  C           1     -21.029  -7.408  -2.247  0.00  0.00     0.210 C 
BRANCH   5   6
HETATM    6  C           1     -22.056  -7.693  -1.178  0.00  0.00     0.198 C 
HETATM    7  O           1     -22.206  -8.858  -0.752  0.00  0.00    -0.646 OA
HETATM    8  O           1     -22.755  -6.764  -0.719  0.00  0.00    -0.646 OA
ENDBRANCH   5   6
BRANCH   5   9
HETATM    9  C           1     -21.375  -6.101  -2.948  0.00  0.00     0.217 C 
BRANCH   9  10
HETATM   10  O           1     -22.184  -6.366  -4.062  0.00  0.00    -0.287 OA
BRANCH  10  11
HETATM   11  P           1     -21.579  -5.936  -5.495  0.00  0.00     0.406 P 
HETATM   12  O           1     -21.162  -7.148  -6.237  0.00  0.00    -0.624 OA
HETATM   13  O           1     -22.611  -5.215  -6.272  0.00  0.00    -0.624 OA
BRANCH  11  14
HETATM   14  O           1     -20.302  -4.973  -5.274  0.00  0.00    -0.300 OA
HETATM   15  H           1     -19.575  -5.441  -5.646  0.00  0.00     0.223 HD
ENDBRANCH  11  14
ENDBRANCH  10  11
ENDBRANCH   9  10
ENDBRANCH   5   9
ENDBRANCH   4   5
BRANCH   3  16
HETATM   16  C           1     -19.914 -10.401  -4.363  0.00  0.00     0.274 C 
BRANCH  16  17
HETATM   17  N           1     -20.414  -9.892  -5.682  0.00  0.00    -0.067 N 
HETATM   18  H           1     -20.738 -10.696  -6.265  0.00  0.00     0.275 HD
HETATM   19  H           1     -19.643  -9.389  -6.176  0.00  0.00     0.275 HD
HETATM   20  H           1     -21.210  -9.234  -5.521  0.00  0.00     0.275 HD
ENDBRANCH  16  17
BRANCH  16  21
HETATM   21  C           1     -18.496 -10.933  -4.527  0.00  0.00     0.045 C 
BRANCH  21  22
HETATM   22 Se           1     -17.591  -9.942  -5.942  0.00  0.00     0.000 Se
HETATM   23  H           1     -16.349 -10.726  -5.855  0.00  0.00     0.000 HD
ENDBRANCH  21  22
ENDBRANCH  16  21
ENDBRANCH   3  16
TORSDOF 10
ENDMDL
MODEL 9
REMARK VINA RESULT:      -4.4      4.125      6.295
REMARK  10 active torsions:
REMARK  status: ('A' for Active; 'I' for Inactive)
REMARK    1  A    between atoms: C_4  and  C_23 
REMARK    2  A    between atoms: N_11  and  C_14 
REMARK    3  A    between atoms: Se_12  and  C_13 
REMARK    4  A    between atoms: C_13  and  C_14 
REMARK    5  A    between atoms: C_14  and  C_15 
REMARK       I    between atoms: C_15  and  N_16 
REMARK    6  A    between atoms: N_16  and  C_23 
REMARK    7  A    between atoms: O_18  and  P_20 
REMARK    8  A    between atoms: P_20  and  O_21 
REMARK    9  A    between atoms: O_21  and  C_22 
REMARK   10  A    between atoms: C_22  and  C_23 
ROOT
HETATM    1  H           1     -34.976  -2.649 -12.835  0.00  0.00     0.163 HD
HETATM    2  O           1     -34.769  -1.302 -10.009  0.00  0.00    -0.271 OA
HETATM    3  C           1     -35.195  -1.511 -11.120  0.00  0.00     0.249 C 
HETATM    4  N           1     -34.619  -2.475 -11.904  0.00  0.00    -0.343 N 
ENDROOT
BRANCH   4   5
HETATM    5  C           1     -33.499  -3.244 -11.401  0.00  0.00     0.210 C 
BRANCH   5   6
HETATM    6  C           1     -32.858  -4.001 -12.538  0.00  0.00     0.198 C 
HETATM    7  O           1     -33.391  -3.998 -13.669  0.00  0.00    -0.646 OA
HETATM    8  O           1     -31.795  -4.631 -12.350  0.00  0.00    -0.646 OA
ENDBRANCH   5   6
BRANCH   5   9
HETATM    9  C           1     -33.992  -4.229 -10.349  0.00  0.00     0.217 C 
BRANCH   9  10
HETATM   10  O           1     -34.937  -5.092 -10.922  0.00  0.00    -0.287 OA
BRANCH  10  11
HETATM   11  P           1     -34.661  -6.671 -10.734  0.00  0.00     0.406 P 
HETATM   12  O           1     -33.201  -6.917 -10.713  0.00  0.00    -0.624 OA
HETATM   13  O           1     -35.255  -7.129  -9.459  0.00  0.00    -0.624 OA
BRANCH  11  14
HETATM   14  O           1     -35.326  -7.485 -11.960  0.00  0.00    -0.300 OA
HETATM   15  H           1     -35.778  -6.833 -12.469  0.00  0.00     0.223 HD
ENDBRANCH  11  14
ENDBRANCH  10  11
ENDBRANCH   9  10
ENDBRANCH   5   9
ENDBRANCH   4   5
BRANCH   3  16
HETATM   16  C           1     -36.361  -0.709 -11.644  0.00  0.00     0.274 C 
BRANCH  16  17
HETATM   17  N           1     -36.994   0.047 -10.514  0.00  0.00    -0.067 N 
HETATM   18  H           1     -37.615  -0.593  -9.971  0.00  0.00     0.275 HD
HETATM   19  H           1     -37.558   0.839 -10.898  0.00  0.00     0.275 HD
HETATM   20  H           1     -36.248   0.424  -9.887  0.00  0.00     0.275 HD
ENDBRANCH  16  17
BRANCH  16  21
HETATM   21  C           1     -35.871   0.271 -12.701  0.00  0.00     0.045 C 
BRANCH  21  22
HETATM   22 Se           1     -36.702  -0.151 -14.413  0.00  0.00     0.000 Se
HETATM   23  H           1     -36.041  -1.459 -14.543  0.00  0.00     0.000 HD
ENDBRANCH  21  22
ENDBRANCH  16  21
ENDBRANCH   3  16
TORSDOF 10
ENDMDL
