MODEL 1
REMARK VINA RESULT:      -5.0      0.000      0.000
REMARK  8 active torsions:
REMARK  status: ('A' for Active; 'I' for Inactive)
REMARK    1  A    between atoms: C_3  and  C_19 
REMARK    2  A    between atoms: N_6  and  C_19 
REMARK       I    between atoms: N_6  and  C_7 
REMARK    3  A    between atoms: C_7  and  C_8 
REMARK    4  A    between atoms: C_8  and  C_9 
REMARK    5  A    between atoms: C_8  and  N_11 
REMARK    6  A    between atoms: C_9  and  Se_10 
REMARK    7  A    between atoms: Se_17  and  C_18 
REMARK    8  A    between atoms: C_18  and  C_19 
ROOT
HETATM    1  N           1     -34.972  -1.649 -13.127  0.00  0.00    -0.345 N 
HETATM    2  C           1     -34.322  -2.533 -12.308  0.00  0.00     0.249 C 
HETATM    3  O           1     -33.844  -2.151 -11.266  0.00  0.00    -0.271 OA
HETATM    4  H           1     -35.373  -1.969 -13.999  0.00  0.00     0.163 HD
ENDROOT
BRANCH   2   5
HETATM    5  C           1     -34.203  -3.984 -12.706  0.00  0.00     0.274 C 
BRANCH   5   6
HETATM    6  C           1     -33.219  -4.686 -11.779  0.00  0.00     0.045 C 
BRANCH   6   7
HETATM    7 Se           1     -34.151  -6.063 -10.764  0.00  0.00     0.000 Se
HETATM    8  H           1     -33.886  -7.129 -11.744  0.00  0.00     0.000 HD
ENDBRANCH   6   7
ENDBRANCH   5   6
BRANCH   5   9
HETATM    9  N           1     -33.709  -4.075 -14.119  0.00  0.00    -0.067 N 
HETATM   10  H           1     -34.466  -3.771 -14.773  0.00  0.00     0.275 HD
HETATM   11  H           1     -32.877  -3.454 -14.238  0.00  0.00     0.275 HD
HETATM   12  H           1     -33.442  -5.063 -14.332  0.00  0.00     0.275 HD
ENDBRANCH   5   9
ENDBRANCH   2   5
BRANCH   1  13
HETATM   13  C           1     -35.086  -0.256 -12.744  0.00  0.00     0.185 C 
BRANCH  13  14
HETATM   14  C           1     -36.336  -0.061 -11.922  0.00  0.00     0.196 C 
HETATM   15  O           1     -37.445  -0.413 -12.379  0.00  0.00    -0.646 OA
HETATM   16  O           1     -36.263   0.452 -10.785  0.00  0.00    -0.646 OA
ENDBRANCH  13  14
BRANCH  13  17
HETATM   17  C           1     -35.161   0.608 -13.997  0.00  0.00     0.039 C 
BRANCH  17  18
HETATM   18 Se           1     -35.673  -0.496 -15.519  0.00  0.00     0.000 Se
HETATM   19  H           1     -34.649   0.063 -16.417  0.00  0.00     0.000 HD
ENDBRANCH  17  18
ENDBRANCH  13  17
ENDBRANCH   1  13
TORSDOF 8
ENDMDL
MODEL 2
REMARK VINA RESULT:      -4.9      2.426      2.826
REMARK  8 active torsions:
REMARK  status: ('A' for Active; 'I' for Inactive)
REMARK    1  A    between atoms: C_3  and  C_19 
REMARK    2  A    between atoms: N_6  and  C_19 
REMARK       I    between atoms: N_6  and  C_7 
REMARK    3  A    between atoms: C_7  and  C_8 
REMARK    4  A    between atoms: C_8  and  C_9 
REMARK    5  A    between atoms: C_8  and  N_11 
REMARK    6  A    between atoms: C_9  and  Se_10 
REMARK    7  A    between atoms: Se_17  and  C_18 
REMARK    8  A    between atoms: C_18  and  C_19 
ROOT
HETATM    1  N           1     -35.266  -1.282 -12.488  0.00  0.00    -0.345 N 
HETATM    2  C           1     -34.576  -2.458 -12.614  0.00  0.00     0.249 C 
HETATM    3  O           1     -34.503  -3.004 -13.690  0.00  0.00    -0.271 OA
HETATM    4  H           1     -35.326  -0.825 -11.588  0.00  0.00     0.163 HD
ENDROOT
BRANCH   2   5
HETATM    5  C           1     -33.905  -3.071 -11.410  0.00  0.00     0.274 C 
BRANCH   5   6
HETATM    6  C           1     -34.816  -4.133 -10.806  0.00  0.00     0.045 C 
BRANCH   6   7
HETATM    7 Se           1     -33.971  -5.881 -10.963  0.00  0.00     0.000 Se
HETATM    8  H           1     -32.791  -5.511 -10.166  0.00  0.00     0.000 HD
ENDBRANCH   6   7
ENDBRANCH   5   6
BRANCH   5   9
HETATM    9  N           1     -33.637  -2.004 -10.390  0.00  0.00    -0.067 N 
HETATM   10  H           1     -32.731  -2.202  -9.908  0.00  0.00     0.275 HD
HETATM   11  H           1     -33.584  -1.075 -10.864  0.00  0.00     0.275 HD
HETATM   12  H           1     -34.411  -1.993  -9.687  0.00  0.00     0.275 HD
ENDBRANCH   5   9
ENDBRANCH   2   5
BRANCH   1  13
HETATM   13  C           1     -35.911  -0.693 -13.646  0.00  0.00     0.185 C 
BRANCH  13  14
HETATM   14  C           1     -35.020   0.378 -14.226  0.00  0.00     0.196 C 
HETATM   15  O           1     -34.773   1.410 -13.566  0.00  0.00    -0.646 OA
HETATM   16  O           1     -34.529   0.232 -15.366  0.00  0.00    -0.646 OA
ENDBRANCH  13  14
BRANCH  13  17
HETATM   17  C           1     -37.239  -0.077 -13.226  0.00  0.00     0.039 C 
BRANCH  17  18
HETATM   18 Se           1     -37.412  -0.163 -11.287  0.00  0.00     0.000 Se
HETATM   19  H           1     -38.876  -0.320 -11.308  0.00  0.00     0.000 HD
ENDBRANCH  17  18
ENDBRANCH  13  17
ENDBRANCH   1  13
TORSDOF 8
ENDMDL
MODEL 3
REMARK VINA RESULT:      -4.8     12.238     13.749
REMARK  8 active torsions:
REMARK  status: ('A' for Active; 'I' for Inactive)
REMARK    1  A    between atoms: C_3  and  C_19 
REMARK    2  A    between atoms: N_6  and  C_19 
REMARK       I    between atoms: N_6  and  C_7 
REMARK    3  A    between atoms: C_7  and  C_8 
REMARK    4  A    between atoms: C_8  and  C_9 
REMARK    5  A    between atoms: C_8  and  N_11 
REMARK    6  A    between atoms: C_9  and  Se_10 
REMARK    7  A    between atoms: Se_17  and  C_18 
REMARK    8  A    between atoms: C_18  and  C_19 
ROOT
HETATM    1  N           1     -22.184  -4.877  -8.825  0.00  0.00    -0.345 N 
HETATM    2  C           1     -21.611  -4.583  -7.617  0.00  0.00     0.249 C 
HETATM    3  O           1     -21.517  -3.434  -7.257  0.00  0.00    -0.271 OA
HETATM    4  H           1     -22.264  -5.840  -9.126  0.00  0.00     0.163 HD
ENDROOT
BRANCH   2   5
HETATM    5  C           1     -21.098  -5.695  -6.735  0.00  0.00     0.274 C 
BRANCH   5   6
HETATM    6  C           1     -20.710  -5.127  -5.375  0.00  0.00     0.045 C 
BRANCH   6   7
HETATM    7 Se           1     -21.389  -6.290  -3.967  0.00  0.00     0.000 Se
HETATM    8  H           1     -22.302  -5.277  -3.411  0.00  0.00     0.000 HD
ENDBRANCH   6   7
ENDBRANCH   5   6
BRANCH   5   9
HETATM    9  N           1     -19.896  -6.325  -7.374  0.00  0.00    -0.067 N 
HETATM   10  H           1     -19.933  -6.176  -8.408  0.00  0.00     0.275 HD
HETATM   11  H           1     -19.028  -5.887  -6.990  0.00  0.00     0.275 HD
HETATM   12  H           1     -19.891  -7.350  -7.170  0.00  0.00     0.275 HD
ENDBRANCH   5   9
ENDBRANCH   2   5
BRANCH   1  13
HETATM   13  C           1     -22.677  -3.809  -9.673  0.00  0.00     0.185 C 
BRANCH  13  14
HETATM   14  C           1     -24.185  -3.856  -9.715  0.00  0.00     0.196 C 
HETATM   15  O           1     -24.768  -4.921 -10.009  0.00  0.00    -0.646 OA
HETATM   16  O           1     -24.850  -2.830  -9.455  0.00  0.00    -0.646 OA
ENDBRANCH  13  14
BRANCH  13  17
HETATM   17  C           1     -22.123  -3.983 -11.081  0.00  0.00     0.039 C 
BRANCH  17  18
HETATM   18 Se           1     -22.953  -2.682 -12.271  0.00  0.00     0.000 Se
HETATM   19  H           1     -22.748  -1.544 -11.360  0.00  0.00     0.000 HD
ENDBRANCH  17  18
ENDBRANCH  13  17
ENDBRANCH   1  13
TORSDOF 8
ENDMDL
MODEL 4
REMARK VINA RESULT:      -4.5      2.903      4.870
REMARK  8 active torsions:
REMARK  status: ('A' for Active; 'I' for Inactive)
REMARK    1  A    between atoms: C_3  and  C_19 
REMARK    2  A    between atoms: N_6  and  C_19 
REMARK       I    between atoms: N_6  and  C_7 
REMARK    3  A    between atoms: C_7  and  C_8 
REMARK    4  A    between atoms: C_8  and  C_9 
REMARK    5  A    between atoms: C_8  and  N_11 
REMARK    6  A    between atoms: C_9  and  Se_10 
REMARK    7  A    between atoms: Se_17  and  C_18 
REMARK    8  A    between atoms: C_18  and  C_19 
ROOT
HETATM    1  N           1     -36.318  -0.725 -13.162  0.00  0.00    -0.345 N 
HETATM    2  C           1     -36.036   0.317 -14.005  0.00  0.00     0.249 C 
HETATM    3  O           1     -35.039   0.978 -13.836  0.00  0.00    -0.271 OA
HETATM    4  H           1     -37.153  -1.279 -13.304  0.00  0.00     0.163 HD
ENDROOT
BRANCH   2   5
HETATM    5  C           1     -36.971   0.638 -15.145  0.00  0.00     0.274 C 
BRANCH   5   6
HETATM    6  C           1     -37.220  -0.620 -15.968  0.00  0.00     0.045 C 
BRANCH   6   7
HETATM    7 Se           1     -35.533  -1.264 -16.699  0.00  0.00     0.000 Se
HETATM    8  H           1     -34.963   0.081 -16.877  0.00  0.00     0.000 HD
ENDBRANCH   6   7
ENDBRANCH   5   6
BRANCH   5   9
HETATM    9  N           1     -36.351   1.690 -16.017  0.00  0.00    -0.067 N 
HETATM   10  H           1     -37.105   2.262 -16.461  0.00  0.00     0.275 HD
HETATM   11  H           1     -35.741   2.309 -15.436  0.00  0.00     0.275 HD
HETATM   12  H           1     -35.777   1.232 -16.761  0.00  0.00     0.275 HD
ENDBRANCH   5   9
ENDBRANCH   2   5
BRANCH   1  13
HETATM   13  C           1     -35.420  -1.033 -12.066  0.00  0.00     0.185 C 
BRANCH  13  14
HETATM   14  C           1     -34.562  -2.217 -12.439  0.00  0.00     0.196 C 
HETATM   15  O           1     -34.693  -2.756 -13.558  0.00  0.00    -0.646 OA
HETATM   16  O           1     -33.720  -2.659 -11.627  0.00  0.00    -0.646 OA
ENDBRANCH  13  14
BRANCH  13  17
HETATM   17  C           1     -36.234  -1.367 -10.823  0.00  0.00     0.039 C 
BRANCH  17  18
HETATM   18 Se           1     -37.503   0.071 -10.472  0.00  0.00     0.000 Se
HETATM   19  H           1     -36.984   0.357  -9.124  0.00  0.00     0.000 HD
ENDBRANCH  17  18
ENDBRANCH  13  17
ENDBRANCH   1  13
TORSDOF 8
ENDMDL
MODEL 5
REMARK VINA RESULT:      -4.4     12.549     14.209
REMARK  8 active torsions:
REMARK  status: ('A' for Active; 'I' for Inactive)
REMARK    1  A    between atoms: C_3  and  C_19 
REMARK    2  A    between atoms: N_6  and  C_19 
REMARK       I    between atoms: N_6  and  C_7 
REMARK    3  A    between atoms: C_7  and  C_8 
REMARK    4  A    between atoms: C_8  and  C_9 
REMARK    5  A    between atoms: C_8  and  N_11 
REMARK    6  A    between atoms: C_9  and  Se_10 
REMARK    7  A    between atoms: Se_17  and  C_18 
REMARK    8  A    between atoms: C_18  and  C_19 
ROOT
HETATM    1  N           1     -21.869  -4.018  -9.633  0.00  0.00    -0.345 N 
HETATM    2  C           1     -20.645  -4.370  -9.130  0.00  0.00     0.249 C 
HETATM    3  O           1     -19.879  -5.019  -9.803  0.00  0.00    -0.271 OA
HETATM    4  H           1     -22.509  -3.474  -9.069  0.00  0.00     0.163 HD
ENDROOT
BRANCH   2   5
HETATM    5  C           1     -20.251  -3.947  -7.736  0.00  0.00     0.274 C 
BRANCH   5   6
HETATM    6  C           1     -19.734  -5.156  -6.966  0.00  0.00     0.045 C 
BRANCH   6   7
HETATM    7 Se           1     -21.018  -5.646  -5.585  0.00  0.00     0.000 Se
HETATM    8  H           1     -21.358  -6.940  -6.198  0.00  0.00     0.000 HD
ENDBRANCH   6   7
ENDBRANCH   5   6
BRANCH   5   9
HETATM    9  N           1     -21.447  -3.380  -7.031  0.00  0.00    -0.067 N 
HETATM   10  H           1     -21.201  -2.451  -6.620  0.00  0.00     0.275 HD
HETATM   11  H           1     -22.231  -3.263  -7.712  0.00  0.00     0.275 HD
HETATM   12  H           1     -21.742  -4.031  -6.268  0.00  0.00     0.275 HD
ENDBRANCH   5   9
ENDBRANCH   2   5
BRANCH   1  13
HETATM   13  C           1     -22.247  -4.425 -10.972  0.00  0.00     0.185 C 
BRANCH  13  14
HETATM   14  C           1     -22.013  -3.281 -11.929  0.00  0.00     0.196 C 
HETATM   15  O           1     -21.284  -2.324 -11.592  0.00  0.00    -0.646 OA
HETATM   16  O           1     -22.549  -3.292 -13.058  0.00  0.00    -0.646 OA
ENDBRANCH  13  14
BRANCH  13  17
HETATM   17  C           1     -23.721  -4.808 -10.988  0.00  0.00     0.039 C 
BRANCH  17  18
HETATM   18 Se           1     -24.727  -3.568  -9.870  0.00  0.00     0.000 Se
HETATM   19  H           1     -25.679  -4.586  -9.396  0.00  0.00     0.000 HD
ENDBRANCH  17  18
ENDBRANCH  13  17
ENDBRANCH   1  13
TORSDOF 8
ENDMDL
MODEL 6
REMARK VINA RESULT:      -4.1     15.015     16.884
REMARK  8 active torsions:
REMARK  status: ('A' for Active; 'I' for Inactive)
REMARK    1  A    between atoms: C_3  and  C_19 
REMARK    2  A    between atoms: N_6  and  C_19 
REMARK       I    between atoms: N_6  and  C_7 
REMARK    3  A    between atoms: C_7  and  C_8 
REMARK    4  A    between atoms: C_8  and  C_9 
REMARK    5  A    between atoms: C_8  and  N_11 
REMARK    6  A    between atoms: C_9  and  Se_10 
REMARK    7  A    between atoms: Se_17  and  C_18 
REMARK    8  A    between atoms: C_18  and  C_19 
ROOT
HETATM    1  N           1     -20.844  -6.679  -4.822  0.00  0.00    -0.345 N 
HETATM    2  C           1     -21.397  -5.763  -5.677  0.00  0.00     0.249 C 
HETATM    3  O           1     -22.594  -5.599  -5.694  0.00  0.00    -0.271 OA
HETATM    4  H           1     -19.841  -6.816  -4.807  0.00  0.00     0.163 HD
ENDROOT
BRANCH   2   5
HETATM    5  C           1     -20.511  -4.959  -6.596  0.00  0.00     0.274 C 
BRANCH   5   6
HETATM    6  C           1     -21.318  -3.824  -7.215  0.00  0.00     0.045 C 
BRANCH   6   7
HETATM    7 Se           1     -21.808  -4.294  -9.041  0.00  0.00     0.000 Se
HETATM    8  H           1     -20.496  -3.944  -9.607  0.00  0.00     0.000 HD
ENDBRANCH   6   7
ENDBRANCH   5   6
BRANCH   5   9
HETATM    9  N           1     -19.983  -5.846  -7.684  0.00  0.00    -0.067 N 
HETATM   10  H           1     -19.110  -5.431  -8.079  0.00  0.00     0.275 HD
HETATM   11  H           1     -19.772  -6.791  -7.290  0.00  0.00     0.275 HD
HETATM   12  H           1     -20.700  -5.935  -8.439  0.00  0.00     0.275 HD
ENDBRANCH   5   9
ENDBRANCH   2   5
BRANCH   1  13
HETATM   13  C           1     -21.695  -7.452  -3.938  0.00  0.00     0.185 C 
BRANCH  13  14
HETATM   14  C           1     -21.621  -6.880  -2.544  0.00  0.00     0.196 C 
HETATM   15  O           1     -22.328  -5.898  -2.233  0.00  0.00    -0.646 OA
HETATM   16  O           1     -20.853  -7.391  -1.699  0.00  0.00    -0.646 OA
ENDBRANCH  13  14
BRANCH  13  17
HETATM   17  C           1     -21.223  -8.900  -3.920  0.00  0.00     0.039 C 
BRANCH  17  18
HETATM   18 Se           1     -19.456  -9.018  -4.733  0.00  0.00     0.000 Se
HETATM   19  H           1     -18.930  -7.830  -4.040  0.00  0.00     0.000 HD
ENDBRANCH  17  18
ENDBRANCH  13  17
ENDBRANCH   1  13
TORSDOF 8
ENDMDL
MODEL 7
REMARK VINA RESULT:      -4.1     15.247     16.613
REMARK  8 active torsions:
REMARK  status: ('A' for Active; 'I' for Inactive)
REMARK    1  A    between atoms: C_3  and  C_19 
REMARK    2  A    between atoms: N_6  and  C_19 
REMARK       I    between atoms: N_6  and  C_7 
REMARK    3  A    between atoms: C_7  and  C_8 
REMARK    4  A    between atoms: C_8  and  C_9 
REMARK    5  A    between atoms: C_8  and  N_11 
REMARK    6  A    between atoms: C_9  and  Se_10 
REMARK    7  A    between atoms: Se_17  and  C_18 
REMARK    8  A    between atoms: C_18  and  C_19 
ROOT
HETATM    1  N           1     -20.996  -5.496  -5.011  0.00  0.00    -0.345 N 
HETATM    2  C           1     -21.517  -6.561  -4.324  0.00  0.00     0.249 C 
HETATM    3  O           1     -22.107  -7.432  -4.918  0.00  0.00    -0.271 OA
HETATM    4  H           1     -20.502  -4.767  -4.513  0.00  0.00     0.163 HD
ENDROOT
BRANCH   2   5
HETATM    5  C           1     -21.353  -6.646  -2.827  0.00  0.00     0.274 C 
BRANCH   5   6
HETATM    6  C           1     -21.436  -8.103  -2.389  0.00  0.00     0.045 C 
BRANCH   6   7
HETATM    7 Se           1     -19.707  -8.962  -2.652  0.00  0.00     0.000 Se
HETATM    8  H           1     -18.929  -7.782  -2.241  0.00  0.00     0.000 HD
ENDBRANCH   6   7
ENDBRANCH   5   6
BRANCH   5   9
HETATM    9  N           1     -22.443  -5.861  -2.160  0.00  0.00    -0.067 N 
HETATM   10  H           1     -22.132  -4.870  -2.036  0.00  0.00     0.275 HD
HETATM   11  H           1     -23.302  -5.884  -2.754  0.00  0.00     0.275 HD
HETATM   12  H           1     -22.652  -6.280  -1.225  0.00  0.00     0.275 HD
ENDBRANCH   5   9
ENDBRANCH   2   5
BRANCH   1  13
HETATM   13  C           1     -21.154  -5.414  -6.450  0.00  0.00     0.185 C 
BRANCH  13  14
HETATM   14  C           1     -19.824  -5.667  -7.116  0.00  0.00     0.196 C 
HETATM   15  O           1     -19.355  -6.824  -7.155  0.00  0.00    -0.646 OA
HETATM   16  O           1     -19.192  -4.717  -7.629  0.00  0.00    -0.646 OA
ENDBRANCH  13  14
BRANCH  13  17
HETATM   17  C           1     -21.656  -4.026  -6.826  0.00  0.00     0.039 C 
BRANCH  17  18
HETATM   18 Se           1     -22.717  -4.138  -8.457  0.00  0.00     0.000 Se
HETATM   19  H           1     -23.974  -4.451  -7.757  0.00  0.00     0.000 HD
ENDBRANCH  17  18
ENDBRANCH  13  17
ENDBRANCH   1  13
TORSDOF 8
ENDMDL
MODEL 8
REMARK VINA RESULT:      -4.0     12.088     14.101
REMARK  8 active torsions:
REMARK  status: ('A' for Active; 'I' for Inactive)
REMARK    1  A    between atoms: C_3  and  C_19 
REMARK    2  A    between atoms: N_6  and  C_19 
REMARK       I    between atoms: N_6  and  C_7 
REMARK    3  A    between atoms: C_7  and  C_8 
REMARK    4  A    between atoms: C_8  and  C_9 
REMARK    5  A    between atoms: C_8  and  N_11 
REMARK    6  A    between atoms: C_9  and  Se_10 
REMARK    7  A    between atoms: Se_17  and  C_18 
REMARK    8  A    between atoms: C_18  and  C_19 
ROOT
HETATM    1  N           1     -22.279  -3.970  -9.814  0.00  0.00    -0.345 N 
HETATM    2  C           1     -22.417  -3.343 -11.024  0.00  0.00     0.249 C 
HETATM    3  O           1     -21.531  -2.637 -11.442  0.00  0.00    -0.271 OA
HETATM    4  H           1     -23.021  -4.563  -9.464  0.00  0.00     0.163 HD
ENDROOT
BRANCH   2   5
HETATM    5  C           1     -23.675  -3.536 -11.834  0.00  0.00     0.274 C 
BRANCH   5   6
HETATM    6  C           1     -23.828  -2.382 -12.817  0.00  0.00     0.045 C 
BRANCH   6   7
HETATM    7 Se           1     -22.987  -2.854 -14.510  0.00  0.00     0.000 Se
HETATM    8  H           1     -24.008  -3.850 -14.873  0.00  0.00     0.000 HD
ENDBRANCH   6   7
ENDBRANCH   5   6
BRANCH   5   9
HETATM    9  N           1     -24.860  -3.570 -10.915  0.00  0.00    -0.067 N 
HETATM   10  H           1     -24.533  -3.546  -9.923  0.00  0.00     0.275 HD
HETATM   11  H           1     -25.469  -2.741 -11.101  0.00  0.00     0.275 HD
HETATM   12  H           1     -25.404  -4.447 -11.081  0.00  0.00     0.275 HD
ENDBRANCH   5   9
ENDBRANCH   2   5
BRANCH   1  13
HETATM   13  C           1     -21.070  -3.785  -9.036  0.00  0.00     0.185 C 
BRANCH  13  14
HETATM   14  C           1     -20.158  -4.971  -9.234  0.00  0.00     0.196 C 
HETATM   15  O           1     -19.948  -5.762  -8.290  0.00  0.00    -0.646 OA
HETATM   16  O           1     -19.613  -5.161 -10.343  0.00  0.00    -0.646 OA
ENDBRANCH  13  14
BRANCH  13  17
HETATM   17  C           1     -21.431  -3.662  -7.561  0.00  0.00     0.039 C 
BRANCH  17  18
HETATM   18 Se           1     -23.120  -4.577  -7.228  0.00  0.00     0.000 Se
HETATM   19  H           1     -23.873  -3.338  -6.968  0.00  0.00     0.000 HD
ENDBRANCH  17  18
ENDBRANCH  13  17
ENDBRANCH   1  13
TORSDOF 8
ENDMDL
MODEL 9
REMARK VINA RESULT:      -4.0     13.602     15.835
REMARK  8 active torsions:
REMARK  status: ('A' for Active; 'I' for Inactive)
REMARK    1  A    between atoms: C_3  and  C_19 
REMARK    2  A    between atoms: N_6  and  C_19 
REMARK       I    between atoms: N_6  and  C_7 
REMARK    3  A    between atoms: C_7  and  C_8 
REMARK    4  A    between atoms: C_8  and  C_9 
REMARK    5  A    between atoms: C_8  and  N_11 
REMARK    6  A    between atoms: C_9  and  Se_10 
REMARK    7  A    between atoms: Se_17  and  C_18 
REMARK    8  A    between atoms: C_18  and  C_19 
ROOT
HETATM    1  N           1     -21.970  -5.923  -6.766  0.00  0.00    -0.345 N 
HETATM    2  C           1     -21.936  -4.701  -7.383  0.00  0.00     0.249 C 
HETATM    3  O           1     -21.307  -3.793  -6.892  0.00  0.00    -0.271 OA
HETATM    4  H           1     -22.496  -6.683  -7.178  0.00  0.00     0.163 HD
ENDROOT
BRANCH   2   5
HETATM    5  C           1     -22.682  -4.488  -8.677  0.00  0.00     0.274 C 
BRANCH   5   6
HETATM    6  C           1     -21.792  -3.736  -9.659  0.00  0.00     0.045 C 
BRANCH   6   7
HETATM    7 Se           1     -22.303  -4.195 -11.482  0.00  0.00     0.000 Se
HETATM    8  H           1     -23.707  -3.784 -11.316  0.00  0.00     0.000 HD
ENDBRANCH   6   7
ENDBRANCH   5   6
BRANCH   5   9
HETATM    9  N           1     -23.922  -3.687  -8.412  0.00  0.00    -0.067 N 
HETATM   10  H           1     -24.676  -4.319  -8.060  0.00  0.00     0.275 HD
HETATM   11  H           1     -23.717  -2.956  -7.694  0.00  0.00     0.275 HD
HETATM   12  H           1     -24.236  -3.229  -9.297  0.00  0.00     0.275 HD
ENDBRANCH   5   9
ENDBRANCH   2   5
BRANCH   1  13
HETATM   13  C           1     -21.253  -6.127  -5.522  0.00  0.00     0.185 C 
BRANCH  13  14
HETATM   14  C           1     -20.072  -7.034  -5.767  0.00  0.00     0.196 C 
HETATM   15  O           1     -19.764  -7.900  -4.920  0.00  0.00    -0.646 OA
HETATM   16  O           1     -19.403  -6.919  -6.816  0.00  0.00    -0.646 OA
ENDBRANCH  13  14
BRANCH  13  17
HETATM   17  C           1     -22.183  -6.767  -4.500  0.00  0.00     0.039 C 
BRANCH  17  18
HETATM   18 Se           1     -21.688  -6.177  -2.710  0.00  0.00     0.000 Se
HETATM   19  H           1     -20.725  -5.168  -3.183  0.00  0.00     0.000 HD
ENDBRANCH  17  18
ENDBRANCH  13  17
ENDBRANCH   1  13
TORSDOF 8
ENDMDL
