MODEL 1
REMARK VINA RESULT:      -6.1      0.000      0.000
REMARK  9 active torsions:
REMARK  status: ('A' for Active; 'I' for Inactive)
REMARK    1  A    between atoms: Se_2  and  C_14 
REMARK       I    between atoms: C_3  and  N_4 
REMARK    2  A    between atoms: C_3  and  C_5 
REMARK    3  A    between atoms: C_5  and  C_6 
REMARK    4  A    between atoms: C_6  and  C_7 
REMARK    5  A    between atoms: C_6  and  N_10 
REMARK       I    between atoms: N_10  and  C_11 
REMARK    6  A    between atoms: C_11  and  C_12 
REMARK    7  A    between atoms: C_12  and  C_13 
REMARK    8  A    between atoms: C_12  and  N_19 
REMARK    9  A    between atoms: C_13  and  C_14 
ROOT
HETATM    1  N           1     -23.384  -4.202  -8.782  0.00  0.00    -0.344 N 
HETATM    2  C           1     -22.315  -4.116  -7.932  0.00  0.00     0.249 C 
HETATM    3  H           1     -24.233  -4.663  -8.482  0.00  0.00     0.163 HD
HETATM    4  O           1     -21.301  -3.566  -8.291  0.00  0.00    -0.271 OA
ENDROOT
BRANCH   1   5
HETATM    5  C           1     -23.299  -3.634 -10.114  0.00  0.00     0.194 C 
BRANCH   5   6
HETATM    6  C           1     -22.694  -4.659 -11.064  0.00  0.00     0.138 C 
BRANCH   6   7
HETATM    7  C           1     -21.613  -4.005 -11.889  0.00  0.00     0.217 C 
HETATM    8  O           1     -20.480  -3.959 -11.472  0.00  0.00    -0.274 OA
HETATM    9  N           1     -21.914  -3.463 -13.109  0.00  0.00    -0.370 N 
HETATM   10  H           1     -22.863  -3.501 -13.459  0.00  0.00     0.159 HD
HETATM   11  H           1     -21.189  -3.024 -13.661  0.00  0.00     0.159 HD
ENDBRANCH   6   7
ENDBRANCH   5   6
BRANCH   5  12
HETATM   12  C           1     -24.682  -3.261 -10.590  0.00  0.00     0.197 C 
HETATM   13  O           1     -25.610  -3.122  -9.764  0.00  0.00    -0.646 OA
HETATM   14  O           1     -24.898  -3.091 -11.809  0.00  0.00    -0.646 OA
ENDBRANCH   5  12
ENDBRANCH   1   5
BRANCH   2  15
HETATM   15  C           1     -22.404  -4.707  -6.546  0.00  0.00     0.274 C 
BRANCH  15  16
HETATM   16  C           1     -21.478  -5.912  -6.448  0.00  0.00     0.042 C 
BRANCH  16  17
HETATM   17  C           1     -20.774  -5.904  -5.097  0.00  0.00     0.003 C 
BRANCH  17  18
HETATM   18 Se           1     -21.480  -7.341  -3.987  0.00  0.00     0.000 Se
HETATM   19  C           1     -21.857  -6.195  -2.457  0.00  0.00     0.000 C 
ENDBRANCH  17  18
ENDBRANCH  16  17
ENDBRANCH  15  16
BRANCH  15  20
HETATM   20  N           1     -23.815  -5.137  -6.276  0.00  0.00    -0.067 N 
HETATM   21  H           1     -24.469  -4.587  -6.877  0.00  0.00     0.275 HD
HETATM   22  H           1     -23.916  -6.154  -6.494  0.00  0.00     0.275 HD
HETATM   23  H           1     -24.044  -4.972  -5.271  0.00  0.00     0.275 HD
ENDBRANCH  15  20
ENDBRANCH   2  15
TORSDOF 9
ENDMDL
MODEL 2
REMARK VINA RESULT:      -5.6      1.791      2.121
REMARK  9 active torsions:
REMARK  status: ('A' for Active; 'I' for Inactive)
REMARK    1  A    between atoms: Se_2  and  C_14 
REMARK       I    between atoms: C_3  and  N_4 
REMARK    2  A    between atoms: C_3  and  C_5 
REMARK    3  A    between atoms: C_5  and  C_6 
REMARK    4  A    between atoms: C_6  and  C_7 
REMARK    5  A    between atoms: C_6  and  N_10 
REMARK       I    between atoms: N_10  and  C_11 
REMARK    6  A    between atoms: C_11  and  C_12 
REMARK    7  A    between atoms: C_12  and  C_13 
REMARK    8  A    between atoms: C_12  and  N_19 
REMARK    9  A    between atoms: C_13  and  C_14 
ROOT
HETATM    1  N           1     -22.279  -4.872  -9.302  0.00  0.00    -0.344 N 
HETATM    2  C           1     -21.782  -4.432  -8.105  0.00  0.00     0.249 C 
HETATM    3  H           1     -22.181  -5.845  -9.563  0.00  0.00     0.163 HD
HETATM    4  O           1     -21.897  -3.271  -7.794  0.00  0.00    -0.271 OA
ENDROOT
BRANCH   1   5
HETATM    5  C           1     -22.945  -3.944 -10.195  0.00  0.00     0.194 C 
BRANCH   5   6
HETATM    6  C           1     -22.794  -4.428 -11.632  0.00  0.00     0.138 C 
BRANCH   6   7
HETATM    7  C           1     -23.510  -3.478 -12.561  0.00  0.00     0.217 C 
HETATM    8  O           1     -24.294  -3.906 -13.374  0.00  0.00    -0.274 OA
HETATM    9  N           1     -23.272  -2.132 -12.482  0.00  0.00    -0.370 N 
HETATM   10  H           1     -22.615  -1.774 -11.801  0.00  0.00     0.159 HD
HETATM   11  H           1     -23.753  -1.496 -13.105  0.00  0.00     0.159 HD
ENDBRANCH   6   7
ENDBRANCH   5   6
BRANCH   5  12
HETATM   12  C           1     -24.409  -3.869  -9.841  0.00  0.00     0.197 C 
HETATM   13  O           1     -24.944  -2.759  -9.627  0.00  0.00    -0.646 OA
HETATM   14  O           1     -25.088  -4.916  -9.760  0.00  0.00    -0.646 OA
ENDBRANCH   5  12
ENDBRANCH   1   5
BRANCH   2  15
HETATM   15  C           1     -21.089  -5.398  -7.175  0.00  0.00     0.274 C 
BRANCH  15  16
HETATM   16  C           1     -20.583  -4.648  -5.949  0.00  0.00     0.042 C 
BRANCH  16  17
HETATM   17  C           1     -20.684  -5.549  -4.725  0.00  0.00     0.003 C 
BRANCH  17  18
HETATM   18 Se           1     -22.225  -6.728  -4.910  0.00  0.00     0.000 Se
HETATM   19  C           1     -21.174  -8.368  -4.937  0.00  0.00     0.000 C 
ENDBRANCH  17  18
ENDBRANCH  16  17
ENDBRANCH  15  16
BRANCH  15  20
HETATM   20  N           1     -19.930  -6.031  -7.886  0.00  0.00    -0.067 N 
HETATM   21  H           1     -20.281  -6.769  -8.537  0.00  0.00     0.275 HD
HETATM   22  H           1     -19.416  -5.303  -8.431  0.00  0.00     0.275 HD
HETATM   23  H           1     -19.285  -6.463  -7.186  0.00  0.00     0.275 HD
ENDBRANCH  15  20
ENDBRANCH   2  15
TORSDOF 9
ENDMDL
MODEL 3
REMARK VINA RESULT:      -5.2      2.242      3.575
REMARK  9 active torsions:
REMARK  status: ('A' for Active; 'I' for Inactive)
REMARK    1  A    between atoms: Se_2  and  C_14 
REMARK       I    between atoms: C_3  and  N_4 
REMARK    2  A    between atoms: C_3  and  C_5 
REMARK    3  A    between atoms: C_5  and  C_6 
REMARK    4  A    between atoms: C_6  and  C_7 
REMARK    5  A    between atoms: C_6  and  N_10 
REMARK       I    between atoms: N_10  and  C_11 
REMARK    6  A    between atoms: C_11  and  C_12 
REMARK    7  A    between atoms: C_12  and  C_13 
REMARK    8  A    between atoms: C_12  and  N_19 
REMARK    9  A    between atoms: C_13  and  C_14 
ROOT
HETATM    1  N           1     -21.857  -4.820  -7.115  0.00  0.00    -0.344 N 
HETATM    2  C           1     -21.358  -5.930  -6.490  0.00  0.00     0.249 C 
HETATM    3  H           1     -22.244  -4.062  -6.567  0.00  0.00     0.163 HD
HETATM    4  O           1     -20.898  -6.835  -7.144  0.00  0.00    -0.271 OA
ENDROOT
BRANCH   1   5
HETATM    5  C           1     -21.833  -4.729  -8.561  0.00  0.00     0.194 C 
BRANCH   5   6
HETATM    6  C           1     -22.827  -3.671  -9.020  0.00  0.00     0.138 C 
BRANCH   6   7
HETATM    7  C           1     -23.960  -4.334  -9.766  0.00  0.00     0.217 C 
HETATM    8  O           1     -23.735  -5.267 -10.499  0.00  0.00    -0.274 OA
HETATM    9  N           1     -25.241  -3.878  -9.612  0.00  0.00    -0.370 N 
HETATM   10  H           1     -25.430  -3.096  -8.998  0.00  0.00     0.159 HD
HETATM   11  H           1     -26.000  -4.322 -10.113  0.00  0.00     0.159 HD
ENDBRANCH   6   7
ENDBRANCH   5   6
BRANCH   5  12
HETATM   12  C           1     -20.446  -4.347  -9.017  0.00  0.00     0.197 C 
HETATM   13  O           1     -20.037  -4.708 -10.143  0.00  0.00    -0.646 OA
HETATM   14  O           1     -19.706  -3.672  -8.270  0.00  0.00    -0.646 OA
ENDBRANCH   5  12
ENDBRANCH   1   5
BRANCH   2  15
HETATM   15  C           1     -21.384  -6.024  -4.984  0.00  0.00     0.274 C 
BRANCH  15  16
HETATM   16  C           1     -20.562  -7.225  -4.535  0.00  0.00     0.042 C 
BRANCH  16  17
HETATM   17  C           1     -21.393  -8.089  -3.596  0.00  0.00     0.003 C 
BRANCH  17  18
HETATM   18 Se           1     -20.634  -8.017  -1.803  0.00  0.00     0.000 Se
HETATM   19  C           1     -22.070  -9.043  -0.976  0.00  0.00     0.000 C 
ENDBRANCH  17  18
ENDBRANCH  16  17
ENDBRANCH  15  16
BRANCH  15  20
HETATM   20  N           1     -22.800  -6.187  -4.518  0.00  0.00    -0.067 N 
HETATM   21  H           1     -22.971  -7.186  -4.263  0.00  0.00     0.275 HD
HETATM   22  H           1     -22.963  -5.582  -3.681  0.00  0.00     0.275 HD
HETATM   23  H           1     -23.454  -5.906  -5.283  0.00  0.00     0.275 HD
ENDBRANCH  15  20
ENDBRANCH   2  15
TORSDOF 9
ENDMDL
MODEL 4
REMARK VINA RESULT:      -5.1      4.127      7.190
REMARK  9 active torsions:
REMARK  status: ('A' for Active; 'I' for Inactive)
REMARK    1  A    between atoms: Se_2  and  C_14 
REMARK       I    between atoms: C_3  and  N_4 
REMARK    2  A    between atoms: C_3  and  C_5 
REMARK    3  A    between atoms: C_5  and  C_6 
REMARK    4  A    between atoms: C_6  and  C_7 
REMARK    5  A    between atoms: C_6  and  N_10 
REMARK       I    between atoms: N_10  and  C_11 
REMARK    6  A    between atoms: C_11  and  C_12 
REMARK    7  A    between atoms: C_12  and  C_13 
REMARK    8  A    between atoms: C_12  and  N_19 
REMARK    9  A    between atoms: C_13  and  C_14 
ROOT
HETATM    1  N           1     -20.899  -6.221  -4.898  0.00  0.00    -0.344 N 
HETATM    2  C           1     -21.446  -5.351  -5.802  0.00  0.00     0.249 C 
HETATM    3  H           1     -19.899  -6.231  -4.747  0.00  0.00     0.163 HD
HETATM    4  O           1     -22.640  -5.339  -5.983  0.00  0.00    -0.271 OA
ENDROOT
BRANCH   1   5
HETATM    5  C           1     -21.753  -7.129  -4.158  0.00  0.00     0.194 C 
BRANCH   5   6
HETATM    6  C           1     -21.300  -8.563  -4.401  0.00  0.00     0.138 C 
BRANCH   6   7
HETATM    7  C           1     -19.844  -8.571  -4.798  0.00  0.00     0.217 C 
HETATM    8  O           1     -19.525  -8.293  -5.929  0.00  0.00    -0.274 OA
HETATM    9  N           1     -18.885  -8.894  -3.876  0.00  0.00    -0.370 N 
HETATM   10  H           1     -19.152  -9.127  -2.928  0.00  0.00     0.159 HD
HETATM   11  H           1     -17.909  -8.899  -4.142  0.00  0.00     0.159 HD
ENDBRANCH   6   7
ENDBRANCH   5   6
BRANCH   5  12
HETATM   12  C           1     -21.663  -6.816  -2.685  0.00  0.00     0.197 C 
HETATM   13  O           1     -22.385  -5.922  -2.191  0.00  0.00    -0.646 OA
HETATM   14  O           1     -20.866  -7.449  -1.959  0.00  0.00    -0.646 OA
ENDBRANCH   5  12
ENDBRANCH   1   5
BRANCH   2  15
HETATM   15  C           1     -20.557  -4.405  -6.572  0.00  0.00     0.274 C 
BRANCH  15  16
HETATM   16  C           1     -21.359  -3.747  -7.686  0.00  0.00     0.042 C 
BRANCH  16  17
HETATM   17  C           1     -21.120  -4.491  -8.994  0.00  0.00     0.003 C 
BRANCH  17  18
HETATM   18 Se           1     -22.763  -4.510 -10.042  0.00  0.00     0.000 Se
HETATM   19  C           1     -21.898  -4.003 -11.712  0.00  0.00     0.000 C 
ENDBRANCH  17  18
ENDBRANCH  16  17
ENDBRANCH  15  16
BRANCH  15  20
HETATM   20  N           1     -19.411  -5.170  -7.167  0.00  0.00    -0.067 N 
HETATM   21  H           1     -19.579  -5.311  -8.189  0.00  0.00     0.275 HD
HETATM   22  H           1     -18.526  -4.632  -7.031  0.00  0.00     0.275 HD
HETATM   23  H           1     -19.331  -6.099  -6.696  0.00  0.00     0.275 HD
ENDBRANCH  15  20
ENDBRANCH   2  15
TORSDOF 9
ENDMDL
MODEL 5
REMARK VINA RESULT:      -5.1      6.113      9.324
REMARK  9 active torsions:
REMARK  status: ('A' for Active; 'I' for Inactive)
REMARK    1  A    between atoms: Se_2  and  C_14 
REMARK       I    between atoms: C_3  and  N_4 
REMARK    2  A    between atoms: C_3  and  C_5 
REMARK    3  A    between atoms: C_5  and  C_6 
REMARK    4  A    between atoms: C_6  and  C_7 
REMARK    5  A    between atoms: C_6  and  N_10 
REMARK       I    between atoms: N_10  and  C_11 
REMARK    6  A    between atoms: C_11  and  C_12 
REMARK    7  A    between atoms: C_12  and  C_13 
REMARK    8  A    between atoms: C_12  and  N_19 
REMARK    9  A    between atoms: C_13  and  C_14 
ROOT
HETATM    1  N           1     -21.457  -8.705  -2.421  0.00  0.00    -0.344 N 
HETATM    2  C           1     -20.404  -8.494  -3.268  0.00  0.00     0.249 C 
HETATM    3  H           1     -22.376  -8.353  -2.658  0.00  0.00     0.163 HD
HETATM    4  O           1     -19.307  -8.913  -2.983  0.00  0.00    -0.271 OA
ENDROOT
BRANCH   1   5
HETATM    5  C           1     -21.258  -9.431  -1.182  0.00  0.00     0.194 C 
BRANCH   5   6
HETATM    6  C           1     -21.340  -8.465  -0.008  0.00  0.00     0.138 C 
BRANCH   6   7
HETATM    7  C           1     -22.602  -7.645  -0.118  0.00  0.00     0.217 C 
HETATM    8  O           1     -22.644  -6.699  -0.868  0.00  0.00    -0.274 OA
HETATM    9  N           1     -23.700  -7.972   0.632  0.00  0.00    -0.370 N 
HETATM   10  H           1     -23.665  -8.765   1.260  0.00  0.00     0.159 HD
HETATM   11  H           1     -24.546  -7.422   0.557  0.00  0.00     0.159 HD
ENDBRANCH   6   7
ENDBRANCH   5   6
BRANCH   5  12
HETATM   12  C           1     -22.327 -10.487  -1.041  0.00  0.00     0.197 C 
HETATM   13  O           1     -22.513 -11.044   0.063  0.00  0.00    -0.646 OA
HETATM   14  O           1     -23.025 -10.805  -2.028  0.00  0.00    -0.646 OA
ENDBRANCH   5  12
ENDBRANCH   1   5
BRANCH   2  15
HETATM   15  C           1     -20.612  -7.738  -4.557  0.00  0.00     0.274 C 
BRANCH  15  16
HETATM   16  C           1     -21.762  -6.754  -4.389  0.00  0.00     0.042 C 
BRANCH  16  17
HETATM   17  C           1     -21.940  -5.954  -5.674  0.00  0.00     0.003 C 
BRANCH  17  18
HETATM   18 Se           1     -20.377  -4.827  -5.960  0.00  0.00     0.000 Se
HETATM   19  C           1     -21.245  -3.673  -7.268  0.00  0.00     0.000 C 
ENDBRANCH  17  18
ENDBRANCH  16  17
ENDBRANCH  15  16
BRANCH  15  20
HETATM   20  N           1     -20.939  -8.705  -5.656  0.00  0.00    -0.067 N 
HETATM   21  H           1     -21.973  -8.845  -5.700  0.00  0.00     0.275 HD
HETATM   22  H           1     -20.600  -8.322  -6.568  0.00  0.00     0.275 HD
HETATM   23  H           1     -20.471  -9.619  -5.466  0.00  0.00     0.275 HD
ENDBRANCH  15  20
ENDBRANCH   2  15
TORSDOF 9
ENDMDL
MODEL 6
REMARK VINA RESULT:      -5.0      5.310      8.835
REMARK  9 active torsions:
REMARK  status: ('A' for Active; 'I' for Inactive)
REMARK    1  A    between atoms: Se_2  and  C_14 
REMARK       I    between atoms: C_3  and  N_4 
REMARK    2  A    between atoms: C_3  and  C_5 
REMARK    3  A    between atoms: C_5  and  C_6 
REMARK    4  A    between atoms: C_6  and  C_7 
REMARK    5  A    between atoms: C_6  and  N_10 
REMARK       I    between atoms: N_10  and  C_11 
REMARK    6  A    between atoms: C_11  and  C_12 
REMARK    7  A    between atoms: C_12  and  C_13 
REMARK    8  A    between atoms: C_12  and  N_19 
REMARK    9  A    between atoms: C_13  and  C_14 
ROOT
HETATM    1  N           1     -21.571  -8.153  -3.130  0.00  0.00    -0.344 N 
HETATM    2  C           1     -20.847  -7.903  -4.264  0.00  0.00     0.249 C 
HETATM    3  H           1     -22.514  -7.796  -3.043  0.00  0.00     0.163 HD
HETATM    4  O           1     -19.721  -8.328  -4.367  0.00  0.00    -0.271 OA
ENDROOT
BRANCH   1   5
HETATM    5  C           1     -20.988  -8.928  -2.052  0.00  0.00     0.194 C 
BRANCH   5   6
HETATM    6  C           1     -20.951  -8.085  -0.784  0.00  0.00     0.138 C 
BRANCH   6   7
HETATM    7  C           1     -22.305  -7.461  -0.554  0.00  0.00     0.217 C 
HETATM    8  O           1     -22.622  -6.465  -1.160  0.00  0.00    -0.274 OA
HETATM    9  N           1     -23.176  -8.023   0.341  0.00  0.00    -0.370 N 
HETATM   10  H           1     -22.911  -8.857   0.848  0.00  0.00     0.159 HD
HETATM   11  H           1     -24.084  -7.604   0.494  0.00  0.00     0.159 HD
ENDBRANCH   6   7
ENDBRANCH   5   6
BRANCH   5  12
HETATM   12  C           1     -21.822 -10.162  -1.813  0.00  0.00     0.197 C 
HETATM   13  O           1     -22.564 -10.600  -2.719  0.00  0.00    -0.646 OA
HETATM   14  O           1     -21.770 -10.747  -0.710  0.00  0.00    -0.646 OA
ENDBRANCH   5  12
ENDBRANCH   1   5
BRANCH   2  15
HETATM   15  C           1     -21.454  -7.096  -5.385  0.00  0.00     0.274 C 
BRANCH  15  16
HETATM   16  C           1     -20.401  -6.165  -5.970  0.00  0.00     0.042 C 
BRANCH  16  17
HETATM   17  C           1     -20.822  -5.735  -7.369  0.00  0.00     0.003 C 
BRANCH  17  18
HETATM   18 Se           1     -21.278  -3.840  -7.357  0.00  0.00     0.000 Se
HETATM   19  C           1     -22.791  -4.028  -8.570  0.00  0.00     0.000 C 
ENDBRANCH  17  18
ENDBRANCH  16  17
ENDBRANCH  15  16
BRANCH  15  20
HETATM   20  N           1     -22.598  -6.284  -4.853  0.00  0.00    -0.067 N 
HETATM   21  H           1     -22.234  -5.391  -4.451  0.00  0.00     0.275 HD
HETATM   22  H           1     -23.263  -6.070  -5.630  0.00  0.00     0.275 HD
HETATM   23  H           1     -23.093  -6.825  -4.109  0.00  0.00     0.275 HD
ENDBRANCH  15  20
ENDBRANCH   2  15
TORSDOF 9
ENDMDL
MODEL 7
REMARK VINA RESULT:      -5.0      4.094      7.347
REMARK  9 active torsions:
REMARK  status: ('A' for Active; 'I' for Inactive)
REMARK    1  A    between atoms: Se_2  and  C_14 
REMARK       I    between atoms: C_3  and  N_4 
REMARK    2  A    between atoms: C_3  and  C_5 
REMARK    3  A    between atoms: C_5  and  C_6 
REMARK    4  A    between atoms: C_6  and  C_7 
REMARK    5  A    between atoms: C_6  and  N_10 
REMARK       I    between atoms: N_10  and  C_11 
REMARK    6  A    between atoms: C_11  and  C_12 
REMARK    7  A    between atoms: C_12  and  C_13 
REMARK    8  A    between atoms: C_12  and  N_19 
REMARK    9  A    between atoms: C_13  and  C_14 
ROOT
HETATM    1  N           1     -21.309  -5.927  -5.977  0.00  0.00    -0.344 N 
HETATM    2  C           1     -20.562  -4.847  -6.362  0.00  0.00     0.249 C 
HETATM    3  H           1     -22.135  -6.184  -6.503  0.00  0.00     0.163 HD
HETATM    4  O           1     -19.577  -4.540  -5.734  0.00  0.00    -0.271 OA
ENDROOT
BRANCH   1   5
HETATM    5  C           1     -20.919  -6.703  -4.816  0.00  0.00     0.194 C 
BRANCH   5   6
HETATM    6  C           1     -22.123  -6.890  -3.903  0.00  0.00     0.138 C 
BRANCH   6   7
HETATM    7  C           1     -21.708  -6.670  -2.469  0.00  0.00     0.217 C 
HETATM    8  O           1     -20.879  -7.388  -1.964  0.00  0.00    -0.274 OA
HETATM    9  N           1     -22.271  -5.657  -1.741  0.00  0.00    -0.370 N 
HETATM   10  H           1     -22.966  -5.055  -2.164  0.00  0.00     0.159 HD
HETATM   11  H           1     -21.993  -5.510  -0.779  0.00  0.00     0.159 HD
ENDBRANCH   6   7
ENDBRANCH   5   6
BRANCH   5  12
HETATM   12  C           1     -20.410  -8.052  -5.261  0.00  0.00     0.197 C 
HETATM   13  O           1     -21.122  -8.780  -5.986  0.00  0.00    -0.646 OA
HETATM   14  O           1     -19.276  -8.440  -4.905  0.00  0.00    -0.646 OA
ENDBRANCH   5  12
ENDBRANCH   1   5
BRANCH   2  15
HETATM   15  C           1     -20.969  -4.040  -7.571  0.00  0.00     0.274 C 
BRANCH  15  16
HETATM   16  C           1     -22.029  -4.800  -8.356  0.00  0.00     0.042 C 
BRANCH  16  17
HETATM   17  C           1     -22.351  -4.046  -9.640  0.00  0.00     0.003 C 
BRANCH  17  18
HETATM   18 Se           1     -24.244  -3.582  -9.665  0.00  0.00     0.000 Se
HETATM   19  C           1     -24.305  -3.250 -11.584  0.00  0.00     0.000 C 
ENDBRANCH  17  18
ENDBRANCH  16  17
ENDBRANCH  15  16
BRANCH  15  20
HETATM   20  N           1     -19.771  -3.810  -8.444  0.00  0.00    -0.067 N 
HETATM   21  H           1     -18.980  -3.451  -7.863  0.00  0.00     0.275 HD
HETATM   22  H           1     -19.491  -4.710  -8.895  0.00  0.00     0.275 HD
HETATM   23  H           1     -20.007  -3.109  -9.182  0.00  0.00     0.275 HD
ENDBRANCH  15  20
ENDBRANCH   2  15
TORSDOF 9
ENDMDL
MODEL 8
REMARK VINA RESULT:      -4.7      1.692      2.573
REMARK  9 active torsions:
REMARK  status: ('A' for Active; 'I' for Inactive)
REMARK    1  A    between atoms: Se_2  and  C_14 
REMARK       I    between atoms: C_3  and  N_4 
REMARK    2  A    between atoms: C_3  and  C_5 
REMARK    3  A    between atoms: C_5  and  C_6 
REMARK    4  A    between atoms: C_6  and  C_7 
REMARK    5  A    between atoms: C_6  and  N_10 
REMARK       I    between atoms: N_10  and  C_11 
REMARK    6  A    between atoms: C_11  and  C_12 
REMARK    7  A    between atoms: C_12  and  C_13 
REMARK    8  A    between atoms: C_12  and  N_19 
REMARK    9  A    between atoms: C_13  and  C_14 
ROOT
HETATM    1  N           1     -22.999  -3.685  -9.378  0.00  0.00    -0.344 N 
HETATM    2  C           1     -22.370  -4.601  -8.580  0.00  0.00     0.249 C 
HETATM    3  H           1     -23.482  -2.898  -8.962  0.00  0.00     0.163 HD
HETATM    4  O           1     -21.795  -5.540  -9.077  0.00  0.00    -0.271 OA
ENDROOT
BRANCH   1   5
HETATM    5  C           1     -22.976  -3.840 -10.820  0.00  0.00     0.194 C 
BRANCH   5   6
HETATM    6  C           1     -24.101  -3.019 -11.436  0.00  0.00     0.138 C 
BRANCH   6   7
HETATM    7  C           1     -24.028  -3.115 -12.941  0.00  0.00     0.217 C 
HETATM    8  O           1     -24.279  -4.161 -13.491  0.00  0.00    -0.274 OA
HETATM    9  N           1     -23.680  -2.018 -13.681  0.00  0.00    -0.370 N 
HETATM   10  H           1     -23.470  -1.142 -13.220  0.00  0.00     0.159 HD
HETATM   11  H           1     -23.631  -2.083 -14.690  0.00  0.00     0.159 HD
ENDBRANCH   6   7
ENDBRANCH   5   6
BRANCH   5  12
HETATM   12  C           1     -21.650  -3.360 -11.355  0.00  0.00     0.197 C 
HETATM   13  O           1     -20.769  -4.187 -11.677  0.00  0.00    -0.646 OA
HETATM   14  O           1     -21.432  -2.135 -11.477  0.00  0.00    -0.646 OA
ENDBRANCH   5  12
ENDBRANCH   1   5
BRANCH   2  15
HETATM   15  C           1     -22.394  -4.439  -7.080  0.00  0.00     0.274 C 
BRANCH  15  16
HETATM   16  C           1     -21.545  -5.528  -6.438  0.00  0.00     0.042 C 
BRANCH  16  17
HETATM   17  C           1     -22.351  -6.225  -5.349  0.00  0.00     0.003 C 
BRANCH  17  18
HETATM   18 Se           1     -21.140  -6.930  -3.994  0.00  0.00     0.000 Se
HETATM   19  C           1     -19.942  -7.782  -5.273  0.00  0.00     0.000 C 
ENDBRANCH  17  18
ENDBRANCH  16  17
ENDBRANCH  15  16
BRANCH  15  20
HETATM   20  N           1     -23.807  -4.552  -6.589  0.00  0.00    -0.067 N 
HETATM   21  H           1     -24.025  -5.553  -6.384  0.00  0.00     0.275 HD
HETATM   22  H           1     -23.918  -3.987  -5.717  0.00  0.00     0.275 HD
HETATM   23  H           1     -24.460  -4.196  -7.322  0.00  0.00     0.275 HD
ENDBRANCH  15  20
ENDBRANCH   2  15
TORSDOF 9
ENDMDL
MODEL 9
REMARK VINA RESULT:      -4.7      3.379      6.889
REMARK  9 active torsions:
REMARK  status: ('A' for Active; 'I' for Inactive)
REMARK    1  A    between atoms: Se_2  and  C_14 
REMARK       I    between atoms: C_3  and  N_4 
REMARK    2  A    between atoms: C_3  and  C_5 
REMARK    3  A    between atoms: C_5  and  C_6 
REMARK    4  A    between atoms: C_6  and  C_7 
REMARK    5  A    between atoms: C_6  and  N_10 
REMARK       I    between atoms: N_10  and  C_11 
REMARK    6  A    between atoms: C_11  and  C_12 
REMARK    7  A    between atoms: C_12  and  C_13 
REMARK    8  A    between atoms: C_12  and  N_19 
REMARK    9  A    between atoms: C_13  and  C_14 
ROOT
HETATM    1  N           1     -21.378  -5.395  -8.123  0.00  0.00    -0.344 N 
HETATM    2  C           1     -21.831  -4.235  -8.691  0.00  0.00     0.249 C 
HETATM    3  H           1     -21.122  -6.179  -8.709  0.00  0.00     0.163 HD
HETATM    4  O           1     -22.136  -3.299  -7.991  0.00  0.00    -0.271 OA
ENDROOT
BRANCH   1   5
HETATM    5  C           1     -21.264  -5.500  -6.681  0.00  0.00     0.194 C 
BRANCH   5   6
HETATM    6  C           1     -21.304  -6.968  -6.276  0.00  0.00     0.138 C 
BRANCH   6   7
HETATM    7  C           1     -21.449  -7.072  -4.777  0.00  0.00     0.217 C 
HETATM    8  O           1     -20.751  -7.837  -4.155  0.00  0.00    -0.274 OA
HETATM    9  N           1     -22.372  -6.302  -4.123  0.00  0.00    -0.370 N 
HETATM   10  H           1     -22.957  -5.661  -4.644  0.00  0.00     0.159 HD
HETATM   11  H           1     -22.469  -6.372  -3.118  0.00  0.00     0.159 HD
ENDBRANCH   6   7
ENDBRANCH   5   6
BRANCH   5  12
HETATM   12  C           1     -19.958  -4.890  -6.235  0.00  0.00     0.197 C 
HETATM   13  O           1     -19.863  -4.381  -5.096  0.00  0.00    -0.646 OA
HETATM   14  O           1     -18.972  -4.893  -7.002  0.00  0.00    -0.646 OA
ENDBRANCH   5  12
ENDBRANCH   1   5
BRANCH   2  15
HETATM   15  C           1     -21.949  -4.125 -10.191  0.00  0.00     0.274 C 
BRANCH  15  16
HETATM   16  C           1     -23.120  -4.972 -10.672  0.00  0.00     0.042 C 
BRANCH  16  17
HETATM   17  C           1     -23.543  -4.515 -12.062  0.00  0.00     0.003 C 
BRANCH  17  18
HETATM   18 Se           1     -23.062  -2.642 -12.304  0.00  0.00     0.000 Se
HETATM   19  C           1     -22.998  -2.740 -14.249  0.00  0.00     0.000 C 
ENDBRANCH  17  18
ENDBRANCH  16  17
ENDBRANCH  15  16
BRANCH  15  20
HETATM   20  N           1     -20.684  -4.616 -10.829  0.00  0.00    -0.067 N 
HETATM   21  H           1     -20.653  -5.660 -10.786  0.00  0.00     0.275 HD
HETATM   22  H           1     -20.655  -4.308 -11.827  0.00  0.00     0.275 HD
HETATM   23  H           1     -19.861  -4.223 -10.319  0.00  0.00     0.275 HD
ENDBRANCH  15  20
ENDBRANCH   2  15
TORSDOF 9
ENDMDL
