MODEL 1
REMARK VINA RESULT:      -6.3      0.000      0.000
REMARK  8 active torsions:
REMARK  status: ('A' for Active; 'I' for Inactive)
REMARK    1  A    between atoms: C_1  and  C_9 
REMARK    2  A    between atoms: C_1  and  C_18 
REMARK       I    between atoms: C_2  and  N_3 
REMARK    3  A    between atoms: C_2  and  C_9 
REMARK    4  A    between atoms: N_3  and  C_12 
REMARK    5  A    between atoms: C_7  and  C_12 
REMARK    6  A    between atoms: C_9  and  N_16 
REMARK    7  A    between atoms: C_10  and  C_20 
REMARK    8  A    between atoms: C_12  and  C_20 
ROOT
HETATM    1  C           1     -22.305  -4.112  -7.719  0.00  0.00     0.249 C 
HETATM    2  N           1     -23.122  -4.460  -8.760  0.00  0.00    -0.345 N 
HETATM    3  H           1     -23.761  -5.239  -8.663  0.00  0.00     0.163 HD
HETATM    4  O           1     -21.541  -3.183  -7.834  0.00  0.00    -0.271 OA
ENDROOT
BRANCH   1   5
HETATM    5  C           1     -22.356  -4.890  -6.426  0.00  0.00     0.278 C 
BRANCH   5   6
HETATM    6  C           1     -21.511  -6.150  -6.557  0.00  0.00     0.021 C 
HETATM    7  C           1     -20.035  -5.771  -6.580  0.00  0.00     0.012 C 
BRANCH   6   8
HETATM    8  C           1     -21.779  -7.067  -5.371  0.00  0.00     0.002 C 
HETATM    9  C           1     -21.161  -6.467  -4.115  0.00  0.00     0.005 C 
ENDBRANCH   6   8
ENDBRANCH   5   6
BRANCH   5  10
HETATM   10  N           1     -23.776  -5.270  -6.128  0.00  0.00    -0.066 N 
HETATM   11  H           1     -24.004  -6.169  -6.610  0.00  0.00     0.275 HD
HETATM   12  H           1     -24.417  -4.519  -6.468  0.00  0.00     0.275 HD
HETATM   13  H           1     -23.895  -5.388  -5.095  0.00  0.00     0.275 HD
ENDBRANCH   5  10
ENDBRANCH   1   5
BRANCH   2  14
HETATM   14  C           1     -23.071  -3.713 -10.002  0.00  0.00     0.185 C 
BRANCH  14  15
HETATM   15  C           1     -24.461  -3.247 -10.364  0.00  0.00     0.196 C 
HETATM   16  O           1     -24.816  -3.213 -11.561  0.00  0.00    -0.646 OA
HETATM   17  O           1     -25.256  -2.894  -9.466  0.00  0.00    -0.646 OA
ENDBRANCH  14  15
BRANCH  14  18
HETATM   18  C           1     -22.532  -4.609 -11.110  0.00  0.00     0.040 C 
BRANCH  18  19
HETATM   19  C           1     -21.137  -4.142 -11.506  0.00  0.00    -0.020 C 
HETATM   20  C           1     -21.053  -2.627 -11.376  0.00  0.00     0.009 C 
HETATM   21  C           1     -20.107  -4.789 -10.589  0.00  0.00     0.009 C 
ENDBRANCH  18  19
ENDBRANCH  14  18
ENDBRANCH   2  14
TORSDOF 8
ENDMDL
MODEL 2
REMARK VINA RESULT:      -6.3     11.999     13.775
REMARK  8 active torsions:
REMARK  status: ('A' for Active; 'I' for Inactive)
REMARK    1  A    between atoms: C_1  and  C_9 
REMARK    2  A    between atoms: C_1  and  C_18 
REMARK       I    between atoms: C_2  and  N_3 
REMARK    3  A    between atoms: C_2  and  C_9 
REMARK    4  A    between atoms: N_3  and  C_12 
REMARK    5  A    between atoms: C_7  and  C_12 
REMARK    6  A    between atoms: C_9  and  N_16 
REMARK    7  A    between atoms: C_10  and  C_20 
REMARK    8  A    between atoms: C_12  and  C_20 
ROOT
HETATM    1  C           1     -34.286  -2.401 -11.690  0.00  0.00     0.249 C 
HETATM    2  N           1     -35.381  -1.940 -12.370  0.00  0.00    -0.345 N 
HETATM    3  H           1     -35.898  -2.563 -12.978  0.00  0.00     0.163 HD
HETATM    4  O           1     -33.667  -1.658 -10.966  0.00  0.00    -0.271 OA
ENDROOT
BRANCH   1   5
HETATM    5  C           1     -33.849  -3.838 -11.847  0.00  0.00     0.278 C 
BRANCH   5   6
HETATM    6  C           1     -34.339  -4.651 -10.657  0.00  0.00     0.021 C 
HETATM    7  C           1     -35.859  -4.579 -10.583  0.00  0.00     0.012 C 
BRANCH   6   8
HETATM    8  C           1     -33.909  -6.102 -10.821  0.00  0.00     0.002 C 
HETATM    9  C           1     -34.785  -6.994  -9.953  0.00  0.00     0.005 C 
ENDBRANCH   6   8
ENDBRANCH   5   6
BRANCH   5  10
HETATM   10  N           1     -32.353  -3.901 -11.914  0.00  0.00    -0.066 N 
HETATM   11  H           1     -32.065  -4.709 -12.512  0.00  0.00     0.275 HD
HETATM   12  H           1     -31.966  -4.025 -10.952  0.00  0.00     0.275 HD
HETATM   13  H           1     -31.985  -3.014 -12.327  0.00  0.00     0.275 HD
ENDBRANCH   5  10
ENDBRANCH   1   5
BRANCH   2  14
HETATM   14  C           1     -35.798  -0.560 -12.220  0.00  0.00     0.185 C 
BRANCH  14  15
HETATM   15  C           1     -36.757  -0.449 -11.059  0.00  0.00     0.196 C 
HETATM   16  O           1     -37.853  -1.049 -11.094  0.00  0.00    -0.646 OA
HETATM   17  O           1     -36.455   0.242 -10.063  0.00  0.00    -0.646 OA
ENDBRANCH  14  15
BRANCH  14  18
HETATM   18  C           1     -36.491  -0.099 -13.496  0.00  0.00     0.040 C 
BRANCH  18  19
HETATM   19  C           1     -35.445   0.356 -14.506  0.00  0.00    -0.020 C 
HETATM   20  C           1     -36.130   1.099 -15.646  0.00  0.00     0.009 C 
HETATM   21  C           1     -34.449   1.283 -13.821  0.00  0.00     0.009 C 
ENDBRANCH  18  19
ENDBRANCH  14  18
ENDBRANCH   2  14
TORSDOF 8
ENDMDL
MODEL 3
REMARK VINA RESULT:      -6.0     11.833     14.049
REMARK  8 active torsions:
REMARK  status: ('A' for Active; 'I' for Inactive)
REMARK    1  A    between atoms: C_1  and  C_9 
REMARK    2  A    between atoms: C_1  and  C_18 
REMARK       I    between atoms: C_2  and  N_3 
REMARK    3  A    between atoms: C_2  and  C_9 
REMARK    4  A    between atoms: N_3  and  C_12 
REMARK    5  A    between atoms: C_7  and  C_12 
REMARK    6  A    between atoms: C_9  and  N_16 
REMARK    7  A    between atoms: C_10  and  C_20 
REMARK    8  A    between atoms: C_12  and  C_20 
ROOT
HETATM    1  C           1     -35.107  -1.901 -12.723  0.00  0.00     0.249 C 
HETATM    2  N           1     -34.935  -1.585 -14.043  0.00  0.00    -0.345 N 
HETATM    3  H           1     -34.015  -1.645 -14.462  0.00  0.00     0.163 HD
HETATM    4  O           1     -36.204  -1.829 -12.223  0.00  0.00    -0.271 OA
ENDROOT
BRANCH   1   5
HETATM    5  C           1     -33.926  -2.339 -11.891  0.00  0.00     0.278 C 
BRANCH   5   6
HETATM    6  C           1     -33.846  -3.860 -11.882  0.00  0.00     0.021 C 
HETATM    7  C           1     -32.401  -4.294 -12.098  0.00  0.00     0.012 C 
BRANCH   6   8
HETATM    8  C           1     -34.338  -4.387 -10.541  0.00  0.00     0.002 C 
HETATM    9  C           1     -34.219  -5.905 -10.517  0.00  0.00     0.005 C 
ENDBRANCH   6   8
ENDBRANCH   5   6
BRANCH   5  10
HETATM   10  N           1     -34.091  -1.840 -10.487  0.00  0.00    -0.066 N 
HETATM   11  H           1     -33.436  -2.354  -9.855  0.00  0.00     0.275 HD
HETATM   12  H           1     -35.075  -1.999 -10.173  0.00  0.00     0.275 HD
HETATM   13  H           1     -33.876  -0.817 -10.453  0.00  0.00     0.275 HD
ENDBRANCH   5  10
ENDBRANCH   1   5
BRANCH   2  14
HETATM   14  C           1     -36.069  -1.163 -14.842  0.00  0.00     0.185 C 
BRANCH  14  15
HETATM   15  C           1     -35.729  -1.298 -16.306  0.00  0.00     0.196 C 
HETATM   16  O           1     -34.641  -1.807 -16.651  0.00  0.00    -0.646 OA
HETATM   17  O           1     -36.536  -0.903 -17.175  0.00  0.00    -0.646 OA
ENDBRANCH  14  15
BRANCH  14  18
HETATM   18  C           1     -36.396   0.292 -14.529  0.00  0.00     0.040 C 
BRANCH  18  19
HETATM   19  C           1     -35.229   1.177 -14.948  0.00  0.00    -0.020 C 
HETATM   20  C           1     -35.747   2.328 -15.801  0.00  0.00     0.009 C 
HETATM   21  C           1     -34.543   1.731 -13.706  0.00  0.00     0.009 C 
ENDBRANCH  18  19
ENDBRANCH  14  18
ENDBRANCH   2  14
TORSDOF 8
ENDMDL
MODEL 4
REMARK VINA RESULT:      -5.9      1.892      6.158
REMARK  8 active torsions:
REMARK  status: ('A' for Active; 'I' for Inactive)
REMARK    1  A    between atoms: C_1  and  C_9 
REMARK    2  A    between atoms: C_1  and  C_18 
REMARK       I    between atoms: C_2  and  N_3 
REMARK    3  A    between atoms: C_2  and  C_9 
REMARK    4  A    between atoms: N_3  and  C_12 
REMARK    5  A    between atoms: C_7  and  C_12 
REMARK    6  A    between atoms: C_9  and  N_16 
REMARK    7  A    between atoms: C_10  and  C_20 
REMARK    8  A    between atoms: C_12  and  C_20 
ROOT
HETATM    1  C           1     -22.381  -4.211  -7.909  0.00  0.00     0.249 C 
HETATM    2  N           1     -22.280  -5.377  -7.201  0.00  0.00    -0.345 N 
HETATM    3  H           1     -22.760  -6.208  -7.524  0.00  0.00     0.163 HD
HETATM    4  O           1     -21.809  -3.219  -7.524  0.00  0.00    -0.271 OA
ENDROOT
BRANCH   1   5
HETATM    5  C           1     -23.207  -4.163  -9.172  0.00  0.00     0.278 C 
BRANCH   5   6
HETATM    6  C           1     -22.412  -3.479 -10.275  0.00  0.00     0.021 C 
HETATM    7  C           1     -21.332  -4.425 -10.784  0.00  0.00     0.012 C 
BRANCH   6   8
HETATM    8  C           1     -23.345  -3.112 -11.421  0.00  0.00     0.002 C 
HETATM    9  C           1     -22.556  -3.060 -12.723  0.00  0.00     0.005 C 
ENDBRANCH   6   8
ENDBRANCH   5   6
BRANCH   5  10
HETATM   10  N           1     -24.469  -3.394  -8.915  0.00  0.00    -0.066 N 
HETATM   11  H           1     -25.279  -3.904  -9.334  0.00  0.00     0.275 HD
HETATM   12  H           1     -24.393  -2.446  -9.345  0.00  0.00     0.275 HD
HETATM   13  H           1     -24.614  -3.298  -7.884  0.00  0.00     0.275 HD
ENDBRANCH   5  10
ENDBRANCH   1   5
BRANCH   2  14
HETATM   14  C           1     -21.487  -5.423  -5.988  0.00  0.00     0.185 C 
BRANCH  14  15
HETATM   15  C           1     -20.043  -5.684  -6.342  0.00  0.00     0.196 C 
HETATM   16  O           1     -19.177  -4.811  -6.118  0.00  0.00    -0.646 OA
HETATM   17  O           1     -19.713  -6.774  -6.858  0.00  0.00    -0.646 OA
ENDBRANCH  14  15
BRANCH  14  18
HETATM   18  C           1     -22.000  -6.541  -5.088  0.00  0.00     0.040 C 
BRANCH  18  19
HETATM   19  C           1     -21.151  -6.605  -3.825  0.00  0.00    -0.020 C 
HETATM   20  C           1     -21.997  -6.202  -2.625  0.00  0.00     0.009 C 
HETATM   21  C           1     -20.639  -8.027  -3.631  0.00  0.00     0.009 C 
ENDBRANCH  18  19
ENDBRANCH  14  18
ENDBRANCH   2  14
TORSDOF 8
ENDMDL
MODEL 5
REMARK VINA RESULT:      -5.7      2.984      6.808
REMARK  8 active torsions:
REMARK  status: ('A' for Active; 'I' for Inactive)
REMARK    1  A    between atoms: C_1  and  C_9 
REMARK    2  A    between atoms: C_1  and  C_18 
REMARK       I    between atoms: C_2  and  N_3 
REMARK    3  A    between atoms: C_2  and  C_9 
REMARK    4  A    between atoms: N_3  and  C_12 
REMARK    5  A    between atoms: C_7  and  C_12 
REMARK    6  A    between atoms: C_9  and  N_16 
REMARK    7  A    between atoms: C_10  and  C_20 
REMARK    8  A    between atoms: C_12  and  C_20 
ROOT
HETATM    1  C           1     -21.306  -5.593  -6.413  0.00  0.00     0.249 C 
HETATM    2  N           1     -21.175  -6.932  -6.161  0.00  0.00    -0.345 N 
HETATM    3  H           1     -21.559  -7.608  -6.809  0.00  0.00     0.163 HD
HETATM    4  O           1     -20.848  -4.785  -5.640  0.00  0.00    -0.271 OA
ENDROOT
BRANCH   1   5
HETATM    5  C           1     -22.024  -5.125  -7.656  0.00  0.00     0.278 C 
BRANCH   5   6
HETATM    6  C           1     -21.123  -4.181  -8.439  0.00  0.00     0.021 C 
HETATM    7  C           1     -19.812  -4.886  -8.768  0.00  0.00     0.012 C 
BRANCH   6   8
HETATM    8  C           1     -21.816  -3.773  -9.732  0.00  0.00     0.002 C 
HETATM    9  C           1     -20.960  -4.187 -10.921  0.00  0.00     0.005 C 
ENDBRANCH   6   8
ENDBRANCH   5   6
BRANCH   5  10
HETATM   10  N           1     -23.282  -4.407  -7.266  0.00  0.00    -0.066 N 
HETATM   11  H           1     -23.082  -3.386  -7.165  0.00  0.00     0.275 HD
HETATM   12  H           1     -23.632  -4.785  -6.358  0.00  0.00     0.275 HD
HETATM   13  H           1     -24.007  -4.549  -8.006  0.00  0.00     0.275 HD
ENDBRANCH   5  10
ENDBRANCH   1   5
BRANCH   2  14
HETATM   14  C           1     -20.486  -7.381  -4.967  0.00  0.00     0.185 C 
BRANCH  14  15
HETATM   15  C           1     -19.730  -8.651  -5.272  0.00  0.00     0.196 C 
HETATM   16  O           1     -18.787  -8.635  -6.092  0.00  0.00    -0.646 OA
HETATM   17  O           1     -20.045  -9.718  -4.704  0.00  0.00    -0.646 OA
ENDBRANCH  14  15
BRANCH  14  18
HETATM   18  C           1     -21.504  -7.648  -3.865  0.00  0.00     0.040 C 
BRANCH  18  19
HETATM   19  C           1     -21.046  -6.974  -2.577  0.00  0.00    -0.020 C 
HETATM   20  C           1     -22.213  -6.216  -1.959  0.00  0.00     0.009 C 
HETATM   21  C           1     -20.553  -8.033  -1.599  0.00  0.00     0.009 C 
ENDBRANCH  18  19
ENDBRANCH  14  18
ENDBRANCH   2  14
TORSDOF 8
ENDMDL
MODEL 6
REMARK VINA RESULT:      -5.6      3.239      6.764
REMARK  8 active torsions:
REMARK  status: ('A' for Active; 'I' for Inactive)
REMARK    1  A    between atoms: C_1  and  C_9 
REMARK    2  A    between atoms: C_1  and  C_18 
REMARK       I    between atoms: C_2  and  N_3 
REMARK    3  A    between atoms: C_2  and  C_9 
REMARK    4  A    between atoms: N_3  and  C_12 
REMARK    5  A    between atoms: C_7  and  C_12 
REMARK    6  A    between atoms: C_9  and  N_16 
REMARK    7  A    between atoms: C_10  and  C_20 
REMARK    8  A    between atoms: C_12  and  C_20 
ROOT
HETATM    1  C           1     -20.474  -5.001  -6.112  0.00  0.00     0.249 C 
HETATM    2  N           1     -20.719  -6.346  -6.174  0.00  0.00    -0.345 N 
HETATM    3  H           1     -21.094  -6.753  -7.022  0.00  0.00     0.163 HD
HETATM    4  O           1     -20.027  -4.515  -5.101  0.00  0.00    -0.271 OA
ENDROOT
BRANCH   1   5
HETATM    5  C           1     -20.763  -4.124  -7.307  0.00  0.00     0.278 C 
BRANCH   5   6
HETATM    6  C           1     -21.830  -4.781  -8.173  0.00  0.00     0.021 C 
HETATM    7  C           1     -23.205  -4.270  -7.759  0.00  0.00     0.012 C 
BRANCH   6   8
HETATM    8  C           1     -21.580  -4.435  -9.634  0.00  0.00     0.002 C 
HETATM    9  C           1     -22.812  -3.752 -10.213  0.00  0.00     0.005 C 
ENDBRANCH   6   8
ENDBRANCH   5   6
BRANCH   5  10
HETATM   10  N           1     -19.510  -3.943  -8.109  0.00  0.00    -0.066 N 
HETATM   11  H           1     -19.182  -4.873  -8.457  0.00  0.00     0.275 HD
HETATM   12  H           1     -18.770  -3.515  -7.508  0.00  0.00     0.275 HD
HETATM   13  H           1     -19.705  -3.315  -8.922  0.00  0.00     0.275 HD
ENDBRANCH   5  10
ENDBRANCH   1   5
BRANCH   2  14
HETATM   14  C           1     -20.442  -7.187  -5.027  0.00  0.00     0.185 C 
BRANCH  14  15
HETATM   15  C           1     -20.107  -8.582  -5.497  0.00  0.00     0.196 C 
HETATM   16  O           1     -18.918  -8.897  -5.720  0.00  0.00    -0.646 OA
HETATM   17  O           1     -21.017  -9.422  -5.661  0.00  0.00    -0.646 OA
ENDBRANCH  14  15
BRANCH  14  18
HETATM   18  C           1     -21.670  -7.236  -4.126  0.00  0.00     0.040 C 
BRANCH  18  19
HETATM   19  C           1     -21.242  -7.069  -2.674  0.00  0.00    -0.020 C 
HETATM   20  C           1     -22.220  -6.147  -1.959  0.00  0.00     0.009 C 
HETATM   21  C           1     -21.232  -8.430  -1.989  0.00  0.00     0.009 C 
ENDBRANCH  18  19
ENDBRANCH  14  18
ENDBRANCH   2  14
TORSDOF 8
ENDMDL
MODEL 7
REMARK VINA RESULT:      -5.6      3.153      4.967
REMARK  8 active torsions:
REMARK  status: ('A' for Active; 'I' for Inactive)
REMARK    1  A    between atoms: C_1  and  C_9 
REMARK    2  A    between atoms: C_1  and  C_18 
REMARK       I    between atoms: C_2  and  N_3 
REMARK    3  A    between atoms: C_2  and  C_9 
REMARK    4  A    between atoms: N_3  and  C_12 
REMARK    5  A    between atoms: C_7  and  C_12 
REMARK    6  A    between atoms: C_9  and  N_16 
REMARK    7  A    between atoms: C_10  and  C_20 
REMARK    8  A    between atoms: C_12  and  C_20 
ROOT
HETATM    1  C           1     -21.359  -6.635  -4.268  0.00  0.00     0.249 C 
HETATM    2  N           1     -21.094  -5.522  -5.019  0.00  0.00    -0.345 N 
HETATM    3  H           1     -20.894  -4.640  -4.563  0.00  0.00     0.163 HD
HETATM    4  O           1     -21.599  -7.686  -4.811  0.00  0.00    -0.271 OA
ENDROOT
BRANCH   1   5
HETATM    5  C           1     -21.353  -6.548  -2.761  0.00  0.00     0.278 C 
BRANCH   5   6
HETATM    6  C           1     -21.411  -7.951  -2.170  0.00  0.00     0.021 C 
HETATM    7  C           1     -19.999  -8.429  -1.858  0.00  0.00     0.012 C 
BRANCH   6   8
HETATM    8  C           1     -22.233  -7.928  -0.889  0.00  0.00     0.002 C 
HETATM    9  C           1     -21.358  -8.352   0.284  0.00  0.00     0.005 C 
ENDBRANCH   6   8
ENDBRANCH   5   6
BRANCH   5  10
HETATM   10  N           1     -22.544  -5.762  -2.300  0.00  0.00    -0.066 N 
HETATM   11  H           1     -23.382  -6.386  -2.270  0.00  0.00     0.275 HD
HETATM   12  H           1     -22.719  -4.974  -2.963  0.00  0.00     0.275 HD
HETATM   13  H           1     -22.360  -5.379  -1.345  0.00  0.00     0.275 HD
ENDBRANCH   5  10
ENDBRANCH   1   5
BRANCH   2  14
HETATM   14  C           1     -21.101  -5.605  -6.466  0.00  0.00     0.185 C 
BRANCH  14  15
HETATM   15  C           1     -19.686  -5.766  -6.967  0.00  0.00     0.196 C 
HETATM   16  O           1     -19.206  -6.909  -7.125  0.00  0.00    -0.646 OA
HETATM   17  O           1     -18.995  -4.757  -7.224  0.00  0.00    -0.646 OA
ENDBRANCH  14  15
BRANCH  14  18
HETATM   18  C           1     -21.702  -4.330  -7.044  0.00  0.00     0.040 C 
BRANCH  18  19
HETATM   19  C           1     -22.276  -4.619  -8.426  0.00  0.00    -0.020 C 
HETATM   20  C           1     -23.686  -4.052  -8.518  0.00  0.00     0.009 C 
HETATM   21  C           1     -21.395  -3.970  -9.486  0.00  0.00     0.009 C 
ENDBRANCH  18  19
ENDBRANCH  14  18
ENDBRANCH   2  14
TORSDOF 8
ENDMDL
MODEL 8
REMARK VINA RESULT:      -5.5      4.505      8.593
REMARK  8 active torsions:
REMARK  status: ('A' for Active; 'I' for Inactive)
REMARK    1  A    between atoms: C_1  and  C_9 
REMARK    2  A    between atoms: C_1  and  C_18 
REMARK       I    between atoms: C_2  and  N_3 
REMARK    3  A    between atoms: C_2  and  C_9 
REMARK    4  A    between atoms: N_3  and  C_12 
REMARK    5  A    between atoms: C_7  and  C_12 
REMARK    6  A    between atoms: C_9  and  N_16 
REMARK    7  A    between atoms: C_10  and  C_20 
REMARK    8  A    between atoms: C_12  and  C_20 
ROOT
HETATM    1  C           1     -21.586  -6.829  -3.760  0.00  0.00     0.249 C 
HETATM    2  N           1     -21.176  -8.080  -3.386  0.00  0.00    -0.345 N 
HETATM    3  H           1     -21.211  -8.844  -4.050  0.00  0.00     0.163 HD
HETATM    4  O           1     -21.545  -5.918  -2.969  0.00  0.00    -0.271 OA
ENDROOT
BRANCH   1   5
HETATM    5  C           1     -22.090  -6.588  -5.163  0.00  0.00     0.278 C 
BRANCH   5   6
HETATM    6  C           1     -21.209  -5.553  -5.849  0.00  0.00     0.021 C 
HETATM    7  C           1     -20.011  -6.247  -6.485  0.00  0.00     0.012 C 
BRANCH   6   8
HETATM    8  C           1     -22.012  -4.839  -6.928  0.00  0.00     0.002 C 
HETATM    9  C           1     -21.382  -3.483  -7.217  0.00  0.00     0.005 C 
ENDBRANCH   6   8
ENDBRANCH   5   6
BRANCH   5  10
HETATM   10  N           1     -23.502  -6.085  -5.107  0.00  0.00    -0.066 N 
HETATM   11  H           1     -24.162  -6.892  -5.181  0.00  0.00     0.275 HD
HETATM   12  H           1     -23.668  -5.426  -5.900  0.00  0.00     0.275 HD
HETATM   13  H           1     -23.659  -5.588  -4.201  0.00  0.00     0.275 HD
ENDBRANCH   5  10
ENDBRANCH   1   5
BRANCH   2  14
HETATM   14  C           1     -20.693  -8.312  -2.039  0.00  0.00     0.185 C 
BRANCH  14  15
HETATM   15  C           1     -19.572  -9.322  -2.074  0.00  0.00     0.196 C 
HETATM   16  O           1     -18.491  -9.035  -2.633  0.00  0.00    -0.646 OA
HETATM   17  O           1     -19.723 -10.443  -1.545  0.00  0.00    -0.646 OA
ENDBRANCH  14  15
BRANCH  14  18
HETATM   18  C           1     -21.830  -8.846  -1.177  0.00  0.00     0.040 C 
BRANCH  18  19
HETATM   19  C           1     -21.944  -8.008   0.091  0.00  0.00    -0.020 C 
HETATM   20  C           1     -23.398  -7.964   0.541  0.00  0.00     0.009 C 
HETATM   21  C           1     -21.090  -8.632   1.188  0.00  0.00     0.009 C 
ENDBRANCH  18  19
ENDBRANCH  14  18
ENDBRANCH   2  14
TORSDOF 8
ENDMDL
MODEL 9
REMARK VINA RESULT:      -5.5     11.535     13.976
REMARK  8 active torsions:
REMARK  status: ('A' for Active; 'I' for Inactive)
REMARK    1  A    between atoms: C_1  and  C_9 
REMARK    2  A    between atoms: C_1  and  C_18 
REMARK       I    between atoms: C_2  and  N_3 
REMARK    3  A    between atoms: C_2  and  C_9 
REMARK    4  A    between atoms: N_3  and  C_12 
REMARK    5  A    between atoms: C_7  and  C_12 
REMARK    6  A    between atoms: C_9  and  N_16 
REMARK    7  A    between atoms: C_10  and  C_20 
REMARK    8  A    between atoms: C_12  and  C_20 
ROOT
HETATM    1  C           1     -34.589  -2.340 -12.681  0.00  0.00     0.249 C 
HETATM    2  N           1     -35.244  -1.272 -12.130  0.00  0.00    -0.345 N 
HETATM    3  H           1     -34.991  -0.946 -11.206  0.00  0.00     0.163 HD
HETATM    4  O           1     -34.891  -2.730 -13.784  0.00  0.00    -0.271 OA
ENDROOT
BRANCH   1   5
HETATM    5  C           1     -33.490  -3.031 -11.911  0.00  0.00     0.278 C 
BRANCH   5   6
HETATM    6  C           1     -33.746  -4.533 -11.897  0.00  0.00     0.021 C 
HETATM    7  C           1     -32.435  -5.268 -11.648  0.00  0.00     0.012 C 
BRANCH   6   8
HETATM    8  C           1     -34.734  -4.869 -10.789  0.00  0.00     0.002 C 
HETATM    9  C           1     -34.473  -6.284 -10.288  0.00  0.00     0.005 C 
ENDBRANCH   6   8
ENDBRANCH   5   6
BRANCH   5  10
HETATM   10  N           1     -33.466  -2.516 -10.503  0.00  0.00    -0.066 N 
HETATM   11  H           1     -33.907  -3.218  -9.867  0.00  0.00     0.275 HD
HETATM   12  H           1     -33.996  -1.617 -10.452  0.00  0.00     0.275 HD
HETATM   13  H           1     -32.476  -2.353 -10.209  0.00  0.00     0.275 HD
ENDBRANCH   5  10
ENDBRANCH   1   5
BRANCH   2  14
HETATM   14  C           1     -36.301  -0.609 -12.869  0.00  0.00     0.185 C 
BRANCH  14  15
HETATM   15  C           1     -35.703   0.468 -13.742  0.00  0.00     0.196 C 
HETATM   16  O           1     -36.206   0.718 -14.858  0.00  0.00    -0.646 OA
HETATM   17  O           1     -34.705   1.110 -13.348  0.00  0.00    -0.646 OA
ENDBRANCH  14  15
BRANCH  14  18
HETATM   18  C           1     -37.287   0.019 -11.892  0.00  0.00     0.040 C 
BRANCH  18  19
HETATM   19  C           1     -36.722  -0.061 -10.479  0.00  0.00    -0.020 C 
HETATM   20  C           1     -37.203   1.138  -9.672  0.00  0.00     0.009 C 
HETATM   21  C           1     -37.199  -1.346  -9.815  0.00  0.00     0.009 C 
ENDBRANCH  18  19
ENDBRANCH  14  18
ENDBRANCH   2  14
TORSDOF 8
ENDMDL
