MODEL 1
REMARK VINA RESULT:      -5.7      0.000      0.000
REMARK  10 active torsions:
REMARK  status: ('A' for Active; 'I' for Inactive)
REMARK    1  A    between atoms: N_1  and  C_11 
REMARK    2  A    between atoms: Se_2  and  C_20 
REMARK    3  A    between atoms: N_4  and  C_17 
REMARK    4  A    between atoms: C_6  and  C_23 
REMARK    5  A    between atoms: C_11  and  C_14 
REMARK    6  A    between atoms: C_11  and  C_12 
REMARK    7  A    between atoms: C_12  and  C_21 
REMARK       I    between atoms: C_14  and  N_22 
REMARK    8  A    between atoms: C_17  and  C_21 
REMARK    9  A    between atoms: C_20  and  C_23 
REMARK   10  A    between atoms: N_22  and  C_23 
ROOT
HETATM    1  C           1     -33.599  -2.217 -11.421  0.00  0.00     0.274 C 
ENDROOT
BRANCH   1   2
HETATM    2  N           1     -34.296  -1.935 -10.122  0.00  0.00    -0.067 N 
HETATM    3  H           1     -35.304  -2.198 -10.203  0.00  0.00     0.275 HD
HETATM    4  H           1     -33.851  -2.493  -9.359  0.00  0.00     0.275 HD
HETATM    5  H           1     -34.220  -0.916  -9.901  0.00  0.00     0.275 HD
ENDBRANCH   1   2
BRANCH   1   6
HETATM    6  C           1     -34.559  -1.997 -12.564  0.00  0.00     0.249 C 
HETATM    7  O           1     -34.695  -2.848 -13.411  0.00  0.00    -0.271 OA
HETATM    8  N           1     -35.277  -0.833 -12.641  0.00  0.00    -0.345 N 
HETATM    9  H           1     -35.163  -0.121 -11.931  0.00  0.00     0.163 HD
BRANCH   8  10
HETATM   10  C           1     -36.199  -0.622 -13.740  0.00  0.00     0.185 C 
BRANCH  10  11
HETATM   11  C           1     -35.590   0.340 -14.730  0.00  0.00     0.196 C 
HETATM   12  O           1     -36.307   0.880 -15.598  0.00  0.00    -0.646 OA
HETATM   13  O           1     -34.367   0.595 -14.681  0.00  0.00    -0.646 OA
ENDBRANCH  10  11
BRANCH  10  14
HETATM   14  C           1     -37.501  -0.042 -13.203  0.00  0.00     0.039 C 
BRANCH  14  15
HETATM   15 Se           1     -37.526  -0.189 -11.260  0.00  0.00     0.000 Se
HETATM   16  H           1     -37.699   1.255 -11.037  0.00  0.00     0.000 HD
ENDBRANCH  14  15
ENDBRANCH  10  14
ENDBRANCH   8  10
ENDBRANCH   1   6
BRANCH   1  17
HETATM   17  C           1     -33.115  -3.661 -11.434  0.00  0.00     0.044 C 
BRANCH  17  18
HETATM   18  C           1     -33.991  -4.499 -10.511  0.00  0.00     0.030 C 
BRANCH  18  19
HETATM   19  C           1     -34.188  -5.883 -11.114  0.00  0.00     0.230 C 
BRANCH  19  20
HETATM   20  N           1     -34.755  -5.750 -12.496  0.00  0.00    -0.079 N 
HETATM   21  H           1     -34.644  -4.764 -12.826  0.00  0.00     0.274 HD
HETATM   22  H           1     -34.247  -6.393 -13.144  0.00  0.00     0.274 HD
HETATM   23  H           1     -35.769  -6.000 -12.482  0.00  0.00     0.274 HD
ENDBRANCH  19  20
ENDBRANCH  18  19
ENDBRANCH  17  18
ENDBRANCH   1  17
TORSDOF 10
ENDMDL
MODEL 2
REMARK VINA RESULT:      -5.4     13.069     14.498
REMARK  10 active torsions:
REMARK  status: ('A' for Active; 'I' for Inactive)
REMARK    1  A    between atoms: N_1  and  C_11 
REMARK    2  A    between atoms: Se_2  and  C_20 
REMARK    3  A    between atoms: N_4  and  C_17 
REMARK    4  A    between atoms: C_6  and  C_23 
REMARK    5  A    between atoms: C_11  and  C_14 
REMARK    6  A    between atoms: C_11  and  C_12 
REMARK    7  A    between atoms: C_12  and  C_21 
REMARK       I    between atoms: C_14  and  N_22 
REMARK    8  A    between atoms: C_17  and  C_21 
REMARK    9  A    between atoms: C_20  and  C_23 
REMARK   10  A    between atoms: N_22  and  C_23 
ROOT
HETATM    1  C           1     -21.111  -5.815  -6.872  0.00  0.00     0.274 C 
ENDROOT
BRANCH   1   2
HETATM    2  N           1     -19.797  -6.166  -7.504  0.00  0.00    -0.067 N 
HETATM    3  H           1     -19.952  -6.866  -8.265  0.00  0.00     0.275 HD
HETATM    4  H           1     -19.362  -5.305  -7.907  0.00  0.00     0.275 HD
HETATM    5  H           1     -19.161  -6.574  -6.782  0.00  0.00     0.275 HD
ENDBRANCH   1   2
BRANCH   1   6
HETATM    6  C           1     -21.690  -4.603  -7.559  0.00  0.00     0.249 C 
HETATM    7  O           1     -21.621  -3.518  -7.031  0.00  0.00    -0.271 OA
HETATM    8  N           1     -22.294  -4.731  -8.781  0.00  0.00    -0.345 N 
HETATM    9  H           1     -22.351  -5.640  -9.224  0.00  0.00     0.163 HD
BRANCH   8  10
HETATM   10  C           1     -22.850  -3.566  -9.441  0.00  0.00     0.185 C 
BRANCH  10  11
HETATM   11  C           1     -24.329  -3.770  -9.658  0.00  0.00     0.196 C 
HETATM   12  O           1     -24.767  -4.903  -9.953  0.00  0.00    -0.646 OA
HETATM   13  O           1     -25.117  -2.806  -9.543  0.00  0.00    -0.646 OA
ENDBRANCH  10  11
BRANCH  10  14
HETATM   14  C           1     -22.161  -3.369 -10.785  0.00  0.00     0.039 C 
BRANCH  14  15
HETATM   15 Se           1     -20.446  -4.294 -10.779  0.00  0.00     0.000 Se
HETATM   16  H           1     -20.330  -4.312  -9.312  0.00  0.00     0.000 HD
ENDBRANCH  14  15
ENDBRANCH  10  14
ENDBRANCH   8  10
ENDBRANCH   1   6
BRANCH   1  17
HETATM   17  C           1     -20.898  -5.509  -5.395  0.00  0.00     0.044 C 
BRANCH  17  18
HETATM   18  C           1     -21.861  -6.342  -4.559  0.00  0.00     0.030 C 
BRANCH  18  19
HETATM   19  C           1     -21.360  -6.412  -3.123  0.00  0.00     0.230 C 
BRANCH  19  20
HETATM   20  N           1     -22.417  -5.888  -2.198  0.00  0.00    -0.079 N 
HETATM   21  H           1     -23.157  -6.615  -2.066  0.00  0.00     0.274 HD
HETATM   22  H           1     -21.989  -5.655  -1.274  0.00  0.00     0.274 HD
HETATM   23  H           1     -22.845  -5.028  -2.610  0.00  0.00     0.274 HD
ENDBRANCH  19  20
ENDBRANCH  18  19
ENDBRANCH  17  18
ENDBRANCH   1  17
TORSDOF 10
ENDMDL
MODEL 3
REMARK VINA RESULT:      -5.1      1.997      2.249
REMARK  10 active torsions:
REMARK  status: ('A' for Active; 'I' for Inactive)
REMARK    1  A    between atoms: N_1  and  C_11 
REMARK    2  A    between atoms: Se_2  and  C_20 
REMARK    3  A    between atoms: N_4  and  C_17 
REMARK    4  A    between atoms: C_6  and  C_23 
REMARK    5  A    between atoms: C_11  and  C_14 
REMARK    6  A    between atoms: C_11  and  C_12 
REMARK    7  A    between atoms: C_12  and  C_21 
REMARK       I    between atoms: C_14  and  N_22 
REMARK    8  A    between atoms: C_17  and  C_21 
REMARK    9  A    between atoms: C_20  and  C_23 
REMARK   10  A    between atoms: N_22  and  C_23 
ROOT
HETATM    1  C           1     -34.286  -1.941 -11.923  0.00  0.00     0.274 C 
ENDROOT
BRANCH   1   2
HETATM    2  N           1     -34.734  -1.654 -10.520  0.00  0.00    -0.067 N 
HETATM    3  H           1     -33.917  -1.721  -9.872  0.00  0.00     0.275 HD
HETATM    4  H           1     -35.138  -0.691 -10.473  0.00  0.00     0.275 HD
HETATM    5  H           1     -35.460  -2.351 -10.237  0.00  0.00     0.275 HD
ENDBRANCH   1   2
BRANCH   1   6
HETATM    6  C           1     -35.329  -1.446 -12.894  0.00  0.00     0.249 C 
HETATM    7  O           1     -36.491  -1.410 -12.566  0.00  0.00    -0.271 OA
HETATM    8  N           1     -34.959  -1.037 -14.148  0.00  0.00    -0.345 N 
HETATM    9  H           1     -33.985  -1.067 -14.422  0.00  0.00     0.163 HD
BRANCH   8  10
HETATM   10  C           1     -35.962  -0.562 -15.080  0.00  0.00     0.185 C 
BRANCH  10  11
HETATM   11  C           1     -35.712  -1.168 -16.439  0.00  0.00     0.196 C 
HETATM   12  O           1     -34.719  -1.905 -16.621  0.00  0.00    -0.646 OA
HETATM   13  O           1     -36.499  -0.934 -17.382  0.00  0.00    -0.646 OA
ENDBRANCH  10  11
BRANCH  10  14
HETATM   14  C           1     -35.883   0.956 -15.179  0.00  0.00     0.039 C 
BRANCH  14  15
HETATM   15 Se           1     -34.604   1.626 -13.869  0.00  0.00     0.000 Se
HETATM   16  H           1     -33.474   1.645 -14.811  0.00  0.00     0.000 HD
ENDBRANCH  14  15
ENDBRANCH  10  14
ENDBRANCH   8  10
ENDBRANCH   1   6
BRANCH   1  17
HETATM   17  C           1     -34.098  -3.442 -12.098  0.00  0.00     0.044 C 
BRANCH  17  18
HETATM   18  C           1     -33.526  -4.036 -10.818  0.00  0.00     0.030 C 
BRANCH  18  19
HETATM   19  C           1     -34.247  -5.337 -10.493  0.00  0.00     0.230 C 
BRANCH  19  20
HETATM   20  N           1     -33.538  -6.481 -11.153  0.00  0.00    -0.079 N 
HETATM   21  H           1     -34.018  -7.377 -10.910  0.00  0.00     0.274 HD
HETATM   22  H           1     -33.553  -6.349 -12.190  0.00  0.00     0.274 HD
HETATM   23  H           1     -32.548  -6.516 -10.821  0.00  0.00     0.274 HD
ENDBRANCH  19  20
ENDBRANCH  18  19
ENDBRANCH  17  18
ENDBRANCH   1  17
TORSDOF 10
ENDMDL
MODEL 4
REMARK VINA RESULT:      -5.0     14.815     16.808
REMARK  10 active torsions:
REMARK  status: ('A' for Active; 'I' for Inactive)
REMARK    1  A    between atoms: N_1  and  C_11 
REMARK    2  A    between atoms: Se_2  and  C_20 
REMARK    3  A    between atoms: N_4  and  C_17 
REMARK    4  A    between atoms: C_6  and  C_23 
REMARK    5  A    between atoms: C_11  and  C_14 
REMARK    6  A    between atoms: C_11  and  C_12 
REMARK    7  A    between atoms: C_12  and  C_21 
REMARK       I    between atoms: C_14  and  N_22 
REMARK    8  A    between atoms: C_17  and  C_21 
REMARK    9  A    between atoms: C_20  and  C_23 
REMARK   10  A    between atoms: N_22  and  C_23 
ROOT
HETATM    1  C           1     -20.546  -4.964  -6.579  0.00  0.00     0.274 C 
ENDROOT
BRANCH   1   2
HETATM    2  N           1     -19.976  -5.857  -7.642  0.00  0.00    -0.067 N 
HETATM    3  H           1     -20.697  -6.023  -8.381  0.00  0.00     0.275 HD
HETATM    4  H           1     -19.139  -5.401  -8.069  0.00  0.00     0.275 HD
HETATM    5  H           1     -19.699  -6.770  -7.217  0.00  0.00     0.275 HD
ENDBRANCH   1   2
BRANCH   1   6
HETATM    6  C           1     -21.418  -5.778  -5.655  0.00  0.00     0.249 C 
HETATM    7  O           1     -22.618  -5.633  -5.674  0.00  0.00    -0.271 OA
HETATM    8  N           1     -20.851  -6.681  -4.796  0.00  0.00    -0.345 N 
HETATM    9  H           1     -19.846  -6.802  -4.781  0.00  0.00     0.163 HD
BRANCH   8  10
HETATM   10  C           1     -21.691  -7.462  -3.909  0.00  0.00     0.185 C 
BRANCH  10  11
HETATM   11  C           1     -21.621  -6.887  -2.515  0.00  0.00     0.196 C 
HETATM   12  O           1     -22.321  -5.897  -2.213  0.00  0.00    -0.646 OA
HETATM   13  O           1     -20.864  -7.401  -1.664  0.00  0.00    -0.646 OA
ENDBRANCH  10  11
BRANCH  10  14
HETATM   14  C           1     -21.200  -8.904  -3.888  0.00  0.00     0.039 C 
BRANCH  14  15
HETATM   15 Se           1     -19.471  -9.016  -4.781  0.00  0.00     0.000 Se
HETATM   16  H           1     -19.800 -10.249  -5.513  0.00  0.00     0.000 HD
ENDBRANCH  14  15
ENDBRANCH  10  14
ENDBRANCH   8  10
ENDBRANCH   1   6
BRANCH   1  17
HETATM   17  C           1     -21.378  -3.867  -7.230  0.00  0.00     0.044 C 
BRANCH  17  18
HETATM   18  C           1     -21.441  -4.101  -8.734  0.00  0.00     0.030 C 
BRANCH  18  19
HETATM   19  C           1     -22.894  -4.230  -9.169  0.00  0.00     0.230 C 
BRANCH  19  20
HETATM   20  N           1     -23.790  -4.061  -7.978  0.00  0.00    -0.079 N 
HETATM   21  H           1     -23.217  -4.083  -7.104  0.00  0.00     0.274 HD
HETATM   22  H           1     -24.288  -3.145  -8.044  0.00  0.00     0.274 HD
HETATM   23  H           1     -24.489  -4.837  -7.955  0.00  0.00     0.274 HD
ENDBRANCH  19  20
ENDBRANCH  18  19
ENDBRANCH  17  18
ENDBRANCH   1  17
TORSDOF 10
ENDMDL
MODEL 5
REMARK VINA RESULT:      -4.9      4.634      5.622
REMARK  10 active torsions:
REMARK  status: ('A' for Active; 'I' for Inactive)
REMARK    1  A    between atoms: N_1  and  C_11 
REMARK    2  A    between atoms: Se_2  and  C_20 
REMARK    3  A    between atoms: N_4  and  C_17 
REMARK    4  A    between atoms: C_6  and  C_23 
REMARK    5  A    between atoms: C_11  and  C_14 
REMARK    6  A    between atoms: C_11  and  C_12 
REMARK    7  A    between atoms: C_12  and  C_21 
REMARK       I    between atoms: C_14  and  N_22 
REMARK    8  A    between atoms: C_17  and  C_21 
REMARK    9  A    between atoms: C_20  and  C_23 
REMARK   10  A    between atoms: N_22  and  C_23 
ROOT
HETATM    1  C           1     -33.106  -4.518 -16.779  0.00  0.00     0.274 C 
ENDROOT
BRANCH   1   2
HETATM    2  N           1     -33.166  -3.147 -17.385  0.00  0.00    -0.067 N 
HETATM    3  H           1     -33.335  -3.227 -18.413  0.00  0.00     0.275 HD
HETATM    4  H           1     -33.944  -2.606 -16.945  0.00  0.00     0.275 HD
HETATM    5  H           1     -32.260  -2.654 -17.220  0.00  0.00     0.275 HD
ENDBRANCH   1   2
BRANCH   1   6
HETATM    6  C           1     -33.893  -4.533 -15.492  0.00  0.00     0.249 C 
HETATM    7  O           1     -35.017  -4.977 -15.477  0.00  0.00    -0.271 OA
HETATM    8  N           1     -33.335  -4.043 -14.341  0.00  0.00    -0.345 N 
HETATM    9  H           1     -32.393  -3.672 -14.355  0.00  0.00     0.163 HD
BRANCH   8  10
HETATM   10  C           1     -34.093  -4.058 -13.105  0.00  0.00     0.185 C 
BRANCH  10  11
HETATM   11  C           1     -34.604  -2.669 -12.813  0.00  0.00     0.196 C 
HETATM   12  O           1     -34.671  -2.263 -11.633  0.00  0.00    -0.646 OA
HETATM   13  O           1     -34.961  -1.924 -13.752  0.00  0.00    -0.646 OA
ENDBRANCH  10  11
BRANCH  10  14
HETATM   14  C           1     -33.193  -4.518 -11.966  0.00  0.00     0.039 C 
BRANCH  14  15
HETATM   15 Se           1     -34.142  -5.826 -10.876  0.00  0.00     0.000 Se
HETATM   16  H           1     -35.261  -4.924 -10.563  0.00  0.00     0.000 HD
ENDBRANCH  14  15
ENDBRANCH  10  14
ENDBRANCH   8  10
ENDBRANCH   1   6
BRANCH   1  17
HETATM   17  C           1     -31.655  -4.883 -16.492  0.00  0.00     0.044 C 
BRANCH  17  18
HETATM   18  C           1     -31.304  -6.178 -17.214  0.00  0.00     0.030 C 
BRANCH  18  19
HETATM   19  C           1     -29.847  -6.530 -16.947  0.00  0.00     0.230 C 
BRANCH  19  20
HETATM   20  N           1     -29.573  -7.924 -17.429  0.00  0.00    -0.079 N 
HETATM   21  H           1     -28.571  -8.004 -17.717  0.00  0.00     0.274 HD
HETATM   22  H           1     -29.769  -8.604 -16.660  0.00  0.00     0.274 HD
HETATM   23  H           1     -30.188  -8.136 -18.247  0.00  0.00     0.274 HD
ENDBRANCH  19  20
ENDBRANCH  18  19
ENDBRANCH  17  18
ENDBRANCH   1  17
TORSDOF 10
ENDMDL
MODEL 6
REMARK VINA RESULT:      -4.8      2.225      2.757
REMARK  10 active torsions:
REMARK  status: ('A' for Active; 'I' for Inactive)
REMARK    1  A    between atoms: N_1  and  C_11 
REMARK    2  A    between atoms: Se_2  and  C_20 
REMARK    3  A    between atoms: N_4  and  C_17 
REMARK    4  A    between atoms: C_6  and  C_23 
REMARK    5  A    between atoms: C_11  and  C_14 
REMARK    6  A    between atoms: C_11  and  C_12 
REMARK    7  A    between atoms: C_12  and  C_21 
REMARK       I    between atoms: C_14  and  N_22 
REMARK    8  A    between atoms: C_17  and  C_21 
REMARK    9  A    between atoms: C_20  and  C_23 
REMARK   10  A    between atoms: N_22  and  C_23 
ROOT
HETATM    1  C           1     -34.461  -1.306 -11.889  0.00  0.00     0.274 C 
ENDROOT
BRANCH   1   2
HETATM    2  N           1     -35.427  -1.219 -10.744  0.00  0.00    -0.067 N 
HETATM    3  H           1     -34.899  -1.092  -9.851  0.00  0.00     0.275 HD
HETATM    4  H           1     -36.067  -0.406 -10.889  0.00  0.00     0.275 HD
HETATM    5  H           1     -35.986  -2.100 -10.693  0.00  0.00     0.275 HD
ENDBRANCH   1   2
BRANCH   1   6
HETATM    6  C           1     -34.964  -0.462 -13.035  0.00  0.00     0.249 C 
HETATM    7  O           1     -34.924   0.743 -12.960  0.00  0.00    -0.271 OA
HETATM    8  N           1     -35.465  -1.062 -14.159  0.00  0.00    -0.345 N 
HETATM    9  H           1     -35.497  -2.072 -14.221  0.00  0.00     0.163 HD
BRANCH   8  10
HETATM   10  C           1     -35.948  -0.251 -15.259  0.00  0.00     0.185 C 
BRANCH  10  11
HETATM   11  C           1     -37.452  -0.154 -15.190  0.00  0.00     0.196 C 
HETATM   12  O           1     -38.074  -0.747 -14.283  0.00  0.00    -0.646 OA
HETATM   13  O           1     -38.075   0.519 -16.039  0.00  0.00    -0.646 OA
ENDBRANCH  10  11
BRANCH  10  14
HETATM   14  C           1     -35.540  -0.893 -16.579  0.00  0.00     0.039 C 
BRANCH  14  15
HETATM   15 Se           1     -34.798  -2.663 -16.238  0.00  0.00     0.000 Se
HETATM   16  H           1     -33.940  -2.217 -15.129  0.00  0.00     0.000 HD
ENDBRANCH  14  15
ENDBRANCH  10  14
ENDBRANCH   8  10
ENDBRANCH   1   6
BRANCH   1  17
HETATM   17  C           1     -34.337  -2.755 -12.340  0.00  0.00     0.044 C 
BRANCH  17  18
HETATM   18  C           1     -33.202  -3.429 -11.580  0.00  0.00     0.030 C 
BRANCH  18  19
HETATM   19  C           1     -33.683  -4.763 -11.023  0.00  0.00     0.230 C 
BRANCH  19  20
HETATM   20  N           1     -34.426  -5.511 -12.090  0.00  0.00    -0.079 N 
HETATM   21  H           1     -34.725  -4.847 -12.839  0.00  0.00     0.274 HD
HETATM   22  H           1     -33.802  -6.242 -12.501  0.00  0.00     0.274 HD
HETATM   23  H           1     -35.268  -5.967 -11.672  0.00  0.00     0.274 HD
ENDBRANCH  19  20
ENDBRANCH  18  19
ENDBRANCH  17  18
ENDBRANCH   1  17
TORSDOF 10
ENDMDL
MODEL 7
REMARK VINA RESULT:      -4.8      2.899      5.242
REMARK  10 active torsions:
REMARK  status: ('A' for Active; 'I' for Inactive)
REMARK    1  A    between atoms: N_1  and  C_11 
REMARK    2  A    between atoms: Se_2  and  C_20 
REMARK    3  A    between atoms: N_4  and  C_17 
REMARK    4  A    between atoms: C_6  and  C_23 
REMARK    5  A    between atoms: C_11  and  C_14 
REMARK    6  A    between atoms: C_11  and  C_12 
REMARK    7  A    between atoms: C_12  and  C_21 
REMARK       I    between atoms: C_14  and  N_22 
REMARK    8  A    between atoms: C_17  and  C_21 
REMARK    9  A    between atoms: C_20  and  C_23 
REMARK   10  A    between atoms: N_22  and  C_23 
ROOT
HETATM    1  C           1     -36.074   0.384 -13.598  0.00  0.00     0.274 C 
ENDROOT
BRANCH   1   2
HETATM    2  N           1     -34.728   0.948 -13.945  0.00  0.00    -0.067 N 
HETATM    3  H           1     -34.009   0.561 -13.293  0.00  0.00     0.275 HD
HETATM    4  H           1     -34.484   0.688 -14.927  0.00  0.00     0.275 HD
HETATM    5  H           1     -34.754   1.989 -13.855  0.00  0.00     0.275 HD
ENDBRANCH   1   2
BRANCH   1   6
HETATM    6  C           1     -35.897  -0.844 -12.739  0.00  0.00     0.249 C 
HETATM    7  O           1     -36.710  -1.105 -11.884  0.00  0.00    -0.271 OA
HETATM    8  N           1     -34.815  -1.662 -12.927  0.00  0.00    -0.345 N 
HETATM    9  H           1     -34.135  -1.443 -13.644  0.00  0.00     0.163 HD
BRANCH   8  10
HETATM   10  C           1     -34.645  -2.841 -12.101  0.00  0.00     0.185 C 
BRANCH  10  11
HETATM   11  C           1     -33.480  -2.635 -11.165  0.00  0.00     0.196 C 
HETATM   12  O           1     -32.410  -3.252 -11.354  0.00  0.00    -0.646 OA
HETATM   13  O           1     -33.585  -1.846 -10.200  0.00  0.00    -0.646 OA
ENDBRANCH  10  11
BRANCH  10  14
HETATM   14  C           1     -34.376  -4.048 -12.990  0.00  0.00     0.039 C 
BRANCH  14  15
HETATM   15 Se           1     -34.842  -5.679 -12.032  0.00  0.00     0.000 Se
HETATM   16  H           1     -35.646  -4.987 -11.012  0.00  0.00     0.000 HD
ENDBRANCH  14  15
ENDBRANCH  10  14
ENDBRANCH   8  10
ENDBRANCH   1   6
BRANCH   1  17
HETATM   17  C           1     -36.812   0.008 -14.876  0.00  0.00     0.044 C 
BRANCH  17  18
HETATM   18  C           1     -35.848   0.062 -16.054  0.00  0.00     0.030 C 
BRANCH  18  19
HETATM   19  C           1     -35.927  -1.241 -16.838  0.00  0.00     0.230 C 
BRANCH  19  20
HETATM   20  N           1     -34.721  -2.080 -16.535  0.00  0.00    -0.079 N 
HETATM   21  H           1     -33.891  -1.460 -16.394  0.00  0.00     0.274 HD
HETATM   22  H           1     -34.892  -2.635 -15.667  0.00  0.00     0.274 HD
HETATM   23  H           1     -34.539  -2.729 -17.334  0.00  0.00     0.274 HD
ENDBRANCH  19  20
ENDBRANCH  18  19
ENDBRANCH  17  18
ENDBRANCH   1  17
TORSDOF 10
ENDMDL
MODEL 8
REMARK VINA RESULT:      -4.8      2.405      4.849
REMARK  10 active torsions:
REMARK  status: ('A' for Active; 'I' for Inactive)
REMARK    1  A    between atoms: N_1  and  C_11 
REMARK    2  A    between atoms: Se_2  and  C_20 
REMARK    3  A    between atoms: N_4  and  C_17 
REMARK    4  A    between atoms: C_6  and  C_23 
REMARK    5  A    between atoms: C_11  and  C_14 
REMARK    6  A    between atoms: C_11  and  C_12 
REMARK    7  A    between atoms: C_12  and  C_21 
REMARK       I    between atoms: C_14  and  N_22 
REMARK    8  A    between atoms: C_17  and  C_21 
REMARK    9  A    between atoms: C_20  and  C_23 
REMARK   10  A    between atoms: N_22  and  C_23 
ROOT
HETATM    1  C           1     -36.754   0.529 -15.179  0.00  0.00     0.274 C 
ENDROOT
BRANCH   1   2
HETATM    2  N           1     -36.191   1.691 -15.942  0.00  0.00    -0.067 N 
HETATM    3  H           1     -36.451   2.583 -15.463  0.00  0.00     0.275 HD
HETATM    4  H           1     -35.150   1.609 -15.984  0.00  0.00     0.275 HD
HETATM    5  H           1     -36.581   1.692 -16.912  0.00  0.00     0.275 HD
ENDBRANCH   1   2
BRANCH   1   6
HETATM    6  C           1     -35.889   0.255 -13.973  0.00  0.00     0.249 C 
HETATM    7  O           1     -34.950   0.974 -13.728  0.00  0.00    -0.271 OA
HETATM    8  N           1     -36.169  -0.808 -13.156  0.00  0.00    -0.345 N 
HETATM    9  H           1     -36.957  -1.409 -13.362  0.00  0.00     0.163 HD
BRANCH   8  10
HETATM   10  C           1     -35.338  -1.070 -11.997  0.00  0.00     0.185 C 
BRANCH  10  11
HETATM   11  C           1     -34.455  -2.263 -12.272  0.00  0.00     0.196 C 
HETATM   12  O           1     -34.589  -2.907 -13.334  0.00  0.00    -0.646 OA
HETATM   13  O           1     -33.590  -2.605 -11.438  0.00  0.00    -0.646 OA
ENDBRANCH  10  11
BRANCH  10  14
HETATM   14  C           1     -36.225  -1.361 -10.794  0.00  0.00     0.039 C 
BRANCH  14  15
HETATM   15 Se           1     -37.285   0.219 -10.371  0.00  0.00     0.000 Se
HETATM   16  H           1     -37.443   0.630 -11.775  0.00  0.00     0.000 HD
ENDBRANCH  14  15
ENDBRANCH  10  14
ENDBRANCH   8  10
ENDBRANCH   1   6
BRANCH   1  17
HETATM   17  C           1     -36.782  -0.702 -16.075  0.00  0.00     0.044 C 
BRANCH  17  18
HETATM   18  C           1     -35.396  -0.935 -16.662  0.00  0.00     0.030 C 
BRANCH  18  19
HETATM   19  C           1     -35.067  -2.421 -16.616  0.00  0.00     0.230 C 
BRANCH  19  20
HETATM   20  N           1     -33.823  -2.683 -17.412  0.00  0.00    -0.079 N 
HETATM   21  H           1     -34.078  -2.859 -18.410  0.00  0.00     0.274 HD
HETATM   22  H           1     -33.192  -1.852 -17.355  0.00  0.00     0.274 HD
HETATM   23  H           1     -33.332  -3.521 -17.025  0.00  0.00     0.274 HD
ENDBRANCH  19  20
ENDBRANCH  18  19
ENDBRANCH  17  18
ENDBRANCH   1  17
TORSDOF 10
ENDMDL
MODEL 9
REMARK VINA RESULT:      -4.7     14.940     16.390
REMARK  10 active torsions:
REMARK  status: ('A' for Active; 'I' for Inactive)
REMARK    1  A    between atoms: N_1  and  C_11 
REMARK    2  A    between atoms: Se_2  and  C_20 
REMARK    3  A    between atoms: N_4  and  C_17 
REMARK    4  A    between atoms: C_6  and  C_23 
REMARK    5  A    between atoms: C_11  and  C_14 
REMARK    6  A    between atoms: C_11  and  C_12 
REMARK    7  A    between atoms: C_12  and  C_21 
REMARK       I    between atoms: C_14  and  N_22 
REMARK    8  A    between atoms: C_17  and  C_21 
REMARK    9  A    between atoms: C_20  and  C_23 
REMARK   10  A    between atoms: N_22  and  C_23 
ROOT
HETATM    1  C           1     -21.551  -4.617  -8.377  0.00  0.00     0.274 C 
ENDROOT
BRANCH   1   2
HETATM    2  N           1     -22.587  -3.535  -8.297  0.00  0.00    -0.067 N 
HETATM    3  H           1     -23.478  -3.932  -7.922  0.00  0.00     0.275 HD
HETATM    4  H           1     -22.249  -2.776  -7.663  0.00  0.00     0.275 HD
HETATM    5  H           1     -22.756  -3.144  -9.251  0.00  0.00     0.275 HD
ENDBRANCH   1   2
BRANCH   1   6
HETATM    6  C           1     -21.155  -5.037  -6.983  0.00  0.00     0.249 C 
HETATM    7  O           1     -20.639  -4.239  -6.237  0.00  0.00    -0.271 OA
HETATM    8  N           1     -21.379  -6.321  -6.564  0.00  0.00    -0.345 N 
HETATM    9  H           1     -21.813  -6.988  -7.190  0.00  0.00     0.163 HD
BRANCH   8  10
HETATM   10  C           1     -20.998  -6.723  -5.224  0.00  0.00     0.185 C 
BRANCH  10  11
HETATM   11  C           1     -20.432  -8.121  -5.261  0.00  0.00     0.196 C 
HETATM   12  O           1     -21.021  -9.016  -5.903  0.00  0.00    -0.646 OA
HETATM   13  O           1     -19.373  -8.382  -4.649  0.00  0.00    -0.646 OA
ENDBRANCH  10  11
BRANCH  10  14
HETATM   14  C           1     -22.223  -6.694  -4.319  0.00  0.00     0.039 C 
BRANCH  14  15
HETATM   15 Se           1     -21.670  -6.319  -2.488  0.00  0.00     0.000 Se
HETATM   16  H           1     -20.232  -6.329  -2.798  0.00  0.00     0.000 HD
ENDBRANCH  14  15
ENDBRANCH  10  14
ENDBRANCH   8  10
ENDBRANCH   1   6
BRANCH   1  17
HETATM   17  C           1     -20.328  -4.095  -9.119  0.00  0.00     0.044 C 
BRANCH  17  18
HETATM   18  C           1     -20.437  -4.456 -10.595  0.00  0.00     0.030 C 
BRANCH  18  19
HETATM   19  C           1     -20.984  -3.265 -11.371  0.00  0.00     0.230 C 
BRANCH  19  20
HETATM   20  N           1     -21.672  -3.751 -12.612  0.00  0.00    -0.079 N 
HETATM   21  H           1     -22.248  -4.594 -12.386  0.00  0.00     0.274 HD
HETATM   22  H           1     -22.292  -2.997 -12.985  0.00  0.00     0.274 HD
HETATM   23  H           1     -20.957  -4.001 -13.331  0.00  0.00     0.274 HD
ENDBRANCH  19  20
ENDBRANCH  18  19
ENDBRANCH  17  18
ENDBRANCH   1  17
TORSDOF 10
ENDMDL
