MODEL 1
REMARK VINA RESULT:      -6.3      0.000      0.000
REMARK  7 active torsions:
REMARK  status: ('A' for Active; 'I' for Inactive)
REMARK       I    between atoms: C_4  and  N_20 
REMARK    1  A    between atoms: C_4  and  C_17 
REMARK    2  A    between atoms: C_5  and  C_6 
REMARK       I    between atoms: C_5  and  N_12 
REMARK    3  A    between atoms: C_6  and  C_7 
REMARK    4  A    between atoms: C_7  and  C_17 
REMARK    5  A    between atoms: N_8  and  C_17 
REMARK    6  A    between atoms: C_14  and  C_19 
REMARK    7  A    between atoms: C_14  and  N_20 
ROOT
HETATM    1  C           1     -21.352  -4.311 -10.840  0.00  0.00     0.275 C 
ENDROOT
BRANCH   1   2
HETATM    2  C           1     -22.624  -4.029 -11.600  0.00  0.00     0.248 C 
HETATM    3  N           1     -22.677  -2.984 -12.483  0.00  0.00    -0.349 N 
HETATM    4  H           1     -21.863  -2.401 -12.626  0.00  0.00     0.163 HD
HETATM    5  O           1     -23.597  -4.726 -11.429  0.00  0.00    -0.271 OA
BRANCH   3   6
HETATM    6  C           1     -23.900  -2.714 -13.213  0.00  0.00     0.235 C 
BRANCH   6   7
HETATM    7  C           1     -23.562  -2.122 -14.560  0.00  0.00     0.191 C 
HETATM    8  O           1     -24.172  -1.110 -14.969  0.00  0.00    -0.647 OA
HETATM    9  O           1     -22.672  -2.644 -15.266  0.00  0.00    -0.647 OA
ENDBRANCH   6   7
ENDBRANCH   3   6
ENDBRANCH   1   2
BRANCH   1  10
HETATM   10  C           1     -21.454  -3.717  -9.441  0.00  0.00     0.052 C 
BRANCH  10  11
HETATM   11  C           1     -21.824  -4.812  -8.450  0.00  0.00     0.105 C 
BRANCH  11  12
HETATM   12  C           1     -23.103  -4.441  -7.741  0.00  0.00     0.215 C 
HETATM   13  N           1     -24.108  -3.813  -8.426  0.00  0.00    -0.370 N 
HETATM   14  H           1     -24.967  -3.565  -7.950  0.00  0.00     0.159 HD
HETATM   15  H           1     -23.994  -3.599  -9.409  0.00  0.00     0.159 HD
HETATM   16  O           1     -23.240  -4.698  -6.569  0.00  0.00    -0.274 OA
ENDBRANCH  11  12
ENDBRANCH  10  11
ENDBRANCH   1  10
BRANCH   1  17
HETATM   17  N           1     -20.192  -3.691 -11.562  0.00  0.00    -0.066 N 
HETATM   18  H           1     -20.525  -2.874 -12.121  0.00  0.00     0.275 HD
HETATM   19  H           1     -19.481  -3.370 -10.866  0.00  0.00     0.275 HD
HETATM   20  H           1     -19.761  -4.396 -12.200  0.00  0.00     0.275 HD
ENDBRANCH   1  17
TORSDOF 7
ENDMDL
MODEL 2
REMARK VINA RESULT:      -6.2      7.638      9.330
REMARK  7 active torsions:
REMARK  status: ('A' for Active; 'I' for Inactive)
REMARK       I    between atoms: C_4  and  N_20 
REMARK    1  A    between atoms: C_4  and  C_17 
REMARK    2  A    between atoms: C_5  and  C_6 
REMARK       I    between atoms: C_5  and  N_12 
REMARK    3  A    between atoms: C_6  and  C_7 
REMARK    4  A    between atoms: C_7  and  C_17 
REMARK    5  A    between atoms: N_8  and  C_17 
REMARK    6  A    between atoms: C_14  and  C_19 
REMARK    7  A    between atoms: C_14  and  N_20 
ROOT
HETATM    1  C           1     -28.822  -6.916 -16.660  0.00  0.00     0.275 C 
ENDROOT
BRANCH   1   2
HETATM    2  C           1     -29.906  -5.973 -16.201  0.00  0.00     0.248 C 
HETATM    3  N           1     -31.003  -5.753 -16.991  0.00  0.00    -0.349 N 
HETATM    4  H           1     -31.085  -6.224 -17.883  0.00  0.00     0.163 HD
HETATM    5  O           1     -29.807  -5.411 -15.135  0.00  0.00    -0.271 OA
BRANCH   3   6
HETATM    6  C           1     -32.044  -4.847 -16.549  0.00  0.00     0.235 C 
BRANCH   6   7
HETATM    7  C           1     -32.034  -3.609 -17.413  0.00  0.00     0.191 C 
HETATM    8  O           1     -33.087  -2.959 -17.587  0.00  0.00    -0.647 OA
HETATM    9  O           1     -30.971  -3.234 -17.954  0.00  0.00    -0.647 OA
ENDBRANCH   6   7
ENDBRANCH   3   6
ENDBRANCH   1   2
BRANCH   1  10
HETATM   10  C           1     -27.545  -6.643 -15.875  0.00  0.00     0.052 C 
BRANCH  10  11
HETATM   11  C           1     -26.398  -6.387 -16.842  0.00  0.00     0.105 C 
BRANCH  11  12
HETATM   12  C           1     -25.157  -7.093 -16.353  0.00  0.00     0.215 C 
HETATM   13  N           1     -24.223  -7.538 -17.249  0.00  0.00    -0.370 N 
HETATM   14  H           1     -23.391  -8.011 -16.920  0.00  0.00     0.159 HD
HETATM   15  H           1     -24.364  -7.392 -18.241  0.00  0.00     0.159 HD
HETATM   16  O           1     -24.989  -7.267 -15.169  0.00  0.00    -0.274 OA
ENDBRANCH  11  12
ENDBRANCH  10  11
ENDBRANCH   1  10
BRANCH   1  17
HETATM   17  N           1     -28.563  -6.705 -18.123  0.00  0.00    -0.066 N 
HETATM   18  H           1     -29.425  -6.936 -18.666  0.00  0.00     0.275 HD
HETATM   19  H           1     -28.305  -5.705 -18.289  0.00  0.00     0.275 HD
HETATM   20  H           1     -27.780  -7.323 -18.431  0.00  0.00     0.275 HD
ENDBRANCH   1  17
TORSDOF 7
ENDMDL
MODEL 3
REMARK VINA RESULT:      -6.2      7.929     10.117
REMARK  7 active torsions:
REMARK  status: ('A' for Active; 'I' for Inactive)
REMARK       I    between atoms: C_4  and  N_20 
REMARK    1  A    between atoms: C_4  and  C_17 
REMARK    2  A    between atoms: C_5  and  C_6 
REMARK       I    between atoms: C_5  and  N_12 
REMARK    3  A    between atoms: C_6  and  C_7 
REMARK    4  A    between atoms: C_7  and  C_17 
REMARK    5  A    between atoms: N_8  and  C_17 
REMARK    6  A    between atoms: C_14  and  C_19 
REMARK    7  A    between atoms: C_14  and  N_20 
ROOT
HETATM    1  C           1     -29.734  -6.769 -18.210  0.00  0.00     0.275 C 
ENDROOT
BRANCH   1   2
HETATM    2  C           1     -28.290  -6.334 -18.250  0.00  0.00     0.248 C 
HETATM    3  N           1     -27.416  -6.771 -17.290  0.00  0.00    -0.349 N 
HETATM    4  H           1     -27.740  -7.385 -16.554  0.00  0.00     0.163 HD
HETATM    5  O           1     -27.904  -5.600 -19.129  0.00  0.00    -0.271 OA
BRANCH   3   6
HETATM    6  C           1     -26.029  -6.352 -17.328  0.00  0.00     0.235 C 
BRANCH   6   7
HETATM    7  C           1     -25.438  -6.442 -15.942  0.00  0.00     0.191 C 
HETATM    8  O           1     -25.411  -7.539 -15.344  0.00  0.00    -0.647 OA
HETATM    9  O           1     -24.975  -5.418 -15.393  0.00  0.00    -0.647 OA
ENDBRANCH   6   7
ENDBRANCH   3   6
ENDBRANCH   1   2
BRANCH   1  10
HETATM   10  C           1     -30.387  -6.246 -16.937  0.00  0.00     0.052 C 
BRANCH  10  11
HETATM   11  C           1     -31.863  -5.977 -17.196  0.00  0.00     0.105 C 
BRANCH  11  12
HETATM   12  C           1     -32.195  -4.559 -16.801  0.00  0.00     0.215 C 
HETATM   13  N           1     -33.341  -4.293 -16.102  0.00  0.00    -0.370 N 
HETATM   14  H           1     -33.564  -3.342 -15.836  0.00  0.00     0.159 HD
HETATM   15  H           1     -33.966  -5.049 -15.849  0.00  0.00     0.159 HD
HETATM   16  O           1     -31.449  -3.658 -17.102  0.00  0.00    -0.274 OA
ENDBRANCH  11  12
ENDBRANCH  10  11
ENDBRANCH   1  10
BRANCH   1  17
HETATM   17  N           1     -29.804  -8.267 -18.228  0.00  0.00    -0.066 N 
HETATM   18  H           1     -30.769  -8.574 -17.970  0.00  0.00     0.275 HD
HETATM   19  H           1     -29.573  -8.614 -19.186  0.00  0.00     0.275 HD
HETATM   20  H           1     -29.121  -8.657 -17.541  0.00  0.00     0.275 HD
ENDBRANCH   1  17
TORSDOF 7
ENDMDL
MODEL 4
REMARK VINA RESULT:      -6.2      1.638      6.250
REMARK  7 active torsions:
REMARK  status: ('A' for Active; 'I' for Inactive)
REMARK       I    between atoms: C_4  and  N_20 
REMARK    1  A    between atoms: C_4  and  C_17 
REMARK    2  A    between atoms: C_5  and  C_6 
REMARK       I    between atoms: C_5  and  N_12 
REMARK    3  A    between atoms: C_6  and  C_7 
REMARK    4  A    between atoms: C_7  and  C_17 
REMARK    5  A    between atoms: N_8  and  C_17 
REMARK    6  A    between atoms: C_14  and  C_19 
REMARK    7  A    between atoms: C_14  and  N_20 
ROOT
HETATM    1  C           1     -24.166  -4.059 -10.406  0.00  0.00     0.275 C 
ENDROOT
BRANCH   1   2
HETATM    2  C           1     -22.910  -4.140  -9.574  0.00  0.00     0.248 C 
HETATM    3  N           1     -22.971  -3.941  -8.221  0.00  0.00    -0.349 N 
HETATM    4  H           1     -23.859  -3.740  -7.779  0.00  0.00     0.163 HD
HETATM    5  O           1     -21.850  -4.380 -10.102  0.00  0.00    -0.271 OA
BRANCH   3   6
HETATM    6  C           1     -21.764  -4.019  -7.422  0.00  0.00     0.235 C 
BRANCH   6   7
HETATM    7  C           1     -21.690  -5.370  -6.753  0.00  0.00     0.191 C 
HETATM    8  O           1     -22.342  -5.587  -5.708  0.00  0.00    -0.647 OA
HETATM    9  O           1     -20.977  -6.273  -7.243  0.00  0.00    -0.647 OA
ENDBRANCH   6   7
ENDBRANCH   3   6
ENDBRANCH   1   2
BRANCH   1  10
HETATM   10  C           1     -24.062  -2.883 -11.369  0.00  0.00     0.052 C 
BRANCH  10  11
HETATM   11  C           1     -24.427  -3.343 -12.774  0.00  0.00     0.105 C 
BRANCH  11  12
HETATM   12  C           1     -23.236  -3.179 -13.685  0.00  0.00     0.215 C 
HETATM   13  N           1     -21.974  -3.431 -13.216  0.00  0.00    -0.370 N 
HETATM   14  H           1     -21.176  -3.321 -13.828  0.00  0.00     0.159 HD
HETATM   15  H           1     -21.842  -3.728 -12.257  0.00  0.00     0.159 HD
HETATM   16  O           1     -23.395  -2.826 -14.829  0.00  0.00    -0.274 OA
ENDBRANCH  11  12
ENDBRANCH  10  11
ENDBRANCH   1  10
BRANCH   1  17
HETATM   17  N           1     -25.349  -3.862  -9.505  0.00  0.00    -0.066 N 
HETATM   18  H           1     -25.801  -2.945  -9.718  0.00  0.00     0.275 HD
HETATM   19  H           1     -26.037  -4.634  -9.662  0.00  0.00     0.275 HD
HETATM   20  H           1     -25.035  -3.873  -8.509  0.00  0.00     0.275 HD
ENDBRANCH   1  17
TORSDOF 7
ENDMDL
MODEL 5
REMARK VINA RESULT:      -6.1      1.865      2.450
REMARK  7 active torsions:
REMARK  status: ('A' for Active; 'I' for Inactive)
REMARK       I    between atoms: C_4  and  N_20 
REMARK    1  A    between atoms: C_4  and  C_17 
REMARK    2  A    between atoms: C_5  and  C_6 
REMARK       I    between atoms: C_5  and  N_12 
REMARK    3  A    between atoms: C_6  and  C_7 
REMARK    4  A    between atoms: C_7  and  C_17 
REMARK    5  A    between atoms: N_8  and  C_17 
REMARK    6  A    between atoms: C_14  and  C_19 
REMARK    7  A    between atoms: C_14  and  N_20 
ROOT
HETATM    1  C           1     -23.152  -3.543  -9.250  0.00  0.00     0.275 C 
ENDROOT
BRANCH   1   2
HETATM    2  C           1     -24.084  -3.313 -10.414  0.00  0.00     0.248 C 
HETATM    3  N           1     -23.576  -3.136 -11.673  0.00  0.00    -0.349 N 
HETATM    4  H           1     -22.575  -3.159 -11.822  0.00  0.00     0.163 HD
HETATM    5  O           1     -25.278  -3.285 -10.235  0.00  0.00    -0.271 OA
BRANCH   3   6
HETATM    6  C           1     -24.471  -2.915 -12.791  0.00  0.00     0.235 C 
BRANCH   6   7
HETATM    7  C           1     -23.687  -2.383 -13.966  0.00  0.00     0.191 C 
HETATM    8  O           1     -24.144  -1.440 -14.648  0.00  0.00    -0.647 OA
HETATM    9  O           1     -22.580  -2.885 -14.258  0.00  0.00    -0.647 OA
ENDBRANCH   6   7
ENDBRANCH   3   6
ENDBRANCH   1   2
BRANCH   1  10
HETATM   10  C           1     -22.102  -4.577  -9.636  0.00  0.00     0.052 C 
BRANCH  10  11
HETATM   11  C           1     -20.755  -4.177  -9.051  0.00  0.00     0.105 C 
BRANCH  11  12
HETATM   12  C           1     -20.596  -4.791  -7.682  0.00  0.00     0.215 C 
HETATM   13  N           1     -20.067  -6.047  -7.551  0.00  0.00    -0.370 N 
HETATM   14  H           1     -19.961  -6.459  -6.633  0.00  0.00     0.159 HD
HETATM   15  H           1     -19.782  -6.564  -8.374  0.00  0.00     0.159 HD
HETATM   16  O           1     -20.936  -4.175  -6.701  0.00  0.00    -0.274 OA
ENDBRANCH  11  12
ENDBRANCH  10  11
ENDBRANCH   1  10
BRANCH   1  17
HETATM   17  N           1     -23.937  -4.045  -8.073  0.00  0.00    -0.066 N 
HETATM   18  H           1     -23.758  -5.066  -7.945  0.00  0.00     0.275 HD
HETATM   19  H           1     -23.641  -3.529  -7.214  0.00  0.00     0.275 HD
HETATM   20  H           1     -24.955  -3.888  -8.242  0.00  0.00     0.275 HD
ENDBRANCH   1  17
TORSDOF 7
ENDMDL
MODEL 6
REMARK VINA RESULT:      -5.9     11.331     12.283
REMARK  7 active torsions:
REMARK  status: ('A' for Active; 'I' for Inactive)
REMARK       I    between atoms: C_4  and  N_20 
REMARK    1  A    between atoms: C_4  and  C_17 
REMARK    2  A    between atoms: C_5  and  C_6 
REMARK       I    between atoms: C_5  and  N_12 
REMARK    3  A    between atoms: C_6  and  C_7 
REMARK    4  A    between atoms: C_7  and  C_17 
REMARK    5  A    between atoms: N_8  and  C_17 
REMARK    6  A    between atoms: C_14  and  C_19 
REMARK    7  A    between atoms: C_14  and  N_20 
ROOT
HETATM    1  C           1     -33.528  -2.134 -11.199  0.00  0.00     0.275 C 
ENDROOT
BRANCH   1   2
HETATM    2  C           1     -34.683  -1.725 -12.080  0.00  0.00     0.248 C 
HETATM    3  N           1     -34.916  -0.399 -12.331  0.00  0.00    -0.349 N 
HETATM    4  H           1     -34.314   0.306 -11.925  0.00  0.00     0.163 HD
HETATM    5  O           1     -35.401  -2.567 -12.564  0.00  0.00    -0.271 OA
BRANCH   3   6
HETATM    6  C           1     -36.026  -0.006 -13.177  0.00  0.00     0.235 C 
BRANCH   6   7
HETATM    7  C           1     -35.628  -0.148 -14.626  0.00  0.00     0.191 C 
HETATM    8  O           1     -36.372  -0.761 -15.422  0.00  0.00    -0.647 OA
HETATM    9  O           1     -34.554   0.349 -15.030  0.00  0.00    -0.647 OA
ENDBRANCH   6   7
ENDBRANCH   3   6
ENDBRANCH   1   2
BRANCH   1  10
HETATM   10  C           1     -33.161  -3.585 -11.485  0.00  0.00     0.052 C 
BRANCH  10  11
HETATM   11  C           1     -33.879  -4.495 -10.498  0.00  0.00     0.105 C 
BRANCH  11  12
HETATM   12  C           1     -34.339  -5.745 -11.207  0.00  0.00     0.215 C 
HETATM   13  N           1     -34.742  -5.684 -12.513  0.00  0.00    -0.370 N 
HETATM   14  H           1     -35.050  -6.523 -12.988  0.00  0.00     0.159 HD
HETATM   15  H           1     -34.730  -4.799 -13.005  0.00  0.00     0.159 HD
HETATM   16  O           1     -34.353  -6.801 -10.620  0.00  0.00    -0.274 OA
ENDBRANCH  11  12
ENDBRANCH  10  11
ENDBRANCH   1  10
BRANCH   1  17
HETATM   17  N           1     -33.924  -1.994  -9.759  0.00  0.00    -0.066 N 
HETATM   18  H           1     -34.956  -2.127  -9.667  0.00  0.00     0.275 HD
HETATM   19  H           1     -33.427  -2.716  -9.191  0.00  0.00     0.275 HD
HETATM   20  H           1     -33.665  -1.042  -9.418  0.00  0.00     0.275 HD
ENDBRANCH   1  17
TORSDOF 7
ENDMDL
MODEL 7
REMARK VINA RESULT:      -5.7      1.939      6.197
REMARK  7 active torsions:
REMARK  status: ('A' for Active; 'I' for Inactive)
REMARK       I    between atoms: C_4  and  N_20 
REMARK    1  A    between atoms: C_4  and  C_17 
REMARK    2  A    between atoms: C_5  and  C_6 
REMARK       I    between atoms: C_5  and  N_12 
REMARK    3  A    between atoms: C_6  and  C_7 
REMARK    4  A    between atoms: C_7  and  C_17 
REMARK    5  A    between atoms: N_8  and  C_17 
REMARK    6  A    between atoms: C_14  and  C_19 
REMARK    7  A    between atoms: C_14  and  N_20 
ROOT
HETATM    1  C           1     -22.023  -2.896 -11.483  0.00  0.00     0.275 C 
ENDROOT
BRANCH   1   2
HETATM    2  C           1     -22.419  -3.747 -10.303  0.00  0.00     0.248 C 
HETATM    3  N           1     -21.491  -4.068  -9.348  0.00  0.00    -0.349 N 
HETATM    4  H           1     -20.540  -3.735  -9.435  0.00  0.00     0.163 HD
HETATM    5  O           1     -23.555  -4.145 -10.199  0.00  0.00    -0.271 OA
BRANCH   3   6
HETATM    6  C           1     -21.873  -4.886  -8.213  0.00  0.00     0.235 C 
BRANCH   6   7
HETATM    7  C           1     -20.656  -5.172  -7.368  0.00  0.00     0.191 C 
HETATM    8  O           1     -20.014  -6.232  -7.534  0.00  0.00    -0.647 OA
HETATM    9  O           1     -20.290  -4.349  -6.500  0.00  0.00    -0.647 OA
ENDBRANCH   6   7
ENDBRANCH   3   6
ENDBRANCH   1   2
BRANCH   1  10
HETATM   10  C           1     -22.680  -3.440 -12.745  0.00  0.00     0.052 C 
BRANCH  10  11
HETATM   11  C           1     -23.777  -2.487 -13.198  0.00  0.00     0.105 C 
BRANCH  11  12
HETATM   12  C           1     -23.444  -1.948 -14.568  0.00  0.00     0.215 C 
HETATM   13  N           1     -23.999  -0.771 -14.995  0.00  0.00    -0.370 N 
HETATM   14  H           1     -23.775  -0.410 -15.913  0.00  0.00     0.159 HD
HETATM   15  H           1     -24.633  -0.262 -14.390  0.00  0.00     0.159 HD
HETATM   16  O           1     -22.688  -2.555 -15.288  0.00  0.00    -0.274 OA
ENDBRANCH  11  12
ENDBRANCH  10  11
ENDBRANCH   1  10
BRANCH   1  17
HETATM   17  N           1     -20.531  -2.929 -11.644  0.00  0.00    -0.066 N 
HETATM   18  H           1     -20.227  -2.127 -12.241  0.00  0.00     0.275 HD
HETATM   19  H           1     -20.079  -2.854 -10.705  0.00  0.00     0.275 HD
HETATM   20  H           1     -20.249  -3.827 -12.096  0.00  0.00     0.275 HD
ENDBRANCH   1  17
TORSDOF 7
ENDMDL
MODEL 8
REMARK VINA RESULT:      -5.7      7.147      9.064
REMARK  7 active torsions:
REMARK  status: ('A' for Active; 'I' for Inactive)
REMARK       I    between atoms: C_4  and  N_20 
REMARK    1  A    between atoms: C_4  and  C_17 
REMARK    2  A    between atoms: C_5  and  C_6 
REMARK       I    between atoms: C_5  and  N_12 
REMARK    3  A    between atoms: C_6  and  C_7 
REMARK    4  A    between atoms: C_7  and  C_17 
REMARK    5  A    between atoms: N_8  and  C_17 
REMARK    6  A    between atoms: C_14  and  C_19 
REMARK    7  A    between atoms: C_14  and  N_20 
ROOT
HETATM    1  C           1     -28.935  -6.714 -17.118  0.00  0.00     0.275 C 
ENDROOT
BRANCH   1   2
HETATM    2  C           1     -28.315  -6.251 -18.414  0.00  0.00     0.248 C 
HETATM    3  N           1     -27.426  -7.057 -19.073  0.00  0.00    -0.349 N 
HETATM    4  H           1     -27.185  -7.963 -18.692  0.00  0.00     0.163 HD
HETATM    5  O           1     -28.603  -5.170 -18.869  0.00  0.00    -0.271 OA
BRANCH   3   6
HETATM    6  C           1     -26.831  -6.612 -20.318  0.00  0.00     0.235 C 
BRANCH   6   7
HETATM    7  C           1     -25.349  -6.901 -20.299  0.00  0.00     0.191 C 
HETATM    8  O           1     -24.679  -6.658 -19.272  0.00  0.00    -0.647 OA
HETATM    9  O           1     -24.793  -7.383 -21.310  0.00  0.00    -0.647 OA
ENDBRANCH   6   7
ENDBRANCH   3   6
ENDBRANCH   1   2
BRANCH   1  10
HETATM   10  C           1     -28.036  -6.315 -15.955  0.00  0.00     0.052 C 
BRANCH  10  11
HETATM   11  C           1     -26.947  -7.363 -15.771  0.00  0.00     0.105 C 
BRANCH  11  12
HETATM   12  C           1     -25.594  -6.722 -15.954  0.00  0.00     0.215 C 
HETATM   13  N           1     -24.574  -7.428 -16.534  0.00  0.00    -0.370 N 
HETATM   14  H           1     -23.666  -6.998 -16.658  0.00  0.00     0.159 HD
HETATM   15  H           1     -24.729  -8.380 -16.841  0.00  0.00     0.159 HD
HETATM   16  O           1     -25.409  -5.586 -15.589  0.00  0.00    -0.274 OA
ENDBRANCH  11  12
ENDBRANCH  10  11
ENDBRANCH   1  10
BRANCH   1  17
HETATM   17  N           1     -29.087  -8.206 -17.142  0.00  0.00    -0.066 N 
HETATM   18  H           1     -29.961  -8.475 -16.636  0.00  0.00     0.275 HD
HETATM   19  H           1     -29.144  -8.533 -18.134  0.00  0.00     0.275 HD
HETATM   20  H           1     -28.264  -8.648 -16.676  0.00  0.00     0.275 HD
ENDBRANCH   1  17
TORSDOF 7
ENDMDL
MODEL 9
REMARK VINA RESULT:      -5.7      8.717     11.074
REMARK  7 active torsions:
REMARK  status: ('A' for Active; 'I' for Inactive)
REMARK       I    between atoms: C_4  and  N_20 
REMARK    1  A    between atoms: C_4  and  C_17 
REMARK    2  A    between atoms: C_5  and  C_6 
REMARK       I    between atoms: C_5  and  N_12 
REMARK    3  A    between atoms: C_6  and  C_7 
REMARK    4  A    between atoms: C_7  and  C_17 
REMARK    5  A    between atoms: N_8  and  C_17 
REMARK    6  A    between atoms: C_14  and  C_19 
REMARK    7  A    between atoms: C_14  and  N_20 
ROOT
HETATM    1  C           1     -25.021  -6.642 -18.933  0.00  0.00     0.275 C 
ENDROOT
BRANCH   1   2
HETATM    2  C           1     -26.402  -6.370 -18.392  0.00  0.00     0.248 C 
HETATM    3  N           1     -27.505  -6.761 -19.102  0.00  0.00    -0.349 N 
HETATM    4  H           1     -27.394  -7.233 -19.990  0.00  0.00     0.163 HD
HETATM    5  O           1     -26.536  -5.807 -17.331  0.00  0.00    -0.271 OA
BRANCH   3   6
HETATM    6  C           1     -28.833  -6.500 -18.581  0.00  0.00     0.235 C 
BRANCH   6   7
HETATM    7  C           1     -29.526  -7.809 -18.291  0.00  0.00     0.191 C 
HETATM    8  O           1     -29.932  -8.523 -19.233  0.00  0.00    -0.647 OA
HETATM    9  O           1     -29.694  -8.179 -17.109  0.00  0.00    -0.647 OA
ENDBRANCH   6   7
ENDBRANCH   3   6
ENDBRANCH   1   2
BRANCH   1  10
HETATM   10  C           1     -25.132  -7.362 -20.271  0.00  0.00     0.052 C 
BRANCH  10  11
HETATM   11  C           1     -23.834  -8.101 -20.561  0.00  0.00     0.105 C 
BRANCH  11  12
HETATM   12  C           1     -23.694  -8.314 -22.048  0.00  0.00     0.215 C 
HETATM   13  N           1     -22.640  -9.034 -22.542  0.00  0.00    -0.370 N 
HETATM   14  H           1     -22.547  -9.176 -23.539  0.00  0.00     0.159 HD
HETATM   15  H           1     -21.954  -9.425 -21.908  0.00  0.00     0.159 HD
HETATM   16  O           1     -24.513  -7.848 -22.804  0.00  0.00    -0.274 OA
ENDBRANCH  11  12
ENDBRANCH  10  11
ENDBRANCH   1  10
BRANCH   1  17
HETATM   17  N           1     -24.265  -7.503 -17.965  0.00  0.00    -0.066 N 
HETATM   18  H           1     -24.908  -7.819 -17.204  0.00  0.00     0.275 HD
HETATM   19  H           1     -23.883  -8.337 -18.466  0.00  0.00     0.275 HD
HETATM   20  H           1     -23.479  -6.954 -17.551  0.00  0.00     0.275 HD
ENDBRANCH   1  17
TORSDOF 7
ENDMDL
