MODEL 1
REMARK VINA RESULT:      -8.1      0.000      0.000
REMARK  8 active torsions:
REMARK  status: ('A' for Active; 'I' for Inactive)
REMARK    1  A    between atoms: C_3  and  O_4 
REMARK    2  A    between atoms: O_4  and  P_6 
REMARK    3  A    between atoms: C_5  and  C_21 
REMARK    4  A    between atoms: C_5  and  C_7 
REMARK    5  A    between atoms: C_5  and  N_18 
REMARK    6  A    between atoms: P_6  and  O_8 
REMARK    7  A    between atoms: C_7  and  C_24 
REMARK       I    between atoms: N_18  and  C_25 
REMARK    8  A    between atoms: C_25  and  C_26 
ROOT
HETATM    1  C           1     -20.996  -5.211  -6.492  0.00  0.00     0.189 C 
ENDROOT
BRANCH   1   2
HETATM    2  C           1     -19.613  -5.415  -7.059  0.00  0.00     0.197 C 
HETATM    3  O           1     -18.763  -4.502  -6.978  0.00  0.00    -0.646 OA
HETATM    4  O           1     -19.317  -6.497  -7.611  0.00  0.00    -0.646 OA
ENDBRANCH   1   2
BRANCH   1   5
HETATM    5  C           1     -21.567  -3.895  -7.004  0.00  0.00     0.070 C 
BRANCH   5   6
HETATM    6  C           1     -22.125  -4.092  -8.379  0.00  0.00    -0.073 A 
HETATM    7  C           1     -23.506  -4.137  -8.570  0.00  0.00     0.027 A 
HETATM    8  C           1     -24.027  -4.319  -9.851  0.00  0.00     0.015 A 
HETATM    9  C           1     -23.167  -4.458 -10.941  0.00  0.00     0.078 A 
HETATM   10  C           1     -21.786  -4.412 -10.749  0.00  0.00     0.037 A 
HETATM   11  C           1     -21.265  -4.229  -9.469  0.00  0.00     0.006 A 
BRANCH   9  12
HETATM   12  O           1     -23.672  -4.636 -12.185  0.00  0.00    -0.248 OA
BRANCH  12  13
HETATM   13  P           1     -24.022  -3.323 -13.058  0.00  0.00     0.411 P 
HETATM   14  O           1     -23.069  -2.240 -12.724  0.00  0.00    -0.624 OA
HETATM   15  O           1     -25.400  -2.879 -12.751  0.00  0.00    -0.624 OA
BRANCH  13  16
HETATM   16  O           1     -23.905  -3.675 -14.630  0.00  0.00    -0.300 OA
HETATM   17  H           1     -24.755  -4.001 -14.870  0.00  0.00     0.223 HD
ENDBRANCH  13  16
ENDBRANCH  12  13
ENDBRANCH   9  12
ENDBRANCH   5   6
ENDBRANCH   1   5
BRANCH   1  18
HETATM   18  N           1     -20.925  -5.175  -5.045  0.00  0.00    -0.344 N 
HETATM   19  H           1     -20.721  -4.305  -4.569  0.00  0.00     0.163 HD
HETATM   20  C           1     -21.133  -6.319  -4.321  0.00  0.00     0.252 C 
HETATM   21  O           1     -21.073  -6.288  -3.114  0.00  0.00    -0.271 OA
BRANCH  20  22
HETATM   22  C           1     -21.436  -7.615  -5.029  0.00  0.00     0.345 C 
HETATM   23  C           1     -21.932  -8.665  -4.048  0.00  0.00     0.048 C 
HETATM   24  C           1     -20.691  -9.461  -3.659  0.00  0.00     0.033 C 
HETATM   25  C           1     -19.553  -8.831  -4.443  0.00  0.00     0.271 C 
HETATM   26  N           1     -20.219  -8.203  -5.582  0.00  0.00     0.097 N 
HETATM   27  H           1     -20.444  -8.914  -6.278  0.00  0.00     0.317 HD
ENDBRANCH  20  22
ENDBRANCH   1  18
TORSDOF 8
ENDMDL
MODEL 2
REMARK VINA RESULT:      -7.2     10.743     13.328
REMARK  8 active torsions:
REMARK  status: ('A' for Active; 'I' for Inactive)
REMARK    1  A    between atoms: C_3  and  O_4 
REMARK    2  A    between atoms: O_4  and  P_6 
REMARK    3  A    between atoms: C_5  and  C_21 
REMARK    4  A    between atoms: C_5  and  C_7 
REMARK    5  A    between atoms: C_5  and  N_18 
REMARK    6  A    between atoms: P_6  and  O_8 
REMARK    7  A    between atoms: C_7  and  C_24 
REMARK       I    between atoms: N_18  and  C_25 
REMARK    8  A    between atoms: C_25  and  C_26 
ROOT
HETATM    1  C           1     -32.713  -4.661 -16.307  0.00  0.00     0.189 C 
ENDROOT
BRANCH   1   2
HETATM    2  C           1     -33.029  -3.391 -17.059  0.00  0.00     0.197 C 
HETATM    3  O           1     -32.183  -2.898 -17.836  0.00  0.00    -0.646 OA
HETATM    4  O           1     -34.136  -2.832 -16.903  0.00  0.00    -0.646 OA
ENDBRANCH   1   2
BRANCH   1   5
HETATM    5  C           1     -32.120  -5.685 -17.266  0.00  0.00     0.070 C 
BRANCH   5   6
HETATM    6  C           1     -30.785  -6.133 -16.759  0.00  0.00    -0.073 A 
HETATM    7  C           1     -30.206  -5.492 -15.663  0.00  0.00     0.027 A 
HETATM    8  C           1     -28.962  -5.909 -15.188  0.00  0.00     0.015 A 
HETATM    9  C           1     -28.298  -6.966 -15.809  0.00  0.00     0.078 A 
HETATM   10  C           1     -28.877  -7.608 -16.905  0.00  0.00     0.037 A 
HETATM   11  C           1     -30.121  -7.191 -17.379  0.00  0.00     0.006 A 
BRANCH   9  12
HETATM   12  O           1     -27.090  -7.372 -15.349  0.00  0.00    -0.248 OA
BRANCH  12  13
HETATM   13  P           1     -25.768  -6.685 -15.974  0.00  0.00     0.411 P 
HETATM   14  O           1     -25.192  -5.741 -14.990  0.00  0.00    -0.624 OA
HETATM   15  O           1     -26.130  -5.953 -17.208  0.00  0.00    -0.624 OA
BRANCH  13  16
HETATM   16  O           1     -24.681  -7.828 -16.322  0.00  0.00    -0.300 OA
HETATM   17  H           1     -24.537  -8.282 -15.510  0.00  0.00     0.223 HD
ENDBRANCH  13  16
ENDBRANCH  12  13
ENDBRANCH   9  12
ENDBRANCH   5   6
ENDBRANCH   1   5
BRANCH   1  18
HETATM   18  N           1     -33.929  -5.193 -15.724  0.00  0.00    -0.344 N 
HETATM   19  H           1     -34.520  -5.812 -16.264  0.00  0.00     0.163 HD
HETATM   20  C           1     -34.277  -4.858 -14.443  0.00  0.00     0.252 C 
HETATM   21  O           1     -35.291  -5.302 -13.958  0.00  0.00    -0.271 OA
BRANCH  20  22
HETATM   22  C           1     -33.396  -3.935 -13.639  0.00  0.00     0.345 C 
HETATM   23  C           1     -32.852  -4.643 -12.410  0.00  0.00     0.048 C 
HETATM   24  C           1     -33.819  -4.287 -11.286  0.00  0.00     0.033 C 
HETATM   25  C           1     -34.861  -3.388 -11.929  0.00  0.00     0.271 C 
HETATM   26  N           1     -34.171  -2.827 -13.088  0.00  0.00     0.097 N 
HETATM   27  H           1     -33.557  -2.071 -12.783  0.00  0.00     0.317 HD
ENDBRANCH  20  22
ENDBRANCH   1  18
TORSDOF 8
ENDMDL
MODEL 3
REMARK VINA RESULT:      -6.8      2.908      4.361
REMARK  8 active torsions:
REMARK  status: ('A' for Active; 'I' for Inactive)
REMARK    1  A    between atoms: C_3  and  O_4 
REMARK    2  A    between atoms: O_4  and  P_6 
REMARK    3  A    between atoms: C_5  and  C_21 
REMARK    4  A    between atoms: C_5  and  C_7 
REMARK    5  A    between atoms: C_5  and  N_18 
REMARK    6  A    between atoms: P_6  and  O_8 
REMARK    7  A    between atoms: C_7  and  C_24 
REMARK       I    between atoms: N_18  and  C_25 
REMARK    8  A    between atoms: C_25  and  C_26 
ROOT
HETATM    1  C           1     -20.556  -8.373  -4.487  0.00  0.00     0.189 C 
ENDROOT
BRANCH   1   2
HETATM    2  C           1     -20.958  -9.759  -4.928  0.00  0.00     0.197 C 
HETATM    3  O           1     -20.462 -10.254  -5.963  0.00  0.00    -0.646 OA
HETATM    4  O           1     -21.789 -10.411  -4.259  0.00  0.00    -0.646 OA
ENDBRANCH   1   2
BRANCH   1   5
HETATM    5  C           1     -19.697  -7.726  -5.566  0.00  0.00     0.070 C 
BRANCH   5   6
HETATM    6  C           1     -20.451  -6.596  -6.195  0.00  0.00    -0.073 A 
HETATM    7  C           1     -19.882  -5.879  -7.248  0.00  0.00     0.027 A 
HETATM    8  C           1     -20.584  -4.827  -7.836  0.00  0.00     0.015 A 
HETATM    9  C           1     -21.856  -4.492  -7.370  0.00  0.00     0.078 A 
HETATM   10  C           1     -22.425  -5.209  -6.318  0.00  0.00     0.037 A 
HETATM   11  C           1     -21.723  -6.261  -5.731  0.00  0.00     0.006 A 
BRANCH   9  12
HETATM   12  O           1     -22.539  -3.470  -7.941  0.00  0.00    -0.248 OA
BRANCH  12  13
HETATM   13  P           1     -23.241  -3.730  -9.371  0.00  0.00     0.411 P 
HETATM   14  O           1     -23.490  -5.180  -9.542  0.00  0.00    -0.624 OA
HETATM   15  O           1     -22.351  -3.252 -10.452  0.00  0.00    -0.624 OA
BRANCH  13  16
HETATM   16  O           1     -24.645  -2.933  -9.434  0.00  0.00    -0.300 OA
HETATM   17  H           1     -24.749  -2.696 -10.340  0.00  0.00     0.223 HD
ENDBRANCH  13  16
ENDBRANCH  12  13
ENDBRANCH   9  12
ENDBRANCH   5   6
ENDBRANCH   1   5
BRANCH   1  18
HETATM   18  N           1     -19.798  -8.460  -3.254  0.00  0.00    -0.344 N 
HETATM   19  H           1     -18.803  -8.643  -3.284  0.00  0.00     0.163 HD
HETATM   20  C           1     -20.428  -8.294  -2.050  0.00  0.00     0.252 C 
HETATM   21  O           1     -19.796  -8.365  -1.023  0.00  0.00    -0.271 OA
BRANCH  20  22
HETATM   22  C           1     -21.911  -8.021  -2.006  0.00  0.00     0.345 C 
HETATM   23  C           1     -22.246  -7.028  -0.906  0.00  0.00     0.048 C 
HETATM   24  C           1     -22.624  -7.883   0.298  0.00  0.00     0.033 C 
HETATM   25  C           1     -22.493  -9.319  -0.178  0.00  0.00     0.271 C 
HETATM   26  N           1     -22.649  -9.222  -1.627  0.00  0.00     0.097 N 
HETATM   27  H           1     -23.639  -9.127  -1.856  0.00  0.00     0.317 HD
ENDBRANCH  20  22
ENDBRANCH   1  18
TORSDOF 8
ENDMDL
MODEL 4
REMARK VINA RESULT:      -6.8      5.257      9.245
REMARK  8 active torsions:
REMARK  status: ('A' for Active; 'I' for Inactive)
REMARK    1  A    between atoms: C_3  and  O_4 
REMARK    2  A    between atoms: O_4  and  P_6 
REMARK    3  A    between atoms: C_5  and  C_21 
REMARK    4  A    between atoms: C_5  and  C_7 
REMARK    5  A    between atoms: C_5  and  N_18 
REMARK    6  A    between atoms: P_6  and  O_8 
REMARK    7  A    between atoms: C_7  and  C_24 
REMARK       I    between atoms: N_18  and  C_25 
REMARK    8  A    between atoms: C_25  and  C_26 
ROOT
HETATM    1  C           1     -20.609  -8.937  -4.928  0.00  0.00     0.189 C 
ENDROOT
BRANCH   1   2
HETATM    2  C           1     -21.161 -10.315  -5.201  0.00  0.00     0.197 C 
HETATM    3  O           1     -21.642 -10.991  -4.266  0.00  0.00    -0.646 OA
HETATM    4  O           1     -21.137 -10.780  -6.361  0.00  0.00    -0.646 OA
ENDBRANCH   1   2
BRANCH   1   5
HETATM    5  C           1     -19.703  -8.985  -3.705  0.00  0.00     0.070 C 
BRANCH   5   6
HETATM    6  C           1     -18.337  -9.442  -4.111  0.00  0.00    -0.073 A 
HETATM    7  C           1     -17.394  -9.774  -3.137  0.00  0.00     0.027 A 
HETATM    8  C           1     -16.122 -10.200  -3.515  0.00  0.00     0.015 A 
HETATM    9  C           1     -15.790 -10.295  -4.866  0.00  0.00     0.078 A 
HETATM   10  C           1     -16.733  -9.964  -5.840  0.00  0.00     0.037 A 
HETATM   11  C           1     -18.005  -9.538  -5.463  0.00  0.00     0.006 A 
BRANCH   9  12
HETATM   12  O           1     -14.554 -10.709  -5.234  0.00  0.00    -0.248 OA
BRANCH  12  13
HETATM   13  P           1     -14.229 -12.290  -5.162  0.00  0.00     0.411 P 
HETATM   14  O           1     -15.487 -13.058  -5.299  0.00  0.00    -0.624 OA
HETATM   15  O           1     -13.598 -12.604  -3.861  0.00  0.00    -0.624 OA
BRANCH  13  16
HETATM   16  O           1     -13.223 -12.687  -6.362  0.00  0.00    -0.300 OA
HETATM   17  H           1     -12.922 -11.866  -6.709  0.00  0.00     0.223 HD
ENDBRANCH  13  16
ENDBRANCH  12  13
ENDBRANCH   9  12
ENDBRANCH   5   6
ENDBRANCH   1   5
BRANCH   1  18
HETATM   18  N           1     -21.703  -8.018  -4.683  0.00  0.00    -0.344 N 
HETATM   19  H           1     -22.522  -8.330  -4.176  0.00  0.00     0.163 HD
HETATM   20  C           1     -21.629  -6.729  -5.137  0.00  0.00     0.252 C 
HETATM   21  O           1     -22.541  -5.963  -4.932  0.00  0.00    -0.271 OA
BRANCH  20  22
HETATM   22  C           1     -20.409  -6.264  -5.892  0.00  0.00     0.345 C 
HETATM   23  C           1     -20.149  -4.788  -5.646  0.00  0.00     0.048 C 
HETATM   24  C           1     -20.830  -4.067  -6.805  0.00  0.00     0.033 C 
HETATM   25  C           1     -21.435  -5.169  -7.657  0.00  0.00     0.271 C 
HETATM   26  N           1     -20.629  -6.343  -7.334  0.00  0.00     0.097 N 
HETATM   27  H           1     -19.744  -6.296  -7.839  0.00  0.00     0.317 HD
ENDBRANCH  20  22
ENDBRANCH   1  18
TORSDOF 8
ENDMDL
MODEL 5
REMARK VINA RESULT:      -6.8      4.832      7.165
REMARK  8 active torsions:
REMARK  status: ('A' for Active; 'I' for Inactive)
REMARK    1  A    between atoms: C_3  and  O_4 
REMARK    2  A    between atoms: O_4  and  P_6 
REMARK    3  A    between atoms: C_5  and  C_21 
REMARK    4  A    between atoms: C_5  and  C_7 
REMARK    5  A    between atoms: C_5  and  N_18 
REMARK    6  A    between atoms: P_6  and  O_8 
REMARK    7  A    between atoms: C_7  and  C_24 
REMARK       I    between atoms: N_18  and  C_25 
REMARK    8  A    between atoms: C_25  and  C_26 
ROOT
HETATM    1  C           1     -21.383  -9.294  -0.489  0.00  0.00     0.189 C 
ENDROOT
BRANCH   1   2
HETATM    2  C           1     -20.911  -9.538   0.923  0.00  0.00     0.197 C 
HETATM    3  O           1     -20.501 -10.670   1.259  0.00  0.00    -0.646 OA
HETATM    4  O           1     -20.931  -8.607   1.757  0.00  0.00    -0.646 OA
ENDBRANCH   1   2
BRANCH   1   5
HETATM    5  C           1     -21.291  -7.807  -0.807  0.00  0.00     0.070 C 
BRANCH   5   6
HETATM    6  C           1     -21.233  -7.615  -2.290  0.00  0.00    -0.073 A 
HETATM    7  C           1     -22.027  -6.643  -2.899  0.00  0.00     0.027 A 
HETATM    8  C           1     -21.973  -6.462  -4.281  0.00  0.00     0.015 A 
HETATM    9  C           1     -21.125  -7.254  -5.055  0.00  0.00     0.078 A 
HETATM   10  C           1     -20.330  -8.226  -4.446  0.00  0.00     0.037 A 
HETATM   11  C           1     -20.384  -8.406  -3.064  0.00  0.00     0.006 A 
BRANCH   9  12
HETATM   12  O           1     -21.071  -7.080  -6.397  0.00  0.00    -0.248 OA
BRANCH  12  13
HETATM   13  P           1     -20.689  -5.614  -6.958  0.00  0.00     0.411 P 
HETATM   14  O           1     -20.054  -5.747  -8.290  0.00  0.00    -0.624 OA
HETATM   15  O           1     -19.746  -4.960  -6.025  0.00  0.00    -0.624 OA
BRANCH  13  16
HETATM   16  O           1     -22.029  -4.722  -7.088  0.00  0.00    -0.300 OA
HETATM   17  H           1     -22.008  -4.143  -6.346  0.00  0.00     0.223 HD
ENDBRANCH  13  16
ENDBRANCH  12  13
ENDBRANCH   9  12
ENDBRANCH   5   6
ENDBRANCH   1   5
BRANCH   1  18
HETATM   18  N           1     -22.759  -9.732  -0.622  0.00  0.00    -0.344 N 
HETATM   19  H           1     -23.500  -9.213  -0.170  0.00  0.00     0.163 HD
HETATM   20  C           1     -23.054 -10.848  -1.358  0.00  0.00     0.252 C 
HETATM   21  O           1     -24.201 -11.212  -1.469  0.00  0.00    -0.271 OA
BRANCH  20  22
HETATM   22  C           1     -21.948 -11.622  -2.032  0.00  0.00     0.345 C 
HETATM   23  C           1     -22.502 -12.508  -3.135  0.00  0.00     0.048 C 
HETATM   24  C           1     -22.712 -13.869  -2.481  0.00  0.00     0.033 C 
HETATM   25  C           1     -22.260 -13.693  -1.042  0.00  0.00     0.271 C 
HETATM   26  N           1     -21.334 -12.565  -1.102  0.00  0.00     0.097 N 
HETATM   27  H           1     -20.432 -12.886  -1.456  0.00  0.00     0.317 HD
ENDBRANCH  20  22
ENDBRANCH   1  18
TORSDOF 8
ENDMDL
MODEL 6
REMARK VINA RESULT:      -6.5      6.178     10.255
REMARK  8 active torsions:
REMARK  status: ('A' for Active; 'I' for Inactive)
REMARK    1  A    between atoms: C_3  and  O_4 
REMARK    2  A    between atoms: O_4  and  P_6 
REMARK    3  A    between atoms: C_5  and  C_21 
REMARK    4  A    between atoms: C_5  and  C_7 
REMARK    5  A    between atoms: C_5  and  N_18 
REMARK    6  A    between atoms: P_6  and  O_8 
REMARK    7  A    between atoms: C_7  and  C_24 
REMARK       I    between atoms: N_18  and  C_25 
REMARK    8  A    between atoms: C_25  and  C_26 
ROOT
HETATM    1  C           1     -19.966  -8.451  -4.311  0.00  0.00     0.189 C 
ENDROOT
BRANCH   1   2
HETATM    2  C           1     -20.435  -7.336  -5.213  0.00  0.00     0.197 C 
HETATM    3  O           1     -21.211  -6.460  -4.773  0.00  0.00    -0.646 OA
HETATM    4  O           1     -20.048  -7.288  -6.401  0.00  0.00    -0.646 OA
ENDBRANCH   1   2
BRANCH   1   5
HETATM    5  C           1     -18.951  -9.311  -5.052  0.00  0.00     0.070 C 
BRANCH   5   6
HETATM    6  C           1     -18.156 -10.108  -4.065  0.00  0.00    -0.073 A 
HETATM    7  C           1     -17.225  -9.471  -3.244  0.00  0.00     0.027 A 
HETATM    8  C           1     -16.484 -10.212  -2.324  0.00  0.00     0.015 A 
HETATM    9  C           1     -16.673 -11.591  -2.225  0.00  0.00     0.078 A 
HETATM   10  C           1     -17.604 -12.227  -3.046  0.00  0.00     0.037 A 
HETATM   11  C           1     -18.345 -11.486  -3.966  0.00  0.00     0.006 A 
BRANCH   9  12
HETATM   12  O           1     -15.953 -12.312  -1.332  0.00  0.00    -0.248 OA
BRANCH  12  13
HETATM   13  P           1     -16.553 -12.493   0.157  0.00  0.00     0.411 P 
HETATM   14  O           1     -16.521 -13.925   0.530  0.00  0.00    -0.624 OA
HETATM   15  O           1     -17.950 -12.006   0.188  0.00  0.00    -0.624 OA
BRANCH  13  16
HETATM   16  O           1     -15.660 -11.645   1.203  0.00  0.00    -0.300 OA
HETATM   17  H           1     -14.776 -11.725   0.888  0.00  0.00     0.223 HD
ENDBRANCH  13  16
ENDBRANCH  12  13
ENDBRANCH   9  12
ENDBRANCH   5   6
ENDBRANCH   1   5
BRANCH   1  18
HETATM   18  N           1     -21.100  -9.268  -3.924  0.00  0.00    -0.344 N 
HETATM   19  H           1     -21.597  -9.807  -4.622  0.00  0.00     0.163 HD
HETATM   20  C           1     -21.498  -9.310  -2.615  0.00  0.00     0.252 C 
HETATM   21  O           1     -22.442  -9.991  -2.292  0.00  0.00    -0.271 OA
BRANCH  20  22
HETATM   22  C           1     -20.757  -8.506  -1.575  0.00  0.00     0.345 C 
HETATM   23  C           1     -21.241  -8.853  -0.177  0.00  0.00     0.048 C 
HETATM   24  C           1     -22.307  -7.811   0.143  0.00  0.00     0.033 C 
HETATM   25  C           1     -22.371  -6.918  -1.085  0.00  0.00     0.271 C 
HETATM   26  N           1     -21.059  -7.084  -1.705  0.00  0.00     0.097 N 
HETATM   27  H           1     -20.373  -6.520  -1.203  0.00  0.00     0.317 HD
ENDBRANCH  20  22
ENDBRANCH   1  18
TORSDOF 8
ENDMDL
MODEL 7
REMARK VINA RESULT:      -6.5      7.191     10.308
REMARK  8 active torsions:
REMARK  status: ('A' for Active; 'I' for Inactive)
REMARK    1  A    between atoms: C_3  and  O_4 
REMARK    2  A    between atoms: O_4  and  P_6 
REMARK    3  A    between atoms: C_5  and  C_21 
REMARK    4  A    between atoms: C_5  and  C_7 
REMARK    5  A    between atoms: C_5  and  N_18 
REMARK    6  A    between atoms: P_6  and  O_8 
REMARK    7  A    between atoms: C_7  and  C_24 
REMARK       I    between atoms: N_18  and  C_25 
REMARK    8  A    between atoms: C_25  and  C_26 
ROOT
HETATM    1  C           1     -21.617  -7.998  -1.844  0.00  0.00     0.189 C 
ENDROOT
BRANCH   1   2
HETATM    2  C           1     -22.034  -6.570  -2.097  0.00  0.00     0.197 C 
HETATM    3  O           1     -22.042  -6.119  -3.263  0.00  0.00    -0.646 OA
HETATM    4  O           1     -22.372  -5.839  -1.141  0.00  0.00    -0.646 OA
ENDBRANCH   1   2
BRANCH   1   5
HETATM    5  C           1     -21.610  -8.268  -0.345  0.00  0.00     0.070 C 
BRANCH   5   6
HETATM    6  C           1     -22.078  -9.666  -0.085  0.00  0.00    -0.073 A 
HETATM    7  C           1     -23.405 -10.015  -0.336  0.00  0.00     0.027 A 
HETATM    8  C           1     -23.841 -11.317  -0.095  0.00  0.00     0.015 A 
HETATM    9  C           1     -22.950 -12.271   0.396  0.00  0.00     0.078 A 
HETATM   10  C           1     -21.623 -11.923   0.646  0.00  0.00     0.037 A 
HETATM   11  C           1     -21.187 -10.620   0.405  0.00  0.00     0.006 A 
BRANCH   9  12
HETATM   12  O           1     -23.373 -13.537   0.630  0.00  0.00    -0.248 OA
BRANCH  12  13
HETATM   13  P           1     -23.491 -14.544  -0.627  0.00  0.00     0.411 P 
HETATM   14  O           1     -22.599 -14.082  -1.714  0.00  0.00    -0.624 OA
HETATM   15  O           1     -24.889 -14.564  -1.112  0.00  0.00    -0.624 OA
BRANCH  13  16
HETATM   16  O           1     -23.055 -16.030  -0.169  0.00  0.00    -0.300 OA
HETATM   17  H           1     -23.603 -16.609  -0.671  0.00  0.00     0.223 HD
ENDBRANCH  13  16
ENDBRANCH  12  13
ENDBRANCH   9  12
ENDBRANCH   5   6
ENDBRANCH   1   5
BRANCH   1  18
HETATM   18  N           1     -20.287  -8.215  -2.379  0.00  0.00    -0.344 N 
HETATM   19  H           1     -19.482  -7.829  -1.904  0.00  0.00     0.163 HD
HETATM   20  C           1     -20.122  -8.943  -3.527  0.00  0.00     0.252 C 
HETATM   21  O           1     -19.014  -9.124  -3.972  0.00  0.00    -0.271 OA
BRANCH  20  22
HETATM   22  C           1     -21.323  -9.518  -4.235  0.00  0.00     0.345 C 
HETATM   23  C           1     -21.744 -10.835  -3.604  0.00  0.00     0.048 C 
HETATM   24  C           1     -21.054 -11.911  -4.436  0.00  0.00     0.033 C 
HETATM   25  C           1     -20.283 -11.154  -5.503  0.00  0.00     0.271 C 
HETATM   26  N           1     -20.991  -9.882  -5.610  0.00  0.00     0.097 N 
HETATM   27  H           1     -21.837 -10.010  -6.165  0.00  0.00     0.317 HD
ENDBRANCH  20  22
ENDBRANCH   1  18
TORSDOF 8
ENDMDL
MODEL 8
REMARK VINA RESULT:      -6.2      5.965      9.314
REMARK  8 active torsions:
REMARK  status: ('A' for Active; 'I' for Inactive)
REMARK    1  A    between atoms: C_3  and  O_4 
REMARK    2  A    between atoms: O_4  and  P_6 
REMARK    3  A    between atoms: C_5  and  C_21 
REMARK    4  A    between atoms: C_5  and  C_7 
REMARK    5  A    between atoms: C_5  and  N_18 
REMARK    6  A    between atoms: P_6  and  O_8 
REMARK    7  A    between atoms: C_7  and  C_24 
REMARK       I    between atoms: N_18  and  C_25 
REMARK    8  A    between atoms: C_25  and  C_26 
ROOT
HETATM    1  C           1     -20.846  -8.132  -4.137  0.00  0.00     0.189 C 
ENDROOT
BRANCH   1   2
HETATM    2  C           1     -21.608  -6.890  -4.528  0.00  0.00     0.197 C 
HETATM    3  O           1     -21.673  -6.549  -5.728  0.00  0.00    -0.646 OA
HETATM    4  O           1     -22.174  -6.203  -3.650  0.00  0.00    -0.646 OA
ENDBRANCH   1   2
BRANCH   1   5
HETATM    5  C           1     -20.092  -8.669  -5.347  0.00  0.00     0.070 C 
BRANCH   5   6
HETATM    6  C           1     -18.773  -9.224  -4.910  0.00  0.00    -0.073 A 
HETATM    7  C           1     -18.455  -9.277  -3.553  0.00  0.00     0.027 A 
HETATM    8  C           1     -17.226  -9.795  -3.145  0.00  0.00     0.015 A 
HETATM    9  C           1     -16.314 -10.258  -4.093  0.00  0.00     0.078 A 
HETATM   10  C           1     -16.633 -10.206  -5.450  0.00  0.00     0.037 A 
HETATM   11  C           1     -17.862  -9.688  -5.859  0.00  0.00     0.006 A 
BRANCH   9  12
HETATM   12  O           1     -15.120 -10.761  -3.698  0.00  0.00    -0.248 OA
BRANCH  12  13
HETATM   13  P           1     -15.073 -12.291  -3.181  0.00  0.00     0.411 P 
HETATM   14  O           1     -16.090 -13.087  -3.905  0.00  0.00    -0.624 OA
HETATM   15  O           1     -15.358 -12.329  -1.729  0.00  0.00    -0.624 OA
BRANCH  13  16
HETATM   16  O           1     -13.607 -12.908  -3.461  0.00  0.00    -0.300 OA
HETATM   17  H           1     -13.733 -13.842  -3.461  0.00  0.00     0.223 HD
ENDBRANCH  13  16
ENDBRANCH  12  13
ENDBRANCH   9  12
ENDBRANCH   5   6
ENDBRANCH   1   5
BRANCH   1  18
HETATM   18  N           1     -21.774  -9.139  -3.662  0.00  0.00    -0.344 N 
HETATM   19  H           1     -22.356  -9.642  -4.320  0.00  0.00     0.163 HD
HETATM   20  C           1     -21.863  -9.411  -2.323  0.00  0.00     0.252 C 
HETATM   21  O           1     -22.637 -10.250  -1.927  0.00  0.00    -0.271 OA
BRANCH  20  22
HETATM   22  C           1     -20.995  -8.662  -1.342  0.00  0.00     0.345 C 
HETATM   23  C           1     -21.057  -9.303   0.034  0.00  0.00     0.048 C 
HETATM   24  C           1     -22.135  -8.528   0.784  0.00  0.00     0.033 C 
HETATM   25  C           1     -22.627  -7.480  -0.199  0.00  0.00     0.271 C 
HETATM   26  N           1     -21.507  -7.312  -1.121  0.00  0.00     0.097 N 
HETATM   27  H           1     -20.796  -6.722  -0.687  0.00  0.00     0.317 HD
ENDBRANCH  20  22
ENDBRANCH   1  18
TORSDOF 8
ENDMDL
MODEL 9
REMARK VINA RESULT:      -6.2      6.058      8.965
REMARK  8 active torsions:
REMARK  status: ('A' for Active; 'I' for Inactive)
REMARK    1  A    between atoms: C_3  and  O_4 
REMARK    2  A    between atoms: O_4  and  P_6 
REMARK    3  A    between atoms: C_5  and  C_21 
REMARK    4  A    between atoms: C_5  and  C_7 
REMARK    5  A    between atoms: C_5  and  N_18 
REMARK    6  A    between atoms: P_6  and  O_8 
REMARK    7  A    between atoms: C_7  and  C_24 
REMARK       I    between atoms: N_18  and  C_25 
REMARK    8  A    between atoms: C_25  and  C_26 
ROOT
HETATM    1  C           1     -20.770  -9.026  -2.574  0.00  0.00     0.189 C 
ENDROOT
BRANCH   1   2
HETATM    2  C           1     -21.932  -9.851  -2.080  0.00  0.00     0.197 C 
HETATM    3  O           1     -22.361 -10.802  -2.768  0.00  0.00    -0.646 OA
HETATM    4  O           1     -22.466  -9.583  -0.981  0.00  0.00    -0.646 OA
ENDBRANCH   1   2
BRANCH   1   5
HETATM    5  C           1     -19.478  -9.543  -1.953  0.00  0.00     0.070 C 
BRANCH   5   6
HETATM    6  C           1     -18.482  -9.828  -3.033  0.00  0.00    -0.073 A 
HETATM    7  C           1     -17.141  -9.488  -2.852  0.00  0.00     0.027 A 
HETATM    8  C           1     -16.213  -9.754  -3.858  0.00  0.00     0.015 A 
HETATM    9  C           1     -16.624 -10.361  -5.044  0.00  0.00     0.078 A 
HETATM   10  C           1     -17.965 -10.702  -5.225  0.00  0.00     0.037 A 
HETATM   11  C           1     -18.893 -10.436  -4.219  0.00  0.00     0.006 A 
BRANCH   9  12
HETATM   12  O           1     -15.722 -10.620  -6.022  0.00  0.00    -0.248 OA
BRANCH  12  13
HETATM   13  P           1     -15.323 -12.160  -6.298  0.00  0.00     0.411 P 
HETATM   14  O           1     -15.363 -12.916  -5.026  0.00  0.00    -0.624 OA
HETATM   15  O           1     -13.958 -12.222  -6.866  0.00  0.00    -0.624 OA
BRANCH  13  16
HETATM   16  O           1     -16.373 -12.809  -7.341  0.00  0.00    -0.300 OA
HETATM   17  H           1     -15.839 -13.243  -7.984  0.00  0.00     0.223 HD
ENDBRANCH  13  16
ENDBRANCH  12  13
ENDBRANCH   9  12
ENDBRANCH   5   6
ENDBRANCH   1   5
BRANCH   1  18
HETATM   18  N           1     -20.966  -7.640  -2.197  0.00  0.00    -0.344 N 
HETATM   19  H           1     -20.761  -7.339  -1.253  0.00  0.00     0.163 HD
HETATM   20  C           1     -21.428  -6.739  -3.118  0.00  0.00     0.252 C 
HETATM   21  O           1     -21.591  -5.584  -2.804  0.00  0.00    -0.271 OA
BRANCH  20  22
HETATM   22  C           1     -21.733  -7.188  -4.526  0.00  0.00     0.345 C 
HETATM   23  C           1     -20.452  -7.433  -5.305  0.00  0.00     0.048 C 
HETATM   24  C           1     -20.185  -6.129  -6.049  0.00  0.00     0.033 C 
HETATM   25  C           1     -21.331  -5.210  -5.663  0.00  0.00     0.271 C 
HETATM   26  N           1     -22.400  -6.127  -5.276  0.00  0.00     0.097 N 
HETATM   27  H           1     -22.845  -6.502  -6.114  0.00  0.00     0.317 HD
ENDBRANCH  20  22
ENDBRANCH   1  18
TORSDOF 8
ENDMDL
