MODEL 1
REMARK VINA RESULT:      -6.8      0.000      0.000
REMARK  9 active torsions:
REMARK  status: ('A' for Active; 'I' for Inactive)
REMARK    1  A    between atoms: C_2  and  C_10 
REMARK    2  A    between atoms: C_2  and  S_3 
REMARK    3  A    between atoms: N_7  and  C_27 
REMARK       I    between atoms: N_7  and  C_11 
REMARK    4  A    between atoms: C_8  and  C_27 
REMARK    5  A    between atoms: C_8  and  C_18 
REMARK    6  A    between atoms: C_10  and  C_23 
REMARK    7  A    between atoms: C_11  and  C_23 
REMARK    8  A    between atoms: N_16  and  C_23 
REMARK    9  A    between atoms: C_21  and  C_27 
ROOT
HETATM    1  C           1     -20.035  -7.405  -5.352  0.00  0.00     0.190 C 
ENDROOT
BRANCH   1   2
HETATM    2  N           1     -20.123  -6.900  -6.709  0.00  0.00    -0.344 N 
HETATM    3  C           1     -20.194  -5.552  -6.935  0.00  0.00     0.249 C 
HETATM    4  O           1     -19.181  -4.911  -7.085  0.00  0.00    -0.271 OA
HETATM    5  H           1     -20.132  -7.545  -7.489  0.00  0.00     0.163 HD
BRANCH   3   6
HETATM    6  C           1     -21.537  -4.867  -6.996  0.00  0.00     0.275 C 
BRANCH   6   7
HETATM    7  C           1     -22.187  -5.141  -8.345  0.00  0.00     0.053 C 
BRANCH   7   8
HETATM    8  C           1     -22.183  -3.869  -9.181  0.00  0.00     0.076 C 
BRANCH   8   9
HETATM    9  S           1     -21.002  -4.045 -10.548  0.00  0.00    -0.173 SA
HETATM   10  C           1     -21.835  -2.898 -11.681  0.00  0.00     0.089 C 
ENDBRANCH   8   9
ENDBRANCH   7   8
ENDBRANCH   6   7
BRANCH   6  11
HETATM   11  N           1     -21.350  -3.388  -6.824  0.00  0.00    -0.066 N 
HETATM   12  H           1     -22.189  -2.885  -7.195  0.00  0.00     0.275 HD
HETATM   13  H           1     -20.499  -3.081  -7.347  0.00  0.00     0.275 HD
HETATM   14  H           1     -21.235  -3.167  -5.808  0.00  0.00     0.275 HD
ENDBRANCH   6  11
ENDBRANCH   3   6
ENDBRANCH   1   2
BRANCH   1  15
HETATM   15  C           1     -21.407  -7.889  -4.901  0.00  0.00     0.077 C 
BRANCH  15  16
HETATM   16  C           1     -21.719  -7.318  -3.553  0.00  0.00    -0.028 A 
HETATM   17  C           1     -21.810  -8.047  -2.335  0.00  0.00    -0.002 A 
HETATM   18  C           1     -22.118  -7.130  -1.330  0.00  0.00     0.042 A 
HETATM   19  C           1     -21.659  -9.405  -1.991  0.00  0.00     0.014 A 
HETATM   20  C           1     -22.283  -7.504   0.010  0.00  0.00     0.030 A 
HETATM   21  N           1     -22.208  -5.892  -1.925  0.00  0.00    -0.365 N 
HETATM   22  C           1     -22.129  -8.857   0.326  0.00  0.00     0.002 A 
HETATM   23  C           1     -21.821  -9.795  -0.657  0.00  0.00     0.001 A 
HETATM   24  H           1     -22.429  -4.997  -1.421  0.00  0.00     0.165 HD
HETATM   25  C           1     -21.969  -5.994  -3.270  0.00  0.00     0.096 A 
ENDBRANCH  15  16
ENDBRANCH   1  15
BRANCH   1  26
HETATM   26  C           1     -19.055  -8.552  -5.305  0.00  0.00     0.197 C 
HETATM   27  O           1     -18.461  -8.909  -6.344  0.00  0.00    -0.646 OA
HETATM   28  O           1     -18.840  -9.147  -4.227  0.00  0.00    -0.646 OA
ENDBRANCH   1  26
TORSDOF 9
ENDMDL
MODEL 2
REMARK VINA RESULT:      -6.7      3.137      7.801
REMARK  9 active torsions:
REMARK  status: ('A' for Active; 'I' for Inactive)
REMARK    1  A    between atoms: C_2  and  C_10 
REMARK    2  A    between atoms: C_2  and  S_3 
REMARK    3  A    between atoms: N_7  and  C_27 
REMARK       I    between atoms: N_7  and  C_11 
REMARK    4  A    between atoms: C_8  and  C_27 
REMARK    5  A    between atoms: C_8  and  C_18 
REMARK    6  A    between atoms: C_10  and  C_23 
REMARK    7  A    between atoms: C_11  and  C_23 
REMARK    8  A    between atoms: N_16  and  C_23 
REMARK    9  A    between atoms: C_21  and  C_27 
ROOT
HETATM    1  C           1     -21.899  -6.583  -5.754  0.00  0.00     0.190 C 
ENDROOT
BRANCH   1   2
HETATM    2  N           1     -22.406  -6.299  -4.426  0.00  0.00    -0.344 N 
HETATM    3  C           1     -21.589  -6.443  -3.337  0.00  0.00     0.249 C 
HETATM    4  O           1     -20.924  -5.510  -2.953  0.00  0.00    -0.271 OA
HETATM    5  H           1     -23.363  -5.996  -4.303  0.00  0.00     0.163 HD
BRANCH   3   6
HETATM    6  C           1     -21.518  -7.767  -2.615  0.00  0.00     0.275 C 
BRANCH   6   7
HETATM    7  C           1     -21.926  -7.576  -1.160  0.00  0.00     0.053 C 
BRANCH   7   8
HETATM    8  C           1     -21.484  -8.783  -0.344  0.00  0.00     0.076 C 
BRANCH   8   9
HETATM    9  S           1     -22.798 -10.035  -0.354  0.00  0.00    -0.173 SA
HETATM   10  C           1     -21.802 -11.376   0.354  0.00  0.00     0.089 C 
ENDBRANCH   8   9
ENDBRANCH   7   8
ENDBRANCH   6   7
BRANCH   6  11
HETATM   11  N           1     -20.114  -8.293  -2.675  0.00  0.00    -0.066 N 
HETATM   12  H           1     -19.478  -7.648  -2.152  0.00  0.00     0.275 HD
HETATM   13  H           1     -19.806  -8.354  -3.671  0.00  0.00     0.275 HD
HETATM   14  H           1     -20.079  -9.242  -2.239  0.00  0.00     0.275 HD
ENDBRANCH   6  11
ENDBRANCH   3   6
ENDBRANCH   1   2
BRANCH   1  15
HETATM   15  C           1     -21.196  -5.348  -6.304  0.00  0.00     0.077 C 
BRANCH  15  16
HETATM   16  C           1     -22.024  -4.748  -7.397  0.00  0.00    -0.028 A 
HETATM   17  C           1     -21.585  -4.461  -8.720  0.00  0.00    -0.002 A 
HETATM   18  C           1     -22.670  -3.913  -9.403  0.00  0.00     0.042 A 
HETATM   19  C           1     -20.362  -4.616  -9.401  0.00  0.00     0.014 A 
HETATM   20  C           1     -22.595  -3.510 -10.742  0.00  0.00     0.030 A 
HETATM   21  N           1     -23.726  -3.873  -8.520  0.00  0.00    -0.365 N 
HETATM   22  C           1     -21.371  -3.674 -11.398  0.00  0.00     0.002 A 
HETATM   23  C           1     -20.269  -4.219 -10.740  0.00  0.00     0.001 A 
HETATM   24  H           1     -24.685  -3.509  -8.746  0.00  0.00     0.165 HD
HETATM   25  C           1     -23.346  -4.375  -7.304  0.00  0.00     0.096 A 
ENDBRANCH  15  16
ENDBRANCH   1  15
BRANCH   1  26
HETATM   26  C           1     -20.920  -7.730  -5.685  0.00  0.00     0.197 C 
HETATM   27  O           1     -19.692  -7.504  -5.698  0.00  0.00    -0.646 OA
HETATM   28  O           1     -21.339  -8.905  -5.616  0.00  0.00    -0.646 OA
ENDBRANCH   1  26
TORSDOF 9
ENDMDL
MODEL 3
REMARK VINA RESULT:      -6.6      2.031      2.642
REMARK  9 active torsions:
REMARK  status: ('A' for Active; 'I' for Inactive)
REMARK    1  A    between atoms: C_2  and  C_10 
REMARK    2  A    between atoms: C_2  and  S_3 
REMARK    3  A    between atoms: N_7  and  C_27 
REMARK       I    between atoms: N_7  and  C_11 
REMARK    4  A    between atoms: C_8  and  C_27 
REMARK    5  A    between atoms: C_8  and  C_18 
REMARK    6  A    between atoms: C_10  and  C_23 
REMARK    7  A    between atoms: C_11  and  C_23 
REMARK    8  A    between atoms: N_16  and  C_23 
REMARK    9  A    between atoms: C_21  and  C_27 
ROOT
HETATM    1  C           1     -21.224  -7.281  -5.674  0.00  0.00     0.190 C 
ENDROOT
BRANCH   1   2
HETATM    2  N           1     -20.466  -6.676  -6.752  0.00  0.00    -0.344 N 
HETATM    3  C           1     -20.693  -5.372  -7.101  0.00  0.00     0.249 C 
HETATM    4  O           1     -20.066  -4.486  -6.570  0.00  0.00    -0.271 OA
HETATM    5  H           1     -19.769  -7.218  -7.248  0.00  0.00     0.163 HD
BRANCH   3   6
HETATM    6  C           1     -21.728  -5.040  -8.150  0.00  0.00     0.275 C 
BRANCH   6   7
HETATM    7  C           1     -21.042  -4.430  -9.365  0.00  0.00     0.053 C 
BRANCH   7   8
HETATM    8  C           1     -21.971  -4.512 -10.569  0.00  0.00     0.076 C 
BRANCH   8   9
HETATM    9  S           1     -21.867  -2.970 -11.520  0.00  0.00    -0.173 SA
HETATM   10  C           1     -23.600  -2.950 -12.060  0.00  0.00     0.089 C 
ENDBRANCH   8   9
ENDBRANCH   7   8
ENDBRANCH   6   7
BRANCH   6  11
HETATM   11  N           1     -22.711  -4.057  -7.586  0.00  0.00    -0.066 N 
HETATM   12  H           1     -23.590  -4.082  -8.151  0.00  0.00     0.275 HD
HETATM   13  H           1     -22.302  -3.096  -7.620  0.00  0.00     0.275 HD
HETATM   14  H           1     -22.927  -4.310  -6.595  0.00  0.00     0.275 HD
ENDBRANCH   6  11
ENDBRANCH   3   6
ENDBRANCH   1   2
BRANCH   1  15
HETATM   15  C           1     -20.273  -8.010  -4.733  0.00  0.00     0.077 C 
BRANCH  15  16
HETATM   16  C           1     -21.047  -8.980  -3.896  0.00  0.00    -0.028 A 
HETATM   17  C           1     -21.372  -8.826  -2.519  0.00  0.00    -0.002 A 
HETATM   18  C           1     -22.096  -9.956  -2.140  0.00  0.00     0.042 A 
HETATM   19  C           1     -21.116  -7.830  -1.558  0.00  0.00     0.014 A 
HETATM   20  C           1     -22.582 -10.141  -0.839  0.00  0.00     0.030 A 
HETATM   21  N           1     -22.203 -10.761  -3.252  0.00  0.00    -0.365 N 
HETATM   22  C           1     -22.316  -9.138   0.098  0.00  0.00     0.002 A 
HETATM   23  C           1     -21.595  -7.998  -0.253  0.00  0.00     0.001 A 
HETATM   24  H           1     -22.697 -11.688  -3.278  0.00  0.00     0.165 HD
HETATM   25  C           1     -21.572 -10.180  -4.319  0.00  0.00     0.096 A 
ENDBRANCH  15  16
ENDBRANCH   1  15
BRANCH   1  26
HETATM   26  C           1     -21.960  -6.206  -4.913  0.00  0.00     0.197 C 
HETATM   27  O           1     -21.377  -5.568  -4.011  0.00  0.00    -0.646 OA
HETATM   28  O           1     -23.154  -5.954  -5.184  0.00  0.00    -0.646 OA
ENDBRANCH   1  26
TORSDOF 9
ENDMDL
MODEL 4
REMARK VINA RESULT:      -6.5      2.915      5.198
REMARK  9 active torsions:
REMARK  status: ('A' for Active; 'I' for Inactive)
REMARK    1  A    between atoms: C_2  and  C_10 
REMARK    2  A    between atoms: C_2  and  S_3 
REMARK    3  A    between atoms: N_7  and  C_27 
REMARK       I    between atoms: N_7  and  C_11 
REMARK    4  A    between atoms: C_8  and  C_27 
REMARK    5  A    between atoms: C_8  and  C_18 
REMARK    6  A    between atoms: C_10  and  C_23 
REMARK    7  A    between atoms: C_11  and  C_23 
REMARK    8  A    between atoms: N_16  and  C_23 
REMARK    9  A    between atoms: C_21  and  C_27 
ROOT
HETATM    1  C           1     -21.367  -8.758  -1.991  0.00  0.00     0.190 C 
ENDROOT
BRANCH   1   2
HETATM    2  N           1     -20.891  -7.433  -2.335  0.00  0.00    -0.344 N 
HETATM    3  C           1     -21.711  -6.563  -3.001  0.00  0.00     0.249 C 
HETATM    4  O           1     -22.428  -5.813  -2.381  0.00  0.00    -0.271 OA
HETATM    5  H           1     -19.952  -7.151  -2.083  0.00  0.00     0.163 HD
BRANCH   3   6
HETATM    6  C           1     -21.719  -6.539  -4.511  0.00  0.00     0.275 C 
BRANCH   6   7
HETATM    7  C           1     -20.741  -5.483  -5.008  0.00  0.00     0.053 C 
BRANCH   7   8
HETATM    8  C           1     -20.617  -5.576  -6.523  0.00  0.00     0.076 C 
BRANCH   8   9
HETATM    9  S           1     -20.869  -3.934  -7.254  0.00  0.00    -0.173 SA
HETATM   10  C           1     -22.512  -4.274  -7.947  0.00  0.00     0.089 C 
ENDBRANCH   8   9
ENDBRANCH   7   8
ENDBRANCH   6   7
BRANCH   6  11
HETATM   11  N           1     -23.100  -6.207  -4.996  0.00  0.00    -0.066 N 
HETATM   12  H           1     -23.035  -5.573  -5.825  0.00  0.00     0.275 HD
HETATM   13  H           1     -23.633  -5.732  -4.234  0.00  0.00     0.275 HD
HETATM   14  H           1     -23.593  -7.087  -5.271  0.00  0.00     0.275 HD
ENDBRANCH   6  11
ENDBRANCH   3   6
ENDBRANCH   1   2
BRANCH   1  15
HETATM   15  C           1     -20.199  -9.737  -2.009  0.00  0.00     0.077 C 
BRANCH  15  16
HETATM   16  C           1     -19.650  -9.834  -3.397  0.00  0.00    -0.028 A 
HETATM   17  C           1     -18.276  -9.779  -3.761  0.00  0.00    -0.002 A 
HETATM   18  C           1     -18.213  -9.907  -5.149  0.00  0.00     0.042 A 
HETATM   19  C           1     -17.076  -9.631  -3.038  0.00  0.00     0.014 A 
HETATM   20  C           1     -17.003  -9.895  -5.854  0.00  0.00     0.030 A 
HETATM   21  N           1     -19.506 -10.035  -5.603  0.00  0.00    -0.365 N 
HETATM   22  C           1     -15.826  -9.748  -5.115  0.00  0.00     0.002 A 
HETATM   23  C           1     -15.858  -9.618  -3.728  0.00  0.00     0.001 A 
HETATM   24  H           1     -19.781 -10.149  -6.610  0.00  0.00     0.165 HD
HETATM   25  C           1     -20.383  -9.992  -4.552  0.00  0.00     0.096 A 
ENDBRANCH  15  16
ENDBRANCH   1  15
BRANCH   1  26
HETATM   26  C           1     -21.980  -8.730  -0.612  0.00  0.00     0.197 C 
HETATM   27  O           1     -23.028  -9.370  -0.382  0.00  0.00    -0.646 OA
HETATM   28  O           1     -21.440  -8.066   0.298  0.00  0.00    -0.646 OA
ENDBRANCH   1  26
TORSDOF 9
ENDMDL
MODEL 5
REMARK VINA RESULT:      -6.4      1.928      2.893
REMARK  9 active torsions:
REMARK  status: ('A' for Active; 'I' for Inactive)
REMARK    1  A    between atoms: C_2  and  C_10 
REMARK    2  A    between atoms: C_2  and  S_3 
REMARK    3  A    between atoms: N_7  and  C_27 
REMARK       I    between atoms: N_7  and  C_11 
REMARK    4  A    between atoms: C_8  and  C_27 
REMARK    5  A    between atoms: C_8  and  C_18 
REMARK    6  A    between atoms: C_10  and  C_23 
REMARK    7  A    between atoms: C_11  and  C_23 
REMARK    8  A    between atoms: N_16  and  C_23 
REMARK    9  A    between atoms: C_21  and  C_27 
ROOT
HETATM    1  C           1     -20.558  -5.386  -5.828  0.00  0.00     0.190 C 
ENDROOT
BRANCH   1   2
HETATM    2  N           1     -21.452  -4.268  -6.057  0.00  0.00    -0.344 N 
HETATM    3  C           1     -22.492  -4.392  -6.938  0.00  0.00     0.249 C 
HETATM    4  O           1     -23.568  -4.782  -6.551  0.00  0.00    -0.271 OA
HETATM    5  H           1     -21.307  -3.395  -5.565  0.00  0.00     0.163 HD
BRANCH   3   6
HETATM    6  C           1     -22.294  -4.043  -8.393  0.00  0.00     0.275 C 
BRANCH   6   7
HETATM    7  C           1     -23.643  -3.730  -9.029  0.00  0.00     0.053 C 
BRANCH   7   8
HETATM    8  C           1     -23.660  -4.239 -10.464  0.00  0.00     0.076 C 
BRANCH   8   9
HETATM    9  S           1     -23.049  -2.940 -11.575  0.00  0.00    -0.173 SA
HETATM   10  C           1     -24.288  -3.193 -12.878  0.00  0.00     0.089 C 
ENDBRANCH   8   9
ENDBRANCH   7   8
ENDBRANCH   6   7
BRANCH   6  11
HETATM   11  N           1     -21.665  -5.205  -9.104  0.00  0.00    -0.066 N 
HETATM   12  H           1     -21.225  -5.844  -8.404  0.00  0.00     0.275 HD
HETATM   13  H           1     -20.936  -4.856  -9.766  0.00  0.00     0.275 HD
HETATM   14  H           1     -22.399  -5.726  -9.636  0.00  0.00     0.275 HD
ENDBRANCH   6  11
ENDBRANCH   3   6
ENDBRANCH   1   2
BRANCH   1  15
HETATM   15  C           1     -21.370  -6.671  -5.723  0.00  0.00     0.077 C 
BRANCH  15  16
HETATM   16  C           1     -20.870  -7.485  -4.570  0.00  0.00    -0.028 A 
HETATM   17  C           1     -21.280  -7.357  -3.214  0.00  0.00    -0.002 A 
HETATM   18  C           1     -20.567  -8.304  -2.479  0.00  0.00     0.042 A 
HETATM   19  C           1     -22.192  -6.521  -2.541  0.00  0.00     0.014 A 
HETATM   20  C           1     -20.722  -8.459  -1.095  0.00  0.00     0.030 A 
HETATM   21  N           1     -19.757  -8.978  -3.364  0.00  0.00    -0.365 N 
HETATM   22  C           1     -21.633  -7.619  -0.449  0.00  0.00     0.002 A 
HETATM   23  C           1     -22.359  -6.663  -1.158  0.00  0.00     0.001 A 
HETATM   24  H           1     -19.098  -9.754  -3.105  0.00  0.00     0.165 HD
HETATM   25  C           1     -19.932  -8.490  -4.632  0.00  0.00     0.096 A 
ENDBRANCH  15  16
ENDBRANCH   1  15
BRANCH   1  26
HETATM   26  C           1     -19.586  -5.496  -6.977  0.00  0.00     0.197 C 
HETATM   27  O           1     -19.424  -6.592  -7.554  0.00  0.00    -0.646 OA
HETATM   28  O           1     -18.943  -4.492  -7.350  0.00  0.00    -0.646 OA
ENDBRANCH   1  26
TORSDOF 9
ENDMDL
MODEL 6
REMARK VINA RESULT:      -6.3      1.769      2.477
REMARK  9 active torsions:
REMARK  status: ('A' for Active; 'I' for Inactive)
REMARK    1  A    between atoms: C_2  and  C_10 
REMARK    2  A    between atoms: C_2  and  S_3 
REMARK    3  A    between atoms: N_7  and  C_27 
REMARK       I    between atoms: N_7  and  C_11 
REMARK    4  A    between atoms: C_8  and  C_27 
REMARK    5  A    between atoms: C_8  and  C_18 
REMARK    6  A    between atoms: C_10  and  C_23 
REMARK    7  A    between atoms: C_11  and  C_23 
REMARK    8  A    between atoms: N_16  and  C_23 
REMARK    9  A    between atoms: C_21  and  C_27 
ROOT
HETATM    1  C           1     -20.567  -8.678  -4.643  0.00  0.00     0.190 C 
ENDROOT
BRANCH   1   2
HETATM    2  N           1     -21.075  -8.003  -5.821  0.00  0.00    -0.344 N 
HETATM    3  C           1     -20.565  -6.786  -6.186  0.00  0.00     0.249 C 
HETATM    4  O           1     -19.617  -6.728  -6.933  0.00  0.00    -0.271 OA
HETATM    5  H           1     -21.807  -8.431  -6.374  0.00  0.00     0.163 HD
BRANCH   3   6
HETATM    6  C           1     -21.187  -5.517  -5.655  0.00  0.00     0.275 C 
BRANCH   6   7
HETATM    7  C           1     -22.235  -5.014  -6.639  0.00  0.00     0.053 C 
BRANCH   7   8
HETATM    8  C           1     -21.601  -4.003  -7.586  0.00  0.00     0.076 C 
BRANCH   8   9
HETATM    9  S           1     -22.533  -3.964  -9.143  0.00  0.00    -0.173 SA
HETATM   10  C           1     -21.087  -3.918 -10.239  0.00  0.00     0.089 C 
ENDBRANCH   8   9
ENDBRANCH   7   8
ENDBRANCH   6   7
BRANCH   6  11
HETATM   11  N           1     -20.122  -4.474  -5.484  0.00  0.00    -0.066 N 
HETATM   12  H           1     -19.269  -4.912  -5.068  0.00  0.00     0.275 HD
HETATM   13  H           1     -20.472  -3.720  -4.851  0.00  0.00     0.275 HD
HETATM   14  H           1     -19.883  -4.065  -6.416  0.00  0.00     0.275 HD
ENDBRANCH   6  11
ENDBRANCH   3   6
ENDBRANCH   1   2
BRANCH   1  15
HETATM   15  C           1     -21.607  -9.672  -4.141  0.00  0.00     0.077 C 
BRANCH  15  16
HETATM   16  C           1     -21.308 -10.030  -2.718  0.00  0.00    -0.028 A 
HETATM   17  C           1     -21.548  -9.212  -1.580  0.00  0.00    -0.002 A 
HETATM   18  C           1     -21.124  -9.929  -0.461  0.00  0.00     0.042 A 
HETATM   19  C           1     -22.087  -7.924  -1.395  0.00  0.00     0.014 A 
HETATM   20  C           1     -21.212  -9.421   0.841  0.00  0.00     0.030 A 
HETATM   21  N           1     -20.645 -11.138  -0.914  0.00  0.00    -0.365 N 
HETATM   22  C           1     -21.751  -8.141   0.999  0.00  0.00     0.002 A 
HETATM   23  C           1     -22.183  -7.401  -0.100  0.00  0.00     0.001 A 
HETATM   24  H           1     -20.255 -11.897  -0.302  0.00  0.00     0.165 HD
HETATM   25  C           1     -20.752 -11.210  -2.277  0.00  0.00     0.096 A 
ENDBRANCH  15  16
ENDBRANCH   1  15
BRANCH   1  26
HETATM   26  C           1     -19.296  -9.413  -4.993  0.00  0.00     0.197 C 
HETATM   27  O           1     -18.274  -9.262  -4.291  0.00  0.00    -0.646 OA
HETATM   28  O           1     -19.266 -10.171  -5.986  0.00  0.00    -0.646 OA
ENDBRANCH   1  26
TORSDOF 9
ENDMDL
MODEL 7
REMARK VINA RESULT:      -6.2      3.987      5.513
REMARK  9 active torsions:
REMARK  status: ('A' for Active; 'I' for Inactive)
REMARK    1  A    between atoms: C_2  and  C_10 
REMARK    2  A    between atoms: C_2  and  S_3 
REMARK    3  A    between atoms: N_7  and  C_27 
REMARK       I    between atoms: N_7  and  C_11 
REMARK    4  A    between atoms: C_8  and  C_27 
REMARK    5  A    between atoms: C_8  and  C_18 
REMARK    6  A    between atoms: C_10  and  C_23 
REMARK    7  A    between atoms: C_11  and  C_23 
REMARK    8  A    between atoms: N_16  and  C_23 
REMARK    9  A    between atoms: C_21  and  C_27 
ROOT
HETATM    1  C           1     -21.102  -7.703  -3.081  0.00  0.00     0.190 C 
ENDROOT
BRANCH   1   2
HETATM    2  N           1     -19.892  -7.657  -3.878  0.00  0.00    -0.344 N 
HETATM    3  C           1     -19.834  -8.321  -5.074  0.00  0.00     0.249 C 
HETATM    4  O           1     -20.164  -7.761  -6.093  0.00  0.00    -0.271 OA
HETATM    5  H           1     -19.089  -7.135  -3.551  0.00  0.00     0.163 HD
BRANCH   3   6
HETATM    6  C           1     -19.358  -9.753  -5.120  0.00  0.00     0.275 C 
BRANCH   6   7
HETATM    7  C           1     -18.022  -9.821  -5.849  0.00  0.00     0.053 C 
BRANCH   7   8
HETATM    8  C           1     -17.086 -10.767  -5.109  0.00  0.00     0.076 C 
BRANCH   8   9
HETATM    9  S           1     -17.460 -10.724  -3.334  0.00  0.00    -0.173 SA
HETATM   10  C           1     -16.172  -9.525  -2.888  0.00  0.00     0.089 C 
ENDBRANCH   8   9
ENDBRANCH   7   8
ENDBRANCH   6   7
BRANCH   6  11
HETATM   11  N           1     -20.367 -10.590  -5.849  0.00  0.00    -0.066 N 
HETATM   12  H           1     -20.024 -11.576  -5.909  0.00  0.00     0.275 HD
HETATM   13  H           1     -20.506 -10.210  -6.812  0.00  0.00     0.275 HD
HETATM   14  H           1     -21.275 -10.570  -5.331  0.00  0.00     0.275 HD
ENDBRANCH   6  11
ENDBRANCH   3   6
ENDBRANCH   1   2
BRANCH   1  15
HETATM   15  C           1     -20.736  -7.867  -1.611  0.00  0.00     0.077 C 
BRANCH  15  16
HETATM   16  C           1     -21.894  -8.458  -0.871  0.00  0.00    -0.028 A 
HETATM   17  C           1     -22.428  -9.764  -1.056  0.00  0.00    -0.002 A 
HETATM   18  C           1     -23.495  -9.901  -0.167  0.00  0.00     0.042 A 
HETATM   19  C           1     -22.104 -10.845  -1.898  0.00  0.00     0.014 A 
HETATM   20  C           1     -24.258 -11.071  -0.077  0.00  0.00     0.030 A 
HETATM   21  N           1     -23.597  -8.717   0.528  0.00  0.00    -0.365 N 
HETATM   22  C           1     -23.917 -12.131  -0.923  0.00  0.00     0.002 A 
HETATM   23  C           1     -22.857 -12.023  -1.821  0.00  0.00     0.001 A 
HETATM   24  H           1     -24.311  -8.516   1.272  0.00  0.00     0.165 HD
HETATM   25  C           1     -22.634  -7.837   0.110  0.00  0.00     0.096 A 
ENDBRANCH  15  16
ENDBRANCH   1  15
BRANCH   1  26
HETATM   26  C           1     -21.876  -6.421  -3.267  0.00  0.00     0.197 C 
HETATM   27  O           1     -22.536  -6.236  -4.312  0.00  0.00    -0.646 OA
HETATM   28  O           1     -21.855  -5.544  -2.378  0.00  0.00    -0.646 OA
ENDBRANCH   1  26
TORSDOF 9
ENDMDL
MODEL 8
REMARK VINA RESULT:      -6.1      4.697      6.437
REMARK  9 active torsions:
REMARK  status: ('A' for Active; 'I' for Inactive)
REMARK    1  A    between atoms: C_2  and  C_10 
REMARK    2  A    between atoms: C_2  and  S_3 
REMARK    3  A    between atoms: N_7  and  C_27 
REMARK       I    between atoms: N_7  and  C_11 
REMARK    4  A    between atoms: C_8  and  C_27 
REMARK    5  A    between atoms: C_8  and  C_18 
REMARK    6  A    between atoms: C_10  and  C_23 
REMARK    7  A    between atoms: C_11  and  C_23 
REMARK    8  A    between atoms: N_16  and  C_23 
REMARK    9  A    between atoms: C_21  and  C_27 
ROOT
HETATM    1  C           1     -19.413 -10.079  -4.767  0.00  0.00     0.190 C 
ENDROOT
BRANCH   1   2
HETATM    2  N           1     -18.476  -9.981  -5.869  0.00  0.00    -0.344 N 
HETATM    3  C           1     -18.035 -11.115  -6.495  0.00  0.00     0.249 C 
HETATM    4  O           1     -18.639 -11.555  -7.445  0.00  0.00    -0.271 OA
HETATM    5  H           1     -18.148  -9.074  -6.175  0.00  0.00     0.163 HD
BRANCH   3   6
HETATM    6  C           1     -16.794 -11.818  -6.000  0.00  0.00     0.275 C 
BRANCH   6   7
HETATM    7  C           1     -15.859 -10.804  -5.354  0.00  0.00     0.053 C 
BRANCH   7   8
HETATM    8  C           1     -15.344 -11.355  -4.031  0.00  0.00     0.076 C 
BRANCH   8   9
HETATM    9  S           1     -15.861 -10.263  -2.677  0.00  0.00    -0.173 SA
HETATM   10  C           1     -16.037 -11.566  -1.426  0.00  0.00     0.089 C 
ENDBRANCH   8   9
ENDBRANCH   7   8
ENDBRANCH   6   7
BRANCH   6  11
HETATM   11  N           1     -16.098 -12.475  -7.155  0.00  0.00    -0.066 N 
HETATM   12  H           1     -15.717 -11.741  -7.794  0.00  0.00     0.275 HD
HETATM   13  H           1     -16.776 -13.074  -7.676  0.00  0.00     0.275 HD
HETATM   14  H           1     -15.313 -13.065  -6.798  0.00  0.00     0.275 HD
ENDBRANCH   6  11
ENDBRANCH   3   6
ENDBRANCH   1   2
BRANCH   1  15
HETATM   15  C           1     -19.132  -8.970  -3.761  0.00  0.00     0.077 C 
BRANCH  15  16
HETATM   16  C           1     -19.828  -9.277  -2.472  0.00  0.00    -0.028 A 
HETATM   17  C           1     -20.794  -8.457  -1.826  0.00  0.00    -0.002 A 
HETATM   18  C           1     -21.180  -9.119  -0.660  0.00  0.00     0.042 A 
HETATM   19  C           1     -21.379  -7.211  -2.124  0.00  0.00     0.014 A 
HETATM   20  C           1     -22.127  -8.594   0.229  0.00  0.00     0.030 A 
HETATM   21  N           1     -20.468 -10.296  -0.608  0.00  0.00    -0.365 N 
HETATM   22  C           1     -22.693  -7.356  -0.088  0.00  0.00     0.002 A 
HETATM   23  C           1     -22.327  -6.672  -1.246  0.00  0.00     0.001 A 
HETATM   24  H           1     -20.544 -11.011   0.157  0.00  0.00     0.165 HD
HETATM   25  C           1     -19.648 -10.402  -1.699  0.00  0.00     0.096 A 
ENDBRANCH  15  16
ENDBRANCH   1  15
BRANCH   1  26
HETATM   26  C           1     -20.822  -9.939  -5.290  0.00  0.00     0.197 C 
HETATM   27  O           1     -21.209  -8.846  -5.755  0.00  0.00    -0.646 OA
HETATM   28  O           1     -21.601 -10.916  -5.258  0.00  0.00    -0.646 OA
ENDBRANCH   1  26
TORSDOF 9
ENDMDL
MODEL 9
REMARK VINA RESULT:      -6.1      3.358      7.076
REMARK  9 active torsions:
REMARK  status: ('A' for Active; 'I' for Inactive)
REMARK    1  A    between atoms: C_2  and  C_10 
REMARK    2  A    between atoms: C_2  and  S_3 
REMARK    3  A    between atoms: N_7  and  C_27 
REMARK       I    between atoms: N_7  and  C_11 
REMARK    4  A    between atoms: C_8  and  C_27 
REMARK    5  A    between atoms: C_8  and  C_18 
REMARK    6  A    between atoms: C_10  and  C_23 
REMARK    7  A    between atoms: C_11  and  C_23 
REMARK    8  A    between atoms: N_16  and  C_23 
REMARK    9  A    between atoms: C_21  and  C_27 
ROOT
HETATM    1  C           1     -20.466  -9.522  -4.616  0.00  0.00     0.190 C 
ENDROOT
BRANCH   1   2
HETATM    2  N           1     -19.868 -10.119  -3.438  0.00  0.00    -0.344 N 
HETATM    3  C           1     -20.592 -10.989  -2.669  0.00  0.00     0.249 C 
HETATM    4  O           1     -20.567 -12.173  -2.910  0.00  0.00    -0.271 OA
HETATM    5  H           1     -18.914  -9.892  -3.184  0.00  0.00     0.163 HD
BRANCH   3   6
HETATM    6  C           1     -21.422 -10.470  -1.520  0.00  0.00     0.275 C 
BRANCH   6   7
HETATM    7  C           1     -20.793  -9.195  -0.973  0.00  0.00     0.053 C 
BRANCH   7   8
HETATM    8  C           1     -21.299  -8.943   0.441  0.00  0.00     0.076 C 
BRANCH   8   9
HETATM    9  S           1     -22.864  -8.027   0.370  0.00  0.00    -0.173 SA
HETATM   10  C           1     -22.375  -6.900  -0.967  0.00  0.00     0.089 C 
ENDBRANCH   8   9
ENDBRANCH   7   8
ENDBRANCH   6   7
BRANCH   6  11
HETATM   11  N           1     -21.475 -11.505  -0.435  0.00  0.00    -0.066 N 
HETATM   12  H           1     -20.515 -11.651  -0.046  0.00  0.00     0.275 HD
HETATM   13  H           1     -21.833 -12.405  -0.828  0.00  0.00     0.275 HD
HETATM   14  H           1     -22.112 -11.179   0.327  0.00  0.00     0.275 HD
ENDBRANCH   6  11
ENDBRANCH   3   6
ENDBRANCH   1   2
BRANCH   1  15
HETATM   15  C           1     -19.779  -8.195  -4.916  0.00  0.00     0.077 C 
BRANCH  15  16
HETATM   16  C           1     -20.809  -7.173  -5.285  0.00  0.00    -0.028 A 
HETATM   17  C           1     -20.655  -6.138  -6.249  0.00  0.00    -0.002 A 
HETATM   18  C           1     -21.851  -5.420  -6.275  0.00  0.00     0.042 A 
HETATM   19  C           1     -19.607  -5.742  -7.103  0.00  0.00     0.014 A 
HETATM   20  C           1     -22.053  -4.320  -7.118  0.00  0.00     0.030 A 
HETATM   21  N           1     -22.694  -6.005  -5.358  0.00  0.00    -0.365 N 
HETATM   22  C           1     -20.999  -3.947  -7.957  0.00  0.00     0.002 A 
HETATM   23  C           1     -19.793  -4.645  -7.952  0.00  0.00     0.001 A 
HETATM   24  H           1     -23.673  -5.684  -5.150  0.00  0.00     0.165 HD
HETATM   25  C           1     -22.074  -7.066  -4.753  0.00  0.00     0.096 A 
ENDBRANCH  15  16
ENDBRANCH   1  15
BRANCH   1  26
HETATM   26  C           1     -20.298 -10.453  -5.792  0.00  0.00     0.197 C 
HETATM   27  O           1     -19.155 -10.805  -6.152  0.00  0.00    -0.646 OA
HETATM   28  O           1     -21.303 -10.870  -6.407  0.00  0.00    -0.646 OA
ENDBRANCH   1  26
TORSDOF 9
ENDMDL
