MODEL 1
REMARK VINA RESULT:      -4.8      0.000      0.000
REMARK  8 active torsions:
REMARK  status: ('A' for Active; 'I' for Inactive)
REMARK    1  A    between atoms: C_4  and  C_5 
REMARK    2  A    between atoms: C_5  and  C_6 
REMARK    3  A    between atoms: C_5  and  N_16 
REMARK    4  A    between atoms: C_6  and  Se_7 
REMARK    5  A    between atoms: N_9  and  C_14 
REMARK    6  A    between atoms: S_12  and  C_13 
REMARK    7  A    between atoms: C_13  and  C_14 
REMARK    8  A    between atoms: C_14  and  C_15 
REMARK       I    between atoms: C_15  and  N_16 
ROOT
HETATM    1  H           1     -22.394  -5.743  -9.201  0.00  0.00     0.163 HD
HETATM    2  O           1     -21.602  -3.438  -7.225  0.00  0.00    -0.271 OA
HETATM    3  C           1     -21.703  -4.567  -7.644  0.00  0.00     0.249 C 
HETATM    4  N           1     -22.310  -4.798  -8.849  0.00  0.00    -0.345 N 
ENDROOT
BRANCH   3   5
HETATM    5  C           1     -21.159  -5.722  -6.840  0.00  0.00     0.283 C 
BRANCH   5   6
HETATM    6  N           1     -19.889  -6.214  -7.469  0.00  0.00    -0.066 N 
HETATM    7  H           1     -19.831  -7.253  -7.368  0.00  0.00     0.275 HD
HETATM    8  H           1     -19.070  -5.772  -6.995  0.00  0.00     0.275 HD
HETATM    9  H           1     -19.882  -5.961  -8.483  0.00  0.00     0.275 HD
ENDBRANCH   5   6
BRANCH   5  10
HETATM   10  C           1     -20.873  -5.260  -5.416  0.00  0.00     0.113 C 
BRANCH  10  11
HETATM   11  S           1     -21.503  -6.494  -4.242  0.00  0.00    -0.180 SA
HETATM   12  H           1     -21.206  -5.793  -3.133  0.00  0.00     0.101 HD
ENDBRANCH  10  11
ENDBRANCH   5  10
ENDBRANCH   3   5
BRANCH   4  13
HETATM   13  C           1     -22.833  -3.687  -9.622  0.00  0.00     0.185 C 
BRANCH  13  14
HETATM   14  C           1     -24.338  -3.781  -9.680  0.00  0.00     0.196 C 
HETATM   15  O           1     -24.888  -4.885  -9.877  0.00  0.00    -0.646 OA
HETATM   16  O           1     -25.034  -2.753  -9.530  0.00  0.00    -0.646 OA
ENDBRANCH  13  14
BRANCH  13  17
HETATM   17  C           1     -22.265  -3.742 -11.034  0.00  0.00     0.039 C 
BRANCH  17  18
HETATM   18 Se           1     -20.349  -4.088 -10.951  0.00  0.00     0.000 Se
HETATM   19  H           1     -19.967  -2.694 -11.237  0.00  0.00     0.000 HD
ENDBRANCH  17  18
ENDBRANCH  13  17
ENDBRANCH   4  13
TORSDOF 8
ENDMDL
MODEL 2
REMARK VINA RESULT:      -4.6      2.243      5.292
REMARK  8 active torsions:
REMARK  status: ('A' for Active; 'I' for Inactive)
REMARK    1  A    between atoms: C_4  and  C_5 
REMARK    2  A    between atoms: C_5  and  C_6 
REMARK    3  A    between atoms: C_5  and  N_16 
REMARK    4  A    between atoms: C_6  and  Se_7 
REMARK    5  A    between atoms: N_9  and  C_14 
REMARK    6  A    between atoms: S_12  and  C_13 
REMARK    7  A    between atoms: C_13  and  C_14 
REMARK    8  A    between atoms: C_14  and  C_15 
REMARK       I    between atoms: C_15  and  N_16 
ROOT
HETATM    1  H           1     -20.610  -3.451  -9.512  0.00  0.00     0.163 HD
HETATM    2  O           1     -23.281  -4.855 -10.372  0.00  0.00    -0.271 OA
HETATM    3  C           1     -22.344  -4.095 -10.441  0.00  0.00     0.249 C 
HETATM    4  N           1     -21.395  -4.086  -9.453  0.00  0.00    -0.345 N 
ENDROOT
BRANCH   3   5
HETATM    5  C           1     -22.218  -3.157 -11.616  0.00  0.00     0.283 C 
BRANCH   5   6
HETATM    6  N           1     -21.410  -3.815 -12.695  0.00  0.00    -0.066 N 
HETATM    7  H           1     -21.271  -4.823 -12.461  0.00  0.00     0.275 HD
HETATM    8  H           1     -20.481  -3.343 -12.772  0.00  0.00     0.275 HD
HETATM    9  H           1     -21.916  -3.734 -13.607  0.00  0.00     0.275 HD
ENDBRANCH   5   6
BRANCH   5  10
HETATM   10  C           1     -23.605  -2.824 -12.152  0.00  0.00     0.113 C 
BRANCH  10  11
HETATM   11  S           1     -23.503  -2.497 -13.934  0.00  0.00    -0.180 SA
HETATM   12  H           1     -23.406  -1.160 -13.825  0.00  0.00     0.101 HD
ENDBRANCH  10  11
ENDBRANCH   5  10
ENDBRANCH   3   5
BRANCH   4  13
HETATM   13  C           1     -21.516  -4.988  -8.324  0.00  0.00     0.185 C 
BRANCH  13  14
HETATM   14  C           1     -22.132  -4.253  -7.159  0.00  0.00     0.196 C 
HETATM   15  O           1     -21.540  -3.275  -6.654  0.00  0.00    -0.646 OA
HETATM   16  O           1     -23.233  -4.623  -6.698  0.00  0.00    -0.646 OA
ENDBRANCH  13  14
BRANCH  13  17
HETATM   17  C           1     -20.135  -5.497  -7.933  0.00  0.00     0.039 C 
BRANCH  17  18
HETATM   18 Se           1     -20.252  -6.460  -6.243  0.00  0.00     0.000 Se
HETATM   19  H           1     -21.724  -6.422  -6.189  0.00  0.00     0.000 HD
ENDBRANCH  17  18
ENDBRANCH  13  17
ENDBRANCH   4  13
TORSDOF 8
ENDMDL
MODEL 3
REMARK VINA RESULT:      -4.5      3.491      6.312
REMARK  8 active torsions:
REMARK  status: ('A' for Active; 'I' for Inactive)
REMARK    1  A    between atoms: C_4  and  C_5 
REMARK    2  A    between atoms: C_5  and  C_6 
REMARK    3  A    between atoms: C_5  and  N_16 
REMARK    4  A    between atoms: C_6  and  Se_7 
REMARK    5  A    between atoms: N_9  and  C_14 
REMARK    6  A    between atoms: S_12  and  C_13 
REMARK    7  A    between atoms: C_13  and  C_14 
REMARK    8  A    between atoms: C_14  and  C_15 
REMARK       I    between atoms: C_15  and  N_16 
ROOT
HETATM    1  H           1     -22.339  -2.403 -11.387  0.00  0.00     0.163 HD
HETATM    2  O           1     -24.126  -4.197 -13.240  0.00  0.00    -0.271 OA
HETATM    3  C           1     -23.410  -3.274 -12.929  0.00  0.00     0.249 C 
HETATM    4  N           1     -22.939  -3.175 -11.647  0.00  0.00    -0.345 N 
ENDROOT
BRANCH   3   5
HETATM    5  C           1     -23.036  -2.231 -13.953  0.00  0.00     0.283 C 
BRANCH   5   6
HETATM    6  N           1     -22.422  -2.901 -15.147  0.00  0.00    -0.066 N 
HETATM    7  H           1     -22.554  -3.935 -15.071  0.00  0.00     0.275 HD
HETATM    8  H           1     -21.401  -2.682 -15.184  0.00  0.00     0.275 HD
HETATM    9  H           1     -22.884  -2.553 -16.017  0.00  0.00     0.275 HD
ENDBRANCH   5   6
BRANCH   5  10
HETATM   10  C           1     -24.284  -1.471 -14.384  0.00  0.00     0.113 C 
BRANCH  10  11
HETATM   11  S           1     -23.830  -0.204 -15.603  0.00  0.00    -0.180 SA
HETATM   12  H           1     -25.077  -0.010 -16.071  0.00  0.00     0.101 HD
ENDBRANCH  10  11
ENDBRANCH   5  10
ENDBRANCH   3   5
BRANCH   4  13
HETATM   13  C           1     -23.299  -4.177 -10.663  0.00  0.00     0.185 C 
BRANCH  13  14
HETATM   14  C           1     -24.377  -3.630  -9.760  0.00  0.00     0.196 C 
HETATM   15  O           1     -24.219  -3.643  -8.521  0.00  0.00    -0.646 OA
HETATM   16  O           1     -25.428  -3.165 -10.253  0.00  0.00    -0.646 OA
ENDBRANCH  13  14
BRANCH  13  17
HETATM   17  C           1     -22.073  -4.535  -9.833  0.00  0.00     0.039 C 
BRANCH  17  18
HETATM   18 Se           1     -20.462  -4.216 -10.882  0.00  0.00     0.000 Se
HETATM   19  H           1     -19.543  -4.416  -9.749  0.00  0.00     0.000 HD
ENDBRANCH  17  18
ENDBRANCH  13  17
ENDBRANCH   4  13
TORSDOF 8
ENDMDL
MODEL 4
REMARK VINA RESULT:      -4.3      2.155      5.381
REMARK  8 active torsions:
REMARK  status: ('A' for Active; 'I' for Inactive)
REMARK    1  A    between atoms: C_4  and  C_5 
REMARK    2  A    between atoms: C_5  and  C_6 
REMARK    3  A    between atoms: C_5  and  N_16 
REMARK    4  A    between atoms: C_6  and  Se_7 
REMARK    5  A    between atoms: N_9  and  C_14 
REMARK    6  A    between atoms: S_12  and  C_13 
REMARK    7  A    between atoms: C_13  and  C_14 
REMARK    8  A    between atoms: C_14  and  C_15 
REMARK       I    between atoms: C_15  and  N_16 
ROOT
HETATM    1  H           1     -21.418  -4.971  -9.625  0.00  0.00     0.163 HD
HETATM    2  O           1     -23.734  -4.121  -7.686  0.00  0.00    -0.271 OA
HETATM    3  C           1     -23.192  -4.388  -8.733  0.00  0.00     0.249 C 
HETATM    4  N           1     -21.871  -4.747  -8.748  0.00  0.00    -0.345 N 
ENDROOT
BRANCH   3   5
HETATM    5  C           1     -23.971  -4.324 -10.023  0.00  0.00     0.283 C 
BRANCH   5   6
HETATM    6  N           1     -25.330  -3.746  -9.758  0.00  0.00    -0.066 N 
HETATM    7  H           1     -25.228  -2.768  -9.402  0.00  0.00     0.275 HD
HETATM    8  H           1     -25.823  -4.327  -9.044  0.00  0.00     0.275 HD
HETATM    9  H           1     -25.885  -3.740 -10.644  0.00  0.00     0.275 HD
ENDBRANCH   5   6
BRANCH   5  10
HETATM   10  C           1     -23.231  -3.443 -11.021  0.00  0.00     0.113 C 
BRANCH  10  11
HETATM   11  S           1     -24.309  -3.097 -12.440  0.00  0.00    -0.180 SA
HETATM   12  H           1     -23.320  -3.005 -13.347  0.00  0.00     0.101 HD
ENDBRANCH  10  11
ENDBRANCH   5  10
ENDBRANCH   3   5
BRANCH   4  13
HETATM   13  C           1     -21.122  -4.808  -7.508  0.00  0.00     0.185 C 
BRANCH  13  14
HETATM   14  C           1     -19.716  -4.316  -7.746  0.00  0.00     0.196 C 
HETATM   15  O           1     -19.477  -3.547  -8.701  0.00  0.00    -0.646 OA
HETATM   16  O           1     -18.791  -4.677  -6.987  0.00  0.00    -0.646 OA
ENDBRANCH  13  14
BRANCH  13  17
HETATM   17  C           1     -21.080  -6.248  -7.013  0.00  0.00     0.039 C 
BRANCH  17  18
HETATM   18 Se           1     -21.829  -6.340  -5.216  0.00  0.00     0.000 Se
HETATM   19  H           1     -20.538  -6.625  -4.567  0.00  0.00     0.000 HD
ENDBRANCH  17  18
ENDBRANCH  13  17
ENDBRANCH   4  13
TORSDOF 8
ENDMDL
MODEL 5
REMARK VINA RESULT:      -4.3     19.317     20.753
REMARK  8 active torsions:
REMARK  status: ('A' for Active; 'I' for Inactive)
REMARK    1  A    between atoms: C_4  and  C_5 
REMARK    2  A    between atoms: C_5  and  C_6 
REMARK    3  A    between atoms: C_5  and  N_16 
REMARK    4  A    between atoms: C_6  and  Se_7 
REMARK    5  A    between atoms: N_9  and  C_14 
REMARK    6  A    between atoms: S_12  and  C_13 
REMARK    7  A    between atoms: C_13  and  C_14 
REMARK    8  A    between atoms: C_14  and  C_15 
REMARK       I    between atoms: C_15  and  N_16 
ROOT
HETATM    1  H           1     -11.705   6.909 -20.544  0.00  0.00     0.163 HD
HETATM    2  O           1      -8.598   6.568 -20.807  0.00  0.00    -0.271 OA
HETATM    3  C           1      -9.720   6.338 -20.422  0.00  0.00     0.249 C 
HETATM    4  N           1     -10.766   7.102 -20.865  0.00  0.00    -0.345 N 
ENDROOT
BRANCH   3   5
HETATM    5  C           1      -9.968   5.207 -19.454  0.00  0.00     0.283 C 
BRANCH   5   6
HETATM    6  N           1      -9.502   5.609 -18.087  0.00  0.00    -0.066 N 
HETATM    7  H           1      -9.992   6.485 -17.795  0.00  0.00     0.275 HD
HETATM    8  H           1      -8.471   5.776 -18.105  0.00  0.00     0.275 HD
HETATM    9  H           1      -9.718   4.845 -17.407  0.00  0.00     0.275 HD
ENDBRANCH   5   6
BRANCH   5  10
HETATM   10  C           1     -11.459   4.894 -19.411  0.00  0.00     0.113 C 
BRANCH  10  11
HETATM   11  S           1     -11.821   3.516 -20.535  0.00  0.00    -0.180 SA
HETATM   12  H           1     -12.375   4.269 -21.503  0.00  0.00     0.101 HD
ENDBRANCH  10  11
ENDBRANCH   5  10
ENDBRANCH   3   5
BRANCH   4  13
HETATM   13  C           1     -10.527   8.189 -21.795  0.00  0.00     0.185 C 
BRANCH  13  14
HETATM   14  C           1     -10.514   9.498 -21.045  0.00  0.00     0.196 C 
HETATM   15  O           1     -11.460  10.303 -21.179  0.00  0.00    -0.646 OA
HETATM   16  O           1      -9.558   9.777 -20.290  0.00  0.00    -0.646 OA
ENDBRANCH  13  14
BRANCH  13  17
HETATM   17  C           1     -11.633   8.212 -22.841  0.00  0.00     0.039 C 
BRANCH  17  18
HETATM   18 Se           1     -12.993   6.894 -22.379  0.00  0.00     0.000 Se
HETATM   19  H           1     -13.449   6.706 -23.766  0.00  0.00     0.000 HD
ENDBRANCH  17  18
ENDBRANCH  13  17
ENDBRANCH   4  13
TORSDOF 8
ENDMDL
MODEL 6
REMARK VINA RESULT:      -4.3      2.542      2.814
REMARK  8 active torsions:
REMARK  status: ('A' for Active; 'I' for Inactive)
REMARK    1  A    between atoms: C_4  and  C_5 
REMARK    2  A    between atoms: C_5  and  C_6 
REMARK    3  A    between atoms: C_5  and  N_16 
REMARK    4  A    between atoms: C_6  and  Se_7 
REMARK    5  A    between atoms: N_9  and  C_14 
REMARK    6  A    between atoms: S_12  and  C_13 
REMARK    7  A    between atoms: C_13  and  C_14 
REMARK    8  A    between atoms: C_14  and  C_15 
REMARK       I    between atoms: C_15  and  N_16 
ROOT
HETATM    1  H           1     -22.828  -3.513  -8.801  0.00  0.00     0.163 HD
HETATM    2  O           1     -20.209  -5.238  -8.884  0.00  0.00    -0.271 OA
HETATM    3  C           1     -21.095  -4.572  -8.403  0.00  0.00     0.249 C 
HETATM    4  N           1     -22.085  -4.071  -9.204  0.00  0.00    -0.345 N 
ENDROOT
BRANCH   3   5
HETATM    5  C           1     -21.110  -4.293  -6.920  0.00  0.00     0.283 C 
BRANCH   5   6
HETATM    6  N           1     -22.391  -4.801  -6.330  0.00  0.00    -0.066 N 
HETATM    7  H           1     -22.183  -5.350  -5.465  0.00  0.00     0.275 HD
HETATM    8  H           1     -22.877  -5.414  -7.023  0.00  0.00     0.275 HD
HETATM    9  H           1     -23.009  -3.993  -6.090  0.00  0.00     0.275 HD
ENDBRANCH   5   6
BRANCH   5  10
HETATM   10  C           1     -19.932  -4.998  -6.258  0.00  0.00     0.113 C 
BRANCH  10  11
HETATM   11  S           1     -20.491  -6.574  -5.550  0.00  0.00    -0.180 SA
HETATM   12  H           1     -21.473  -6.787  -6.444  0.00  0.00     0.101 HD
ENDBRANCH  10  11
ENDBRANCH   5  10
ENDBRANCH   3   5
BRANCH   4  13
HETATM   13  C           1     -22.071  -4.339 -10.629  0.00  0.00     0.185 C 
BRANCH  13  14
HETATM   14  C           1     -21.507  -3.145 -11.359  0.00  0.00     0.196 C 
HETATM   15  O           1     -20.288  -2.881 -11.278  0.00  0.00    -0.646 OA
HETATM   16  O           1     -22.260  -2.419 -12.044  0.00  0.00    -0.646 OA
ENDBRANCH  13  14
BRANCH  13  17
HETATM   17  C           1     -23.492  -4.604 -11.108  0.00  0.00     0.039 C 
BRANCH  17  18
HETATM   18 Se           1     -24.754  -3.681  -9.944  0.00  0.00     0.000 Se
HETATM   19  H           1     -23.716  -2.917  -9.231  0.00  0.00     0.000 HD
ENDBRANCH  17  18
ENDBRANCH  13  17
ENDBRANCH   4  13
TORSDOF 8
ENDMDL
MODEL 7
REMARK VINA RESULT:      -4.2      2.631      5.087
REMARK  8 active torsions:
REMARK  status: ('A' for Active; 'I' for Inactive)
REMARK    1  A    between atoms: C_4  and  C_5 
REMARK    2  A    between atoms: C_5  and  C_6 
REMARK    3  A    between atoms: C_5  and  N_16 
REMARK    4  A    between atoms: C_6  and  Se_7 
REMARK    5  A    between atoms: N_9  and  C_14 
REMARK    6  A    between atoms: S_12  and  C_13 
REMARK    7  A    between atoms: C_13  and  C_14 
REMARK    8  A    between atoms: C_14  and  C_15 
REMARK       I    between atoms: C_15  and  N_16 
ROOT
HETATM    1  H           1     -23.945  -3.914  -7.863  0.00  0.00     0.163 HD
HETATM    2  O           1     -22.114  -4.954 -10.189  0.00  0.00    -0.271 OA
HETATM    3  C           1     -23.082  -4.456  -9.665  0.00  0.00     0.249 C 
HETATM    4  N           1     -23.135  -4.331  -8.302  0.00  0.00    -0.345 N 
ENDROOT
BRANCH   3   5
HETATM    5  C           1     -24.233  -3.971 -10.511  0.00  0.00     0.283 C 
BRANCH   5   6
HETATM    6  N           1     -25.343  -3.498  -9.621  0.00  0.00    -0.066 N 
HETATM    7  H           1     -24.972  -2.791  -8.946  0.00  0.00     0.275 HD
HETATM    8  H           1     -25.737  -4.309  -9.093  0.00  0.00     0.275 HD
HETATM    9  H           1     -26.096  -3.064 -10.202  0.00  0.00     0.275 HD
ENDBRANCH   5   6
BRANCH   5  10
HETATM   10  C           1     -23.765  -2.820 -11.394  0.00  0.00     0.113 C 
BRANCH  10  11
HETATM   11  S           1     -23.822  -3.331 -13.135  0.00  0.00    -0.180 SA
HETATM   12  H           1     -23.591  -2.108 -13.646  0.00  0.00     0.101 HD
ENDBRANCH  10  11
ENDBRANCH   5  10
ENDBRANCH   3   5
BRANCH   4  13
HETATM   13  C           1     -22.029  -4.797  -7.488  0.00  0.00     0.185 C 
BRANCH  13  14
HETATM   14  C           1     -22.550  -5.264  -6.152  0.00  0.00     0.196 C 
HETATM   15  O           1     -23.782  -5.319  -5.946  0.00  0.00    -0.646 OA
HETATM   16  O           1     -21.750  -5.596  -5.250  0.00  0.00    -0.646 OA
ENDBRANCH  13  14
BRANCH  13  17
HETATM   17  C           1     -21.040  -3.658  -7.279  0.00  0.00     0.039 C 
BRANCH  17  18
HETATM   18 Se           1     -19.241  -4.270  -7.714  0.00  0.00     0.000 Se
HETATM   19  H           1     -18.925  -4.688  -6.338  0.00  0.00     0.000 HD
ENDBRANCH  17  18
ENDBRANCH  13  17
ENDBRANCH   4  13
TORSDOF 8
ENDMDL
MODEL 8
REMARK VINA RESULT:      -4.1      3.347      6.078
REMARK  8 active torsions:
REMARK  status: ('A' for Active; 'I' for Inactive)
REMARK    1  A    between atoms: C_4  and  C_5 
REMARK    2  A    between atoms: C_5  and  C_6 
REMARK    3  A    between atoms: C_5  and  N_16 
REMARK    4  A    between atoms: C_6  and  Se_7 
REMARK    5  A    between atoms: N_9  and  C_14 
REMARK    6  A    between atoms: S_12  and  C_13 
REMARK    7  A    between atoms: C_13  and  C_14 
REMARK    8  A    between atoms: C_14  and  C_15 
REMARK       I    between atoms: C_15  and  N_16 
ROOT
HETATM    1  H           1     -19.888  -6.801  -4.942  0.00  0.00     0.163 HD
HETATM    2  O           1     -22.676  -5.587  -5.714  0.00  0.00    -0.271 OA
HETATM    3  C           1     -21.479  -5.745  -5.742  0.00  0.00     0.249 C 
HETATM    4  N           1     -20.891  -6.668  -4.918  0.00  0.00    -0.345 N 
ENDROOT
BRANCH   3   5
HETATM    5  C           1     -20.630  -4.926  -6.683  0.00  0.00     0.283 C 
BRANCH   5   6
HETATM    6  N           1     -20.045  -5.820  -7.735  0.00  0.00    -0.066 N 
HETATM    7  H           1     -19.023  -5.944  -7.558  0.00  0.00     0.275 HD
HETATM    8  H           1     -20.186  -5.390  -8.677  0.00  0.00     0.275 HD
HETATM    9  H           1     -20.521  -6.751  -7.705  0.00  0.00     0.275 HD
ENDBRANCH   5   6
BRANCH   5  10
HETATM   10  C           1     -21.493  -3.859  -7.346  0.00  0.00     0.113 C 
BRANCH  10  11
HETATM   11  S           1     -21.875  -4.363  -9.048  0.00  0.00    -0.180 SA
HETATM   12  H           1     -20.670  -4.054  -9.558  0.00  0.00     0.101 HD
ENDBRANCH  10  11
ENDBRANCH   5  10
ENDBRANCH   3   5
BRANCH   4  13
HETATM   13  C           1     -21.706  -7.456  -4.014  0.00  0.00     0.185 C 
BRANCH  13  14
HETATM   14  C           1     -21.601  -6.889  -2.620  0.00  0.00     0.196 C 
HETATM   15  O           1     -20.804  -7.392  -1.800  0.00  0.00    -0.646 OA
HETATM   16  O           1     -22.311  -5.915  -2.286  0.00  0.00    -0.646 OA
ENDBRANCH  13  14
BRANCH  13  17
HETATM   17  C           1     -21.214  -8.898  -4.015  0.00  0.00     0.039 C 
BRANCH  17  18
HETATM   18 Se           1     -19.446  -8.981  -4.830  0.00  0.00     0.000 Se
HETATM   19  H           1     -18.807  -9.600  -3.657  0.00  0.00     0.000 HD
ENDBRANCH  17  18
ENDBRANCH  13  17
ENDBRANCH   4  13
TORSDOF 8
ENDMDL
MODEL 9
REMARK VINA RESULT:      -4.1     18.363     19.934
REMARK  8 active torsions:
REMARK  status: ('A' for Active; 'I' for Inactive)
REMARK    1  A    between atoms: C_4  and  C_5 
REMARK    2  A    between atoms: C_5  and  C_6 
REMARK    3  A    between atoms: C_5  and  N_16 
REMARK    4  A    between atoms: C_6  and  Se_7 
REMARK    5  A    between atoms: N_9  and  C_14 
REMARK    6  A    between atoms: S_12  and  C_13 
REMARK    7  A    between atoms: C_13  and  C_14 
REMARK    8  A    between atoms: C_14  and  C_15 
REMARK       I    between atoms: C_15  and  N_16 
ROOT
HETATM    1  H           1     -11.006   6.741 -21.248  0.00  0.00     0.163 HD
HETATM    2  O           1     -12.941   8.114 -19.196  0.00  0.00    -0.271 OA
HETATM    3  C           1     -11.948   7.961 -19.867  0.00  0.00     0.249 C 
HETATM    4  N           1     -11.837   6.869 -20.686  0.00  0.00    -0.345 N 
ENDROOT
BRANCH   3   5
HETATM    5  C           1     -10.831   8.973 -19.804  0.00  0.00     0.283 C 
BRANCH   5   6
HETATM    6  N           1     -10.199   8.934 -18.444  0.00  0.00    -0.066 N 
HETATM    7  H           1     -10.667   9.632 -17.823  0.00  0.00     0.275 HD
HETATM    8  H           1      -9.183   9.167 -18.525  0.00  0.00     0.275 HD
HETATM    9  H           1     -10.305   7.977 -18.038  0.00  0.00     0.275 HD
ENDBRANCH   5   6
BRANCH   5  10
HETATM   10  C           1      -9.784   8.641 -20.860  0.00  0.00     0.113 C 
BRANCH  10  11
HETATM   11  S           1     -10.195   9.493 -22.409  0.00  0.00    -0.180 SA
HETATM   12  H           1     -10.787   8.437 -22.996  0.00  0.00     0.101 HD
ENDBRANCH  10  11
ENDBRANCH   5  10
ENDBRANCH   3   5
BRANCH   4  13
HETATM   13  C           1     -12.911   5.896 -20.746  0.00  0.00     0.185 C 
BRANCH  13  14
HETATM   14  C           1     -12.499   4.646 -20.008  0.00  0.00     0.196 C 
HETATM   15  O           1     -12.229   4.702 -18.789  0.00  0.00    -0.646 OA
HETATM   16  O           1     -12.427   3.556 -20.615  0.00  0.00    -0.646 OA
ENDBRANCH  13  14
BRANCH  13  17
HETATM   17  C           1     -13.202   5.554 -22.202  0.00  0.00     0.039 C 
BRANCH  17  18
HETATM   18 Se           1     -15.109   5.222 -22.423  0.00  0.00     0.000 Se
HETATM   19  H           1     -15.004   4.885 -23.852  0.00  0.00     0.000 HD
ENDBRANCH  17  18
ENDBRANCH  13  17
ENDBRANCH   4  13
TORSDOF 8
ENDMDL
