MODEL 1
REMARK VINA RESULT:      -7.4      0.000      0.000
REMARK  17 active torsions:
REMARK  status: ('A' for Active; 'I' for Inactive)
REMARK    1  A    between atoms: C_2  and  C_12 
REMARK    2  A    between atoms: C_2  and  C_3 
REMARK    3  A    between atoms: C_2  and  N_7 
REMARK    4  A    between atoms: C_6  and  N_7 
REMARK    5  A    between atoms: C_6  and  C_22 
REMARK    6  A    between atoms: N_9  and  C_10 
REMARK    7  A    between atoms: C_10  and  C_11 
REMARK    8  A    between atoms: C_11  and  C_12 
REMARK    9  A    between atoms: C_13  and  C_30 
REMARK   10  A    between atoms: C_13  and  C_20 
REMARK       I    between atoms: N_16  and  C_17 
REMARK       I    between atoms: C_17  and  N_18 
REMARK   11  A    between atoms: N_18  and  C_19 
REMARK   12  A    between atoms: C_19  and  C_20 
REMARK   13  A    between atoms: C_22  and  C_23 
REMARK   14  A    between atoms: C_23  and  C_24 
REMARK   15  A    between atoms: C_23  and  N_27 
REMARK       I    between atoms: N_27  and  C_28 
REMARK   16  A    between atoms: C_28  and  C_30 
REMARK   17  A    between atoms: C_30  and  N_36 
ROOT
HETATM    1  H           1     -35.342   0.069 -12.046  0.00  0.00     0.163 HD
HETATM    2  N           1     -36.291  -0.272 -12.120  0.00  0.00    -0.345 N 
HETATM    3  C           1     -36.942  -0.232 -13.325  0.00  0.00     0.249 C 
HETATM    4  O           1     -38.075  -0.638 -13.414  0.00  0.00    -0.271 OA
ENDROOT
BRANCH   2   5
HETATM    5  C           1     -36.965  -0.803 -10.951  0.00  0.00     0.187 C 
BRANCH   5   6
HETATM    6  C           1     -36.181  -1.993 -10.412  0.00  0.00     0.066 C 
BRANCH   6   7
HETATM    7  C           1     -34.773  -1.979 -10.993  0.00  0.00     0.273 C 
BRANCH   7   8
HETATM    8  N           1     -34.053  -3.135 -10.533  0.00  0.00     0.098 N 
HETATM    9  H           1     -34.705  -3.793 -10.104  0.00  0.00     0.317 HD
BRANCH   8  10
HETATM   10  C           1     -33.435  -3.749 -11.677  0.00  0.00     0.320 C 
BRANCH  10  11
HETATM   11  C           1     -33.114  -5.204 -11.359  0.00  0.00     0.048 C 
BRANCH  11  12
HETATM   12  C           1     -34.093  -5.724 -10.315  0.00  0.00     0.030 C 
BRANCH  12  13
HETATM   13  C           1     -34.514  -7.143 -10.673  0.00  0.00     0.230 C 
BRANCH  13  14
HETATM   14  N           1     -34.983  -7.853  -9.437  0.00  0.00    -0.079 N 
HETATM   15  H           1     -34.189  -8.387  -9.019  0.00  0.00     0.274 HD
HETATM   16  H           1     -35.334  -7.151  -8.746  0.00  0.00     0.274 HD
HETATM   17  H           1     -35.754  -8.512  -9.687  0.00  0.00     0.274 HD
ENDBRANCH  13  14
ENDBRANCH  12  13
ENDBRANCH  11  12
ENDBRANCH  10  11
BRANCH  10  18
HETATM   18  C           1     -34.380  -3.687 -12.852  0.00  0.00     0.207 C 
HETATM   19  O           1     -34.489  -2.630 -13.511  0.00  0.00    -0.646 OA
HETATM   20  O           1     -35.053  -4.691 -13.166  0.00  0.00    -0.646 OA
ENDBRANCH  10  18
ENDBRANCH   8  10
ENDBRANCH   7   8
ENDBRANCH   6   7
ENDBRANCH   5   6
BRANCH   5  21
HETATM   21  C           1     -37.051   0.266  -9.890  0.00  0.00     0.196 C 
HETATM   22  O           1     -37.862   1.209 -10.018  0.00  0.00    -0.646 OA
HETATM   23  O           1     -36.311   0.210  -8.884  0.00  0.00    -0.646 OA
ENDBRANCH   5  21
ENDBRANCH   2   5
BRANCH   3  24
HETATM   24  C           1     -36.241   0.321 -14.541  0.00  0.00     0.274 C 
BRANCH  24  25
HETATM   25  C           1     -36.583  -0.531 -15.757  0.00  0.00     0.044 C 
BRANCH  25  26
HETATM   26  C           1     -35.319  -0.791 -16.566  0.00  0.00     0.023 C 
BRANCH  26  27
HETATM   27  C           1     -35.165  -2.288 -16.803  0.00  0.00     0.138 C 
BRANCH  27  28
HETATM   28  N           1     -33.801  -2.573 -17.268  0.00  0.00    -0.227 N 
HETATM   29  H           1     -33.333  -1.928 -17.951  0.00  0.00     0.177 HD
HETATM   30  C           1     -33.188  -3.597 -16.843  0.00  0.00     0.665 C 
HETATM   31  N           1     -32.014  -3.843 -17.244  0.00  0.00    -0.235 N 
HETATM   32  N           1     -33.768  -4.396 -15.997  0.00  0.00    -0.235 N 
HETATM   33  H           1     -31.506  -4.692 -16.893  0.00  0.00     0.174 HD
HETATM   34  H           1     -31.546  -3.198 -17.929  0.00  0.00     0.174 HD
HETATM   35  H           1     -34.738  -4.193 -15.666  0.00  0.00     0.174 HD
HETATM   36  H           1     -33.262  -5.241 -15.647  0.00  0.00     0.174 HD
ENDBRANCH  27  28
ENDBRANCH  26  27
ENDBRANCH  25  26
ENDBRANCH  24  25
BRANCH  24  37
HETATM   37  N           1     -34.757   0.297 -14.316  0.00  0.00    -0.067 N 
HETATM   38  H           1     -34.516  -0.486 -13.667  0.00  0.00     0.275 HD
HETATM   39  H           1     -34.270   0.155 -15.230  0.00  0.00     0.275 HD
HETATM   40  H           1     -34.455   1.204 -13.895  0.00  0.00     0.275 HD
ENDBRANCH  24  37
ENDBRANCH   3  24
TORSDOF 17
ENDMDL
MODEL 2
REMARK VINA RESULT:      -7.0     13.726     16.841
REMARK  17 active torsions:
REMARK  status: ('A' for Active; 'I' for Inactive)
REMARK    1  A    between atoms: C_2  and  C_12 
REMARK    2  A    between atoms: C_2  and  C_3 
REMARK    3  A    between atoms: C_2  and  N_7 
REMARK    4  A    between atoms: C_6  and  N_7 
REMARK    5  A    between atoms: C_6  and  C_22 
REMARK    6  A    between atoms: N_9  and  C_10 
REMARK    7  A    between atoms: C_10  and  C_11 
REMARK    8  A    between atoms: C_11  and  C_12 
REMARK    9  A    between atoms: C_13  and  C_30 
REMARK   10  A    between atoms: C_13  and  C_20 
REMARK       I    between atoms: N_16  and  C_17 
REMARK       I    between atoms: C_17  and  N_18 
REMARK   11  A    between atoms: N_18  and  C_19 
REMARK   12  A    between atoms: C_19  and  C_20 
REMARK   13  A    between atoms: C_22  and  C_23 
REMARK   14  A    between atoms: C_23  and  C_24 
REMARK   15  A    between atoms: C_23  and  N_27 
REMARK       I    between atoms: N_27  and  C_28 
REMARK   16  A    between atoms: C_28  and  C_30 
REMARK   17  A    between atoms: C_30  and  N_36 
ROOT
HETATM    1  H           1     -20.531  -4.648  -4.444  0.00  0.00     0.163 HD
HETATM    2  N           1     -20.942  -5.411  -4.965  0.00  0.00    -0.345 N 
HETATM    3  C           1     -21.405  -6.520  -4.306  0.00  0.00     0.249 C 
HETATM    4  O           1     -21.897  -7.430  -4.927  0.00  0.00    -0.271 OA
ENDROOT
BRANCH   2   5
HETATM    5  C           1     -21.043  -5.333  -6.409  0.00  0.00     0.187 C 
BRANCH   5   6
HETATM    6  C           1     -21.504  -3.938  -6.809  0.00  0.00     0.066 C 
BRANCH   6   7
HETATM    7  C           1     -22.740  -4.044  -7.693  0.00  0.00     0.273 C 
BRANCH   7   8
HETATM    8  N           1     -22.351  -4.461  -9.014  0.00  0.00     0.098 N 
HETATM    9  H           1     -22.620  -5.435  -9.155  0.00  0.00     0.317 HD
BRANCH   8  10
HETATM   10  C           1     -23.046  -3.628  -9.957  0.00  0.00     0.320 C 
BRANCH  10  11
HETATM   11  C           1     -22.503  -3.887 -11.357  0.00  0.00     0.048 C 
BRANCH  11  12
HETATM   12  C           1     -22.494  -2.585 -12.147  0.00  0.00     0.030 C 
BRANCH  12  13
HETATM   13  C           1     -23.495  -2.677 -13.291  0.00  0.00     0.230 C 
BRANCH  13  14
HETATM   14  N           1     -23.933  -4.102 -13.460  0.00  0.00    -0.079 N 
HETATM   15  H           1     -24.965  -4.169 -13.314  0.00  0.00     0.274 HD
HETATM   16  H           1     -23.695  -4.427 -14.425  0.00  0.00     0.274 HD
HETATM   17  H           1     -23.442  -4.702 -12.759  0.00  0.00     0.274 HD
ENDBRANCH  13  14
ENDBRANCH  12  13
ENDBRANCH  11  12
ENDBRANCH  10  11
BRANCH  10  18
HETATM   18  C           1     -24.519  -3.949  -9.921  0.00  0.00     0.207 C 
HETATM   19  O           1     -24.900  -5.141  -9.931  0.00  0.00    -0.646 OA
HETATM   20  O           1     -25.360  -3.026  -9.882  0.00  0.00    -0.646 OA
ENDBRANCH  10  18
ENDBRANCH   8  10
ENDBRANCH   7   8
ENDBRANCH   6   7
ENDBRANCH   5   6
BRANCH   5  21
HETATM   21  C           1     -19.694  -5.614  -7.024  0.00  0.00     0.196 C 
HETATM   22  O           1     -18.944  -4.665  -7.342  0.00  0.00    -0.646 OA
HETATM   23  O           1     -19.326  -6.793  -7.215  0.00  0.00    -0.646 OA
ENDBRANCH   5  21
ENDBRANCH   2   5
BRANCH   3  24
HETATM   24  C           1     -21.300  -6.601  -2.803  0.00  0.00     0.274 C 
BRANCH  24  25
HETATM   25  C           1     -21.371  -8.059  -2.367  0.00  0.00     0.044 C 
BRANCH  25  26
HETATM   26  C           1     -19.964  -8.575  -2.091  0.00  0.00     0.023 C 
BRANCH  26  27
HETATM   27  C           1     -19.706  -9.822  -2.927  0.00  0.00     0.138 C 
BRANCH  27  28
HETATM   28  N           1     -18.747  -9.506  -3.996  0.00  0.00    -0.227 N 
HETATM   29  H           1     -17.771  -9.207  -3.754  0.00  0.00     0.177 HD
HETATM   30  C           1     -19.100  -9.597  -5.208  0.00  0.00     0.665 C 
HETATM   31  N           1     -18.275  -9.324  -6.129  0.00  0.00    -0.235 N 
HETATM   32  N           1     -20.309  -9.968  -5.507  0.00  0.00    -0.235 N 
HETATM   33  H           1     -18.567  -9.399  -7.134  0.00  0.00     0.174 HD
HETATM   34  H           1     -17.298  -9.024  -5.887  0.00  0.00     0.174 HD
HETATM   35  H           1     -20.990 -10.192  -4.747  0.00  0.00     0.174 HD
HETATM   36  H           1     -20.600 -10.042  -6.509  0.00  0.00     0.174 HD
ENDBRANCH  27  28
ENDBRANCH  26  27
ENDBRANCH  25  26
ENDBRANCH  24  25
BRANCH  24  37
HETATM   37  N           1     -22.433  -5.838  -2.181  0.00  0.00    -0.067 N 
HETATM   38  H           1     -22.271  -5.750  -1.153  0.00  0.00     0.275 HD
HETATM   39  H           1     -22.486  -4.885  -2.608  0.00  0.00     0.275 HD
HETATM   40  H           1     -23.329  -6.347  -2.350  0.00  0.00     0.275 HD
ENDBRANCH  24  37
ENDBRANCH   3  24
TORSDOF 17
ENDMDL
MODEL 3
REMARK VINA RESULT:      -6.8     14.504     16.603
REMARK  17 active torsions:
REMARK  status: ('A' for Active; 'I' for Inactive)
REMARK    1  A    between atoms: C_2  and  C_12 
REMARK    2  A    between atoms: C_2  and  C_3 
REMARK    3  A    between atoms: C_2  and  N_7 
REMARK    4  A    between atoms: C_6  and  N_7 
REMARK    5  A    between atoms: C_6  and  C_22 
REMARK    6  A    between atoms: N_9  and  C_10 
REMARK    7  A    between atoms: C_10  and  C_11 
REMARK    8  A    between atoms: C_11  and  C_12 
REMARK    9  A    between atoms: C_13  and  C_30 
REMARK   10  A    between atoms: C_13  and  C_20 
REMARK       I    between atoms: N_16  and  C_17 
REMARK       I    between atoms: C_17  and  N_18 
REMARK   11  A    between atoms: N_18  and  C_19 
REMARK   12  A    between atoms: C_19  and  C_20 
REMARK   13  A    between atoms: C_22  and  C_23 
REMARK   14  A    between atoms: C_23  and  C_24 
REMARK   15  A    between atoms: C_23  and  N_27 
REMARK       I    between atoms: N_27  and  C_28 
REMARK   16  A    between atoms: C_28  and  C_30 
REMARK   17  A    between atoms: C_30  and  N_36 
ROOT
HETATM    1  H           1     -22.553  -6.376  -6.614  0.00  0.00     0.163 HD
HETATM    2  N           1     -21.647  -6.035  -6.322  0.00  0.00    -0.345 N 
HETATM    3  C           1     -20.971  -5.133  -7.101  0.00  0.00     0.249 C 
HETATM    4  O           1     -19.890  -4.726  -6.753  0.00  0.00    -0.271 OA
ENDROOT
BRANCH   2   5
HETATM    5  C           1     -21.062  -6.499  -5.080  0.00  0.00     0.187 C 
BRANCH   5   6
HETATM    6  C           1     -22.093  -6.390  -3.963  0.00  0.00     0.066 C 
BRANCH   6   7
HETATM    7  C           1     -21.381  -6.190  -2.632  0.00  0.00     0.273 C 
BRANCH   7   8
HETATM    8  N           1     -22.273  -6.526  -1.555  0.00  0.00     0.098 N 
HETATM    9  H           1     -23.238  -6.406  -1.864  0.00  0.00     0.317 HD
BRANCH   8  10
HETATM   10  C           1     -22.046  -7.904  -1.213  0.00  0.00     0.320 C 
BRANCH  10  11
HETATM   11  C           1     -20.563  -8.222  -1.352  0.00  0.00     0.048 C 
BRANCH  11  12
HETATM   12  C           1     -20.389  -9.703  -1.665  0.00  0.00     0.030 C 
BRANCH  12  13
HETATM   13  C           1     -19.056  -9.920  -2.369  0.00  0.00     0.230 C 
BRANCH  13  14
HETATM   14  N           1     -19.279 -10.691  -3.637  0.00  0.00    -0.079 N 
HETATM   15  H           1     -19.506 -10.028  -4.412  0.00  0.00     0.274 HD
HETATM   16  H           1     -18.413 -11.225  -3.877  0.00  0.00     0.274 HD
HETATM   17  H           1     -20.074 -11.356  -3.504  0.00  0.00     0.274 HD
ENDBRANCH  13  14
ENDBRANCH  12  13
ENDBRANCH  11  12
ENDBRANCH  10  11
BRANCH  10  18
HETATM   18  C           1     -22.481  -8.146   0.212  0.00  0.00     0.207 C 
HETATM   19  O           1     -23.570  -8.714   0.445  0.00  0.00    -0.646 OA
HETATM   20  O           1     -21.753  -7.778   1.158  0.00  0.00    -0.646 OA
ENDBRANCH  10  18
ENDBRANCH   8  10
ENDBRANCH   7   8
ENDBRANCH   6   7
ENDBRANCH   5   6
BRANCH   5  21
HETATM   21  C           1     -20.636  -7.939  -5.231  0.00  0.00     0.196 C 
HETATM   22  O           1     -19.489  -8.209  -5.650  0.00  0.00    -0.646 OA
HETATM   23  O           1     -21.428  -8.860  -4.938  0.00  0.00    -0.646 OA
ENDBRANCH   5  21
ENDBRANCH   2   5
BRANCH   3  24
HETATM   24  C           1     -21.580  -4.650  -8.394  0.00  0.00     0.274 C 
BRANCH  24  25
HETATM   25  C           1     -20.472  -4.226  -9.351  0.00  0.00     0.044 C 
BRANCH  25  26
HETATM   26  C           1     -20.941  -4.418 -10.788  0.00  0.00     0.023 C 
BRANCH  26  27
HETATM   27  C           1     -21.096  -3.060 -11.459  0.00  0.00     0.138 C 
BRANCH  27  28
HETATM   28  N           1     -22.524  -2.754 -11.623  0.00  0.00    -0.227 N 
HETATM   29  H           1     -23.102  -2.481 -10.790  0.00  0.00     0.177 HD
HETATM   30  C           1     -23.057  -2.819 -12.770  0.00  0.00     0.665 C 
HETATM   31  N           1     -24.287  -2.557 -12.912  0.00  0.00    -0.235 N 
HETATM   32  N           1     -22.341  -3.157 -13.800  0.00  0.00    -0.235 N 
HETATM   33  H           1     -24.729  -2.611 -13.862  0.00  0.00     0.174 HD
HETATM   34  H           1     -24.866  -2.284 -12.078  0.00  0.00     0.174 HD
HETATM   35  H           1     -21.325  -3.374 -13.683  0.00  0.00     0.174 HD
HETATM   36  H           1     -22.781  -3.211 -14.747  0.00  0.00     0.174 HD
ENDBRANCH  27  28
ENDBRANCH  26  27
ENDBRANCH  25  26
ENDBRANCH  24  25
BRANCH  24  37
HETATM   37  N           1     -22.476  -3.479  -8.118  0.00  0.00    -0.067 N 
HETATM   38  H           1     -22.396  -3.209  -7.112  0.00  0.00     0.275 HD
HETATM   39  H           1     -22.190  -2.673  -8.719  0.00  0.00     0.275 HD
HETATM   40  H           1     -23.465  -3.740  -8.330  0.00  0.00     0.275 HD
ENDBRANCH  24  37
ENDBRANCH   3  24
TORSDOF 17
ENDMDL
MODEL 4
REMARK VINA RESULT:      -6.7     13.400     15.286
REMARK  17 active torsions:
REMARK  status: ('A' for Active; 'I' for Inactive)
REMARK    1  A    between atoms: C_2  and  C_12 
REMARK    2  A    between atoms: C_2  and  C_3 
REMARK    3  A    between atoms: C_2  and  N_7 
REMARK    4  A    between atoms: C_6  and  N_7 
REMARK    5  A    between atoms: C_6  and  C_22 
REMARK    6  A    between atoms: N_9  and  C_10 
REMARK    7  A    between atoms: C_10  and  C_11 
REMARK    8  A    between atoms: C_11  and  C_12 
REMARK    9  A    between atoms: C_13  and  C_30 
REMARK   10  A    between atoms: C_13  and  C_20 
REMARK       I    between atoms: N_16  and  C_17 
REMARK       I    between atoms: C_17  and  N_18 
REMARK   11  A    between atoms: N_18  and  C_19 
REMARK   12  A    between atoms: C_19  and  C_20 
REMARK   13  A    between atoms: C_22  and  C_23 
REMARK   14  A    between atoms: C_23  and  C_24 
REMARK   15  A    between atoms: C_23  and  N_27 
REMARK       I    between atoms: N_27  and  C_28 
REMARK   16  A    between atoms: C_28  and  C_30 
REMARK   17  A    between atoms: C_30  and  N_36 
ROOT
HETATM    1  H           1     -20.892  -5.887  -8.781  0.00  0.00     0.163 HD
HETATM    2  N           1     -21.514  -5.369  -8.176  0.00  0.00    -0.345 N 
HETATM    3  C           1     -22.521  -4.613  -8.715  0.00  0.00     0.249 C 
HETATM    4  O           1     -23.265  -3.993  -7.993  0.00  0.00    -0.271 OA
ENDROOT
BRANCH   2   5
HETATM    5  C           1     -21.342  -5.424  -6.737  0.00  0.00     0.187 C 
BRANCH   5   6
HETATM    6  C           1     -21.250  -6.879  -6.294  0.00  0.00     0.066 C 
BRANCH   6   7
HETATM    7  C           1     -22.004  -7.060  -4.984  0.00  0.00     0.273 C 
BRANCH   7   8
HETATM    8  N           1     -21.070  -7.080  -3.891  0.00  0.00     0.098 N 
HETATM    9  H           1     -20.825  -6.123  -3.636  0.00  0.00     0.317 HD
BRANCH   8  10
HETATM   10  C           1     -21.713  -7.724  -2.778  0.00  0.00     0.320 C 
BRANCH  10  11
HETATM   11  C           1     -20.751  -8.721  -2.145  0.00  0.00     0.048 C 
BRANCH  11  12
HETATM   12  C           1     -21.401 -10.098  -2.105  0.00  0.00     0.030 C 
BRANCH  12  13
HETATM   13  C           1     -21.738 -10.460  -0.664  0.00  0.00     0.230 C 
BRANCH  13  14
HETATM   14  N           1     -23.147 -10.045  -0.361  0.00  0.00    -0.079 N 
HETATM   15  H           1     -23.501 -10.585   0.461  0.00  0.00     0.274 HD
HETATM   16  H           1     -23.170  -9.023  -0.142  0.00  0.00     0.274 HD
HETATM   17  H           1     -23.753 -10.237  -1.191  0.00  0.00     0.274 HD
ENDBRANCH  13  14
ENDBRANCH  12  13
ENDBRANCH  11  12
ENDBRANCH  10  11
BRANCH  10  18
HETATM   18  C           1     -22.107  -6.686  -1.756  0.00  0.00     0.207 C 
HETATM   19  O           1     -22.514  -7.042  -0.628  0.00  0.00    -0.646 OA
HETATM   20  O           1     -22.026  -5.471  -2.036  0.00  0.00    -0.646 OA
ENDBRANCH  10  18
ENDBRANCH   8  10
ENDBRANCH   7   8
ENDBRANCH   6   7
ENDBRANCH   5   6
BRANCH   5  21
HETATM   21  C           1     -20.074  -4.700  -6.354  0.00  0.00     0.196 C 
HETATM   22  O           1     -19.864  -4.401  -5.158  0.00  0.00    -0.646 OA
HETATM   23  O           1     -19.236  -4.399  -7.231  0.00  0.00    -0.646 OA
ENDBRANCH   5  21
ENDBRANCH   2   5
BRANCH   3  24
HETATM   24  C           1     -22.701  -4.555 -10.212  0.00  0.00     0.274 C 
BRANCH  24  25
HETATM   25  C           1     -23.017  -3.125 -10.631  0.00  0.00     0.044 C 
BRANCH  25  26
HETATM   26  C           1     -22.198  -2.765 -11.865  0.00  0.00     0.023 C 
BRANCH  26  27
HETATM   27  C           1     -22.997  -3.092 -13.120  0.00  0.00     0.138 C 
BRANCH  27  28
HETATM   28  N           1     -23.838  -1.941 -13.479  0.00  0.00    -0.227 N 
HETATM   29  H           1     -24.532  -1.562 -12.789  0.00  0.00     0.177 HD
HETATM   30  C           1     -23.723  -1.406 -14.621  0.00  0.00     0.665 C 
HETATM   31  N           1     -24.447  -0.415 -14.931  0.00  0.00    -0.235 N 
HETATM   32  N           1     -22.863  -1.875 -15.474  0.00  0.00    -0.235 N 
HETATM   33  H           1     -24.352   0.029 -15.877  0.00  0.00     0.174 HD
HETATM   34  H           1     -25.143  -0.036 -14.240  0.00  0.00     0.174 HD
HETATM   35  H           1     -22.265  -2.693 -15.219  0.00  0.00     0.174 HD
HETATM   36  H           1     -22.768  -1.433 -16.417  0.00  0.00     0.174 HD
ENDBRANCH  27  28
ENDBRANCH  26  27
ENDBRANCH  25  26
ENDBRANCH  24  25
BRANCH  24  37
HETATM   37  N           1     -23.833  -5.455 -10.614  0.00  0.00    -0.067 N 
HETATM   38  H           1     -24.732  -4.925 -10.568  0.00  0.00     0.275 HD
HETATM   39  H           1     -23.677  -5.793 -11.591  0.00  0.00     0.275 HD
HETATM   40  H           1     -23.876  -6.270  -9.964  0.00  0.00     0.275 HD
ENDBRANCH  24  37
ENDBRANCH   3  24
TORSDOF 17
ENDMDL
MODEL 5
REMARK VINA RESULT:      -6.6     14.528     16.644
REMARK  17 active torsions:
REMARK  status: ('A' for Active; 'I' for Inactive)
REMARK    1  A    between atoms: C_2  and  C_12 
REMARK    2  A    between atoms: C_2  and  C_3 
REMARK    3  A    between atoms: C_2  and  N_7 
REMARK    4  A    between atoms: C_6  and  N_7 
REMARK    5  A    between atoms: C_6  and  C_22 
REMARK    6  A    between atoms: N_9  and  C_10 
REMARK    7  A    between atoms: C_10  and  C_11 
REMARK    8  A    between atoms: C_11  and  C_12 
REMARK    9  A    between atoms: C_13  and  C_30 
REMARK   10  A    between atoms: C_13  and  C_20 
REMARK       I    between atoms: N_16  and  C_17 
REMARK       I    between atoms: C_17  and  N_18 
REMARK   11  A    between atoms: N_18  and  C_19 
REMARK   12  A    between atoms: C_19  and  C_20 
REMARK   13  A    between atoms: C_22  and  C_23 
REMARK   14  A    between atoms: C_23  and  C_24 
REMARK   15  A    between atoms: C_23  and  N_27 
REMARK       I    between atoms: N_27  and  C_28 
REMARK   16  A    between atoms: C_28  and  C_30 
REMARK   17  A    between atoms: C_30  and  N_36 
ROOT
HETATM    1  H           1     -22.403  -6.675  -6.393  0.00  0.00     0.163 HD
HETATM    2  N           1     -21.555  -6.247  -6.045  0.00  0.00    -0.345 N 
HETATM    3  C           1     -20.982  -5.208  -6.729  0.00  0.00     0.249 C 
HETATM    4  O           1     -19.970  -4.697  -6.314  0.00  0.00    -0.271 OA
ENDROOT
BRANCH   2   5
HETATM    5  C           1     -20.945  -6.734  -4.824  0.00  0.00     0.187 C 
BRANCH   5   6
HETATM    6  C           1     -21.975  -6.713  -3.701  0.00  0.00     0.066 C 
BRANCH   6   7
HETATM    7  C           1     -21.292  -6.338  -2.392  0.00  0.00     0.273 C 
BRANCH   7   8
HETATM    8  N           1     -20.838  -7.530  -1.729  0.00  0.00     0.098 N 
HETATM    9  H           1     -20.304  -7.274  -0.897  0.00  0.00     0.317 HD
BRANCH   8  10
HETATM   10  C           1     -22.000  -8.283  -1.340  0.00  0.00     0.320 C 
BRANCH  10  11
HETATM   11  C           1     -21.699  -9.772  -1.453  0.00  0.00     0.048 C 
BRANCH  11  12
HETATM   12  C           1     -22.907 -10.572  -0.984  0.00  0.00     0.030 C 
BRANCH  12  13
HETATM   13  C           1     -22.458 -11.642   0.002  0.00  0.00     0.230 C 
BRANCH  13  14
HETATM   14  N           1     -21.143 -11.246   0.605  0.00  0.00    -0.079 N 
HETATM   15  H           1     -21.134 -11.499   1.619  0.00  0.00     0.274 HD
HETATM   16  H           1     -20.369 -11.750   0.114  0.00  0.00     0.274 HD
HETATM   17  H           1     -21.009 -10.215   0.502  0.00  0.00     0.274 HD
ENDBRANCH  13  14
ENDBRANCH  12  13
ENDBRANCH  11  12
ENDBRANCH  10  11
BRANCH  10  18
HETATM   18  C           1     -22.361  -7.950   0.087  0.00  0.00     0.207 C 
HETATM   19  O           1     -23.492  -7.489   0.354  0.00  0.00    -0.646 OA
HETATM   20  O           1     -21.529  -8.132   1.001  0.00  0.00    -0.646 OA
ENDBRANCH  10  18
ENDBRANCH   8  10
ENDBRANCH   7   8
ENDBRANCH   6   7
ENDBRANCH   5   6
BRANCH   5  21
HETATM   21  C           1     -20.457  -8.146  -5.032  0.00  0.00     0.196 C 
HETATM   22  O           1     -21.051  -8.900  -5.834  0.00  0.00    -0.646 OA
HETATM   23  O           1     -19.460  -8.563  -4.404  0.00  0.00    -0.646 OA
ENDBRANCH   5  21
ENDBRANCH   2   5
BRANCH   3  24
HETATM   24  C           1     -21.617  -4.702  -8.001  0.00  0.00     0.274 C 
BRANCH  24  25
HETATM   25  C           1     -20.580  -4.691  -9.117  0.00  0.00     0.044 C 
BRANCH  25  26
HETATM   26  C           1     -21.015  -3.716 -10.204  0.00  0.00     0.023 C 
BRANCH  26  27
HETATM   27  C           1     -22.132  -4.339 -11.031  0.00  0.00     0.138 C 
BRANCH  27  28
HETATM   28  N           1     -21.923  -4.028 -12.452  0.00  0.00    -0.227 N 
HETATM   29  H           1     -21.141  -4.487 -12.980  0.00  0.00     0.177 HD
HETATM   30  C           1     -22.687  -3.206 -13.038  0.00  0.00     0.665 C 
HETATM   31  N           1     -22.507  -2.937 -14.262  0.00  0.00    -0.235 N 
HETATM   32  N           1     -23.655  -2.638 -12.383  0.00  0.00    -0.235 N 
HETATM   33  H           1     -23.139  -2.256 -14.748  0.00  0.00     0.174 HD
HETATM   34  H           1     -21.723  -3.396 -14.791  0.00  0.00     0.174 HD
HETATM   35  H           1     -23.804  -2.860 -11.373  0.00  0.00     0.174 HD
HETATM   36  H           1     -24.286  -1.959 -12.868  0.00  0.00     0.174 HD
ENDBRANCH  27  28
ENDBRANCH  26  27
ENDBRANCH  25  26
ENDBRANCH  24  25
BRANCH  24  37
HETATM   37  N           1     -22.131  -3.309  -7.783  0.00  0.00    -0.067 N 
HETATM   38  H           1     -21.504  -2.627  -8.266  0.00  0.00     0.275 HD
HETATM   39  H           1     -23.097  -3.230  -8.172  0.00  0.00     0.275 HD
HETATM   40  H           1     -22.148  -3.101  -6.759  0.00  0.00     0.275 HD
ENDBRANCH  24  37
ENDBRANCH   3  24
TORSDOF 17
ENDMDL
MODEL 6
REMARK VINA RESULT:      -6.5     13.448     15.319
REMARK  17 active torsions:
REMARK  status: ('A' for Active; 'I' for Inactive)
REMARK    1  A    between atoms: C_2  and  C_12 
REMARK    2  A    between atoms: C_2  and  C_3 
REMARK    3  A    between atoms: C_2  and  N_7 
REMARK    4  A    between atoms: C_6  and  N_7 
REMARK    5  A    between atoms: C_6  and  C_22 
REMARK    6  A    between atoms: N_9  and  C_10 
REMARK    7  A    between atoms: C_10  and  C_11 
REMARK    8  A    between atoms: C_11  and  C_12 
REMARK    9  A    between atoms: C_13  and  C_30 
REMARK   10  A    between atoms: C_13  and  C_20 
REMARK       I    between atoms: N_16  and  C_17 
REMARK       I    between atoms: C_17  and  N_18 
REMARK   11  A    between atoms: N_18  and  C_19 
REMARK   12  A    between atoms: C_19  and  C_20 
REMARK   13  A    between atoms: C_22  and  C_23 
REMARK   14  A    between atoms: C_23  and  C_24 
REMARK   15  A    between atoms: C_23  and  N_27 
REMARK       I    between atoms: N_27  and  C_28 
REMARK   16  A    between atoms: C_28  and  C_30 
REMARK   17  A    between atoms: C_30  and  N_36 
ROOT
HETATM    1  H           1     -20.772  -5.692  -8.826  0.00  0.00     0.163 HD
HETATM    2  N           1     -21.444  -5.201  -8.250  0.00  0.00    -0.345 N 
HETATM    3  C           1     -22.495  -4.544  -8.833  0.00  0.00     0.249 C 
HETATM    4  O           1     -23.297  -3.958  -8.147  0.00  0.00    -0.271 OA
ENDROOT
BRANCH   2   5
HETATM    5  C           1     -21.297  -5.194  -6.808  0.00  0.00     0.187 C 
BRANCH   5   6
HETATM    6  C           1     -21.466  -6.610  -6.274  0.00  0.00     0.066 C 
BRANCH   6   7
HETATM    7  C           1     -22.389  -6.590  -5.063  0.00  0.00     0.273 C 
BRANCH   7   8
HETATM    8  N           1     -22.126  -7.740  -4.241  0.00  0.00     0.098 N 
HETATM    9  H           1     -22.043  -8.568  -4.831  0.00  0.00     0.317 HD
BRANCH   8  10
HETATM   10  C           1     -20.883  -7.513  -3.555  0.00  0.00     0.320 C 
BRANCH  10  11
HETATM   11  C           1     -21.126  -6.611  -2.352  0.00  0.00     0.048 C 
BRANCH  11  12
HETATM   12  C           1     -22.437  -7.000  -1.682  0.00  0.00     0.030 C 
BRANCH  12  13
HETATM   13  C           1     -22.177  -7.358  -0.224  0.00  0.00     0.230 C 
BRANCH  13  14
HETATM   14  N           1     -23.393  -8.019   0.353  0.00  0.00    -0.079 N 
HETATM   15  H           1     -23.624  -8.872  -0.205  0.00  0.00     0.274 HD
HETATM   16  H           1     -23.203  -8.293   1.345  0.00  0.00     0.274 HD
HETATM   17  H           1     -24.198  -7.354   0.324  0.00  0.00     0.274 HD
ENDBRANCH  13  14
ENDBRANCH  12  13
ENDBRANCH  11  12
ENDBRANCH  10  11
BRANCH  10  18
HETATM   18  C           1     -20.318  -8.832  -3.088  0.00  0.00     0.207 C 
HETATM   19  O           1     -19.309  -8.855  -2.350  0.00  0.00    -0.646 OA
HETATM   20  O           1     -20.858  -9.903  -3.440  0.00  0.00    -0.646 OA
ENDBRANCH  10  18
ENDBRANCH   8  10
ENDBRANCH   7   8
ENDBRANCH   6   7
ENDBRANCH   5   6
BRANCH   5  21
HETATM   21  C           1     -19.925  -4.680  -6.445  0.00  0.00     0.196 C 
HETATM   22  O           1     -19.068  -4.503  -7.339  0.00  0.00    -0.646 OA
HETATM   23  O           1     -19.644  -4.432  -5.253  0.00  0.00    -0.646 OA
ENDBRANCH   5  21
ENDBRANCH   2   5
BRANCH   3  24
HETATM   24  C           1     -22.649  -4.552 -10.334  0.00  0.00     0.274 C 
BRANCH  24  25
HETATM   25  C           1     -22.935  -3.137 -10.823  0.00  0.00     0.044 C 
BRANCH  25  26
HETATM   26  C           1     -22.112  -2.857 -12.075  0.00  0.00     0.023 C 
BRANCH  26  27
HETATM   27  C           1     -22.966  -3.101 -13.312  0.00  0.00     0.138 C 
BRANCH  27  28
HETATM   28  N           1     -23.844  -1.944 -13.537  0.00  0.00    -0.227 N 
HETATM   29  H           1     -24.525  -1.649 -12.794  0.00  0.00     0.177 HD
HETATM   30  C           1     -23.777  -1.301 -14.626  0.00  0.00     0.665 C 
HETATM   31  N           1     -24.533  -0.305 -14.820  0.00  0.00    -0.235 N 
HETATM   32  N           1     -22.933  -1.666 -15.544  0.00  0.00    -0.235 N 
HETATM   33  H           1     -24.478   0.228 -15.723  0.00  0.00     0.174 HD
HETATM   34  H           1     -25.216  -0.011 -14.078  0.00  0.00     0.174 HD
HETATM   35  H           1     -22.308  -2.489 -15.384  0.00  0.00     0.174 HD
HETATM   36  H           1     -22.877  -1.135 -16.444  0.00  0.00     0.174 HD
ENDBRANCH  27  28
ENDBRANCH  26  27
ENDBRANCH  25  26
ENDBRANCH  24  25
BRANCH  24  37
HETATM   37  N           1     -23.788  -5.451 -10.715  0.00  0.00    -0.067 N 
HETATM   38  H           1     -24.529  -5.406  -9.979  0.00  0.00     0.275 HD
HETATM   39  H           1     -24.186  -5.140 -11.630  0.00  0.00     0.275 HD
HETATM   40  H           1     -23.442  -6.433 -10.800  0.00  0.00     0.275 HD
ENDBRANCH  24  37
ENDBRANCH   3  24
TORSDOF 17
ENDMDL
MODEL 7
REMARK VINA RESULT:      -6.4     14.961     17.527
REMARK  17 active torsions:
REMARK  status: ('A' for Active; 'I' for Inactive)
REMARK    1  A    between atoms: C_2  and  C_12 
REMARK    2  A    between atoms: C_2  and  C_3 
REMARK    3  A    between atoms: C_2  and  N_7 
REMARK    4  A    between atoms: C_6  and  N_7 
REMARK    5  A    between atoms: C_6  and  C_22 
REMARK    6  A    between atoms: N_9  and  C_10 
REMARK    7  A    between atoms: C_10  and  C_11 
REMARK    8  A    between atoms: C_11  and  C_12 
REMARK    9  A    between atoms: C_13  and  C_30 
REMARK   10  A    between atoms: C_13  and  C_20 
REMARK       I    between atoms: N_16  and  C_17 
REMARK       I    between atoms: C_17  and  N_18 
REMARK   11  A    between atoms: N_18  and  C_19 
REMARK   12  A    between atoms: C_19  and  C_20 
REMARK   13  A    between atoms: C_22  and  C_23 
REMARK   14  A    between atoms: C_23  and  C_24 
REMARK   15  A    between atoms: C_23  and  N_27 
REMARK       I    between atoms: N_27  and  C_28 
REMARK   16  A    between atoms: C_28  and  C_30 
REMARK   17  A    between atoms: C_30  and  N_36 
ROOT
HETATM    1  H           1     -21.126  -7.979  -4.256  0.00  0.00     0.163 HD
HETATM    2  N           1     -20.375  -7.977  -4.933  0.00  0.00    -0.345 N 
HETATM    3  C           1     -20.340  -7.021  -5.914  0.00  0.00     0.249 C 
HETATM    4  O           1     -19.444  -7.018  -6.723  0.00  0.00    -0.271 OA
ENDROOT
BRANCH   2   5
HETATM    5  C           1     -19.335  -8.985  -4.868  0.00  0.00     0.187 C 
BRANCH   5   6
HETATM    6  C           1     -18.969  -9.241  -3.412  0.00  0.00     0.066 C 
BRANCH   6   7
HETATM    7  C           1     -20.165  -9.838  -2.683  0.00  0.00     0.273 C 
BRANCH   7   8
HETATM    8  N           1     -20.371  -9.139  -1.444  0.00  0.00     0.098 N 
HETATM    9  H           1     -19.811  -8.286  -1.438  0.00  0.00     0.317 HD
BRANCH   8  10
HETATM   10  C           1     -21.766  -8.797  -1.361  0.00  0.00     0.320 C 
BRANCH  10  11
HETATM   11  C           1     -22.325  -9.275  -0.028  0.00  0.00     0.048 C 
BRANCH  11  12
HETATM   12  C           1     -23.476 -10.241  -0.277  0.00  0.00     0.030 C 
BRANCH  12  13
HETATM   13  C           1     -22.965 -11.674  -0.194  0.00  0.00     0.230 C 
BRANCH  13  14
HETATM   14  N           1     -21.731 -11.716   0.657  0.00  0.00    -0.079 N 
HETATM   15  H           1     -22.001 -11.695   1.666  0.00  0.00     0.274 HD
HETATM   16  H           1     -21.200 -12.594   0.457  0.00  0.00     0.274 HD
HETATM   17  H           1     -21.130 -10.889   0.440  0.00  0.00     0.274 HD
ENDBRANCH  13  14
ENDBRANCH  12  13
ENDBRANCH  11  12
ENDBRANCH  10  11
BRANCH  10  18
HETATM   18  C           1     -21.923  -7.300  -1.466  0.00  0.00     0.207 C 
HETATM   19  O           1     -21.205  -6.650  -2.256  0.00  0.00    -0.646 OA
HETATM   20  O           1     -22.770  -6.710  -0.762  0.00  0.00    -0.646 OA
ENDBRANCH  10  18
ENDBRANCH   8  10
ENDBRANCH   7   8
ENDBRANCH   6   7
ENDBRANCH   5   6
BRANCH   5  21
HETATM   21  C           1     -19.835 -10.265  -5.493  0.00  0.00     0.196 C 
HETATM   22  O           1     -20.992 -10.319  -5.964  0.00  0.00    -0.646 OA
HETATM   23  O           1     -19.093 -11.270  -5.540  0.00  0.00    -0.646 OA
ENDBRANCH   5  21
ENDBRANCH   2   5
BRANCH   3  24
HETATM   24  C           1     -21.422  -5.972  -5.982  0.00  0.00     0.274 C 
BRANCH  24  25
HETATM   25  C           1     -20.792  -4.587  -5.913  0.00  0.00     0.044 C 
BRANCH  25  26
HETATM   26  C           1     -21.112  -3.820  -7.190  0.00  0.00     0.023 C 
BRANCH  26  27
HETATM   27  C           1     -22.414  -4.340  -7.784  0.00  0.00     0.138 C 
BRANCH  27  28
HETATM   28  N           1     -22.466  -4.009  -9.215  0.00  0.00    -0.227 N 
HETATM   29  H           1     -21.617  -4.146  -9.817  0.00  0.00     0.177 HD
HETATM   30  C           1     -23.536  -3.559  -9.722  0.00  0.00     0.665 C 
HETATM   31  N           1     -23.581  -3.273 -10.954  0.00  0.00    -0.235 N 
HETATM   32  N           1     -24.587  -3.390  -8.976  0.00  0.00    -0.235 N 
HETATM   33  H           1     -24.468  -2.901 -11.375  0.00  0.00     0.174 HD
HETATM   34  H           1     -22.731  -3.410 -11.557  0.00  0.00     0.174 HD
HETATM   35  H           1     -24.550  -3.626  -7.959  0.00  0.00     0.174 HD
HETATM   36  H           1     -25.470  -3.019  -9.395  0.00  0.00     0.174 HD
ENDBRANCH  27  28
ENDBRANCH  26  27
ENDBRANCH  25  26
ENDBRANCH  24  25
BRANCH  24  37
HETATM   37  N           1     -22.364  -6.151  -4.827  0.00  0.00    -0.067 N 
HETATM   38  H           1     -21.861  -5.953  -3.933  0.00  0.00     0.275 HD
HETATM   39  H           1     -23.167  -5.489  -4.929  0.00  0.00     0.275 HD
HETATM   40  H           1     -22.719  -7.133  -4.817  0.00  0.00     0.275 HD
ENDBRANCH  24  37
ENDBRANCH   3  24
TORSDOF 17
ENDMDL
MODEL 8
REMARK VINA RESULT:      -6.3     14.722     17.169
REMARK  17 active torsions:
REMARK  status: ('A' for Active; 'I' for Inactive)
REMARK    1  A    between atoms: C_2  and  C_12 
REMARK    2  A    between atoms: C_2  and  C_3 
REMARK    3  A    between atoms: C_2  and  N_7 
REMARK    4  A    between atoms: C_6  and  N_7 
REMARK    5  A    between atoms: C_6  and  C_22 
REMARK    6  A    between atoms: N_9  and  C_10 
REMARK    7  A    between atoms: C_10  and  C_11 
REMARK    8  A    between atoms: C_11  and  C_12 
REMARK    9  A    between atoms: C_13  and  C_30 
REMARK   10  A    between atoms: C_13  and  C_20 
REMARK       I    between atoms: N_16  and  C_17 
REMARK       I    between atoms: C_17  and  N_18 
REMARK   11  A    between atoms: N_18  and  C_19 
REMARK   12  A    between atoms: C_19  and  C_20 
REMARK   13  A    between atoms: C_22  and  C_23 
REMARK   14  A    between atoms: C_23  and  C_24 
REMARK   15  A    between atoms: C_23  and  N_27 
REMARK       I    between atoms: N_27  and  C_28 
REMARK   16  A    between atoms: C_28  and  C_30 
REMARK   17  A    between atoms: C_30  and  N_36 
ROOT
HETATM    1  H           1     -19.246  -7.313  -6.995  0.00  0.00     0.163 HD
HETATM    2  N           1     -19.668  -7.094  -6.102  0.00  0.00    -0.345 N 
HETATM    3  C           1     -20.097  -5.819  -5.842  0.00  0.00     0.249 C 
HETATM    4  O           1     -20.601  -5.557  -4.777  0.00  0.00    -0.271 OA
ENDROOT
BRANCH   2   5
HETATM    5  C           1     -19.820  -8.127  -5.097  0.00  0.00     0.187 C 
BRANCH   5   6
HETATM    6  C           1     -21.179  -8.795  -5.259  0.00  0.00     0.066 C 
BRANCH   6   7
HETATM    7  C           1     -21.750  -9.127  -3.886  0.00  0.00     0.273 C 
BRANCH   7   8
HETATM    8  N           1     -21.228  -8.205  -2.914  0.00  0.00     0.098 N 
HETATM    9  H           1     -21.446  -7.250  -3.201  0.00  0.00     0.317 HD
BRANCH   8  10
HETATM   10  C           1     -21.866  -8.487  -1.657  0.00  0.00     0.320 C 
BRANCH  10  11
HETATM   11  C           1     -20.854  -9.108  -0.703  0.00  0.00     0.048 C 
BRANCH  11  12
HETATM   12  C           1     -21.517 -10.236   0.076  0.00  0.00     0.030 C 
BRANCH  12  13
HETATM   13  C           1     -22.697 -10.779  -0.718  0.00  0.00     0.230 C 
BRANCH  13  14
HETATM   14  N           1     -23.975 -10.437  -0.012  0.00  0.00    -0.079 N 
HETATM   15  H           1     -24.782 -10.587  -0.659  0.00  0.00     0.274 HD
HETATM   16  H           1     -24.083 -11.049   0.828  0.00  0.00     0.274 HD
HETATM   17  H           1     -23.951  -9.436   0.287  0.00  0.00     0.274 HD
ENDBRANCH  13  14
ENDBRANCH  12  13
ENDBRANCH  11  12
ENDBRANCH  10  11
BRANCH  10  18
HETATM   18  C           1     -22.396  -7.205  -1.064  0.00  0.00     0.207 C 
HETATM   19  O           1     -23.100  -7.238  -0.030  0.00  0.00    -0.646 OA
HETATM   20  O           1     -22.132  -6.110  -1.605  0.00  0.00    -0.646 OA
ENDBRANCH  10  18
ENDBRANCH   8  10
ENDBRANCH   7   8
ENDBRANCH   6   7
ENDBRANCH   5   6
BRANCH   5  21
HETATM   21  C           1     -18.730  -9.158  -5.266  0.00  0.00     0.196 C 
HETATM   22  O           1     -18.507  -9.652  -6.393  0.00  0.00    -0.646 OA
HETATM   23  O           1     -18.051  -9.518  -4.281  0.00  0.00    -0.646 OA
ENDBRANCH   5  21
ENDBRANCH   2   5
BRANCH   3  24
HETATM   24  C           1     -19.939  -4.743  -6.888  0.00  0.00     0.274 C 
BRANCH  24  25
HETATM   25  C           1     -20.708  -5.137  -8.143  0.00  0.00     0.044 C 
BRANCH  25  26
HETATM   26  C           1     -22.197  -4.899  -7.922  0.00  0.00     0.023 C 
BRANCH  26  27
HETATM   27  C           1     -22.671  -3.768  -8.825  0.00  0.00     0.138 C 
BRANCH  27  28
HETATM   28  N           1     -24.130  -3.629  -8.711  0.00  0.00    -0.227 N 
HETATM   29  H           1     -24.590  -3.680  -7.769  0.00  0.00     0.177 HD
HETATM   30  C           1     -24.831  -3.448  -9.750  0.00  0.00     0.665 C 
HETATM   31  N           1     -26.087  -3.329  -9.653  0.00  0.00    -0.235 N 
HETATM   32  N           1     -24.260  -3.386 -10.916  0.00  0.00    -0.235 N 
HETATM   33  H           1     -26.669  -3.179 -10.513  0.00  0.00     0.174 HD
HETATM   34  H           1     -26.548  -3.380  -8.710  0.00  0.00     0.174 HD
HETATM   35  H           1     -23.223  -3.484 -10.997  0.00  0.00     0.174 HD
HETATM   36  H           1     -24.839  -3.236 -11.774  0.00  0.00     0.174 HD
ENDBRANCH  27  28
ENDBRANCH  26  27
ENDBRANCH  25  26
ENDBRANCH  24  25
BRANCH  24  37
HETATM   37  N           1     -18.486  -4.582  -7.223  0.00  0.00    -0.067 N 
HETATM   38  H           1     -18.328  -3.638  -7.643  0.00  0.00     0.275 HD
HETATM   39  H           1     -17.916  -4.675  -6.351  0.00  0.00     0.275 HD
HETATM   40  H           1     -18.202  -5.319  -7.906  0.00  0.00     0.275 HD
ENDBRANCH  24  37
ENDBRANCH   3  24
TORSDOF 17
ENDMDL
MODEL 9
REMARK VINA RESULT:      -6.2     15.467     18.151
REMARK  17 active torsions:
REMARK  status: ('A' for Active; 'I' for Inactive)
REMARK    1  A    between atoms: C_2  and  C_12 
REMARK    2  A    between atoms: C_2  and  C_3 
REMARK    3  A    between atoms: C_2  and  N_7 
REMARK    4  A    between atoms: C_6  and  N_7 
REMARK    5  A    between atoms: C_6  and  C_22 
REMARK    6  A    between atoms: N_9  and  C_10 
REMARK    7  A    between atoms: C_10  and  C_11 
REMARK    8  A    between atoms: C_11  and  C_12 
REMARK    9  A    between atoms: C_13  and  C_30 
REMARK   10  A    between atoms: C_13  and  C_20 
REMARK       I    between atoms: N_16  and  C_17 
REMARK       I    between atoms: C_17  and  N_18 
REMARK   11  A    between atoms: N_18  and  C_19 
REMARK   12  A    between atoms: C_19  and  C_20 
REMARK   13  A    between atoms: C_22  and  C_23 
REMARK   14  A    between atoms: C_23  and  C_24 
REMARK   15  A    between atoms: C_23  and  N_27 
REMARK       I    between atoms: N_27  and  C_28 
REMARK   16  A    between atoms: C_28  and  C_30 
REMARK   17  A    between atoms: C_30  and  N_36 
ROOT
HETATM    1  H           1     -21.036  -8.940  -6.396  0.00  0.00     0.163 HD
HETATM    2  N           1     -20.863  -8.871  -5.401  0.00  0.00    -0.345 N 
HETATM    3  C           1     -21.076  -7.686  -4.749  0.00  0.00     0.249 C 
HETATM    4  O           1     -20.870  -7.603  -3.562  0.00  0.00    -0.271 OA
ENDROOT
BRANCH   2   5
HETATM    5  C           1     -20.391 -10.027  -4.665  0.00  0.00     0.187 C 
BRANCH   5   6
HETATM    6  C           1     -21.577 -10.905  -4.285  0.00  0.00     0.066 C 
BRANCH   6   7
HETATM    7  C           1     -21.591 -11.117  -2.777  0.00  0.00     0.273 C 
BRANCH   7   8
HETATM    8  N           1     -20.627 -10.246  -2.161  0.00  0.00     0.098 N 
HETATM    9  H           1     -20.580  -9.370  -2.682  0.00  0.00     0.317 HD
BRANCH   8  10
HETATM   10  C           1     -21.070  -9.983  -0.819  0.00  0.00     0.320 C 
BRANCH  10  11
HETATM   11  C           1     -22.583  -9.805  -0.810  0.00  0.00     0.048 C 
BRANCH  11  12
HETATM   12  C           1     -22.955  -8.666   0.130  0.00  0.00     0.030 C 
BRANCH  12  13
HETATM   13  C           1     -22.005  -7.496  -0.089  0.00  0.00     0.230 C 
BRANCH  13  14
HETATM   14  N           1     -22.457  -6.699  -1.277  0.00  0.00    -0.079 N 
HETATM   15  H           1     -23.129  -7.266  -1.841  0.00  0.00     0.274 HD
HETATM   16  H           1     -22.927  -5.824  -0.951  0.00  0.00     0.274 HD
HETATM   17  H           1     -21.630  -6.452  -1.865  0.00  0.00     0.274 HD
ENDBRANCH  13  14
ENDBRANCH  12  13
ENDBRANCH  11  12
ENDBRANCH  10  11
BRANCH  10  18
HETATM   18  C           1     -20.695 -11.143   0.070  0.00  0.00     0.207 C 
HETATM   19  O           1     -19.492 -11.446   0.228  0.00  0.00    -0.646 OA
HETATM   20  O           1     -21.585 -11.802   0.648  0.00  0.00    -0.646 OA
ENDBRANCH  10  18
ENDBRANCH   8  10
ENDBRANCH   7   8
ENDBRANCH   6   7
ENDBRANCH   5   6
BRANCH   5  21
HETATM   21  C           1     -19.437 -10.818  -5.526  0.00  0.00     0.196 C 
HETATM   22  O           1     -19.801 -11.225  -6.651  0.00  0.00    -0.646 OA
HETATM   23  O           1     -18.282 -11.066  -5.116  0.00  0.00    -0.646 OA
ENDBRANCH   5  21
ENDBRANCH   2   5
BRANCH   3  24
HETATM   24  C           1     -21.567  -6.482  -5.515  0.00  0.00     0.274 C 
BRANCH  24  25
HETATM   25  C           1     -20.627  -5.308  -5.274  0.00  0.00     0.044 C 
BRANCH  25  26
HETATM   26  C           1     -20.128  -4.774  -6.611  0.00  0.00     0.023 C 
BRANCH  26  27
HETATM   27  C           1     -21.145  -3.796  -7.182  0.00  0.00     0.138 C 
BRANCH  27  28
HETATM   28  N           1     -21.548  -4.235  -8.525  0.00  0.00    -0.227 N 
HETATM   29  H           1     -20.818  -4.439  -9.252  0.00  0.00     0.177 HD
HETATM   30  C           1     -22.775  -4.369  -8.806  0.00  0.00     0.665 C 
HETATM   31  N           1     -23.123  -4.747  -9.963  0.00  0.00    -0.235 N 
HETATM   32  N           1     -23.678  -4.117  -7.905  0.00  0.00    -0.235 N 
HETATM   33  H           1     -24.140  -4.858 -10.196  0.00  0.00     0.174 HD
HETATM   34  H           1     -22.392  -4.950 -10.690  0.00  0.00     0.174 HD
HETATM   35  H           1     -23.392  -3.805  -6.950  0.00  0.00     0.174 HD
HETATM   36  H           1     -24.692  -4.228  -8.137  0.00  0.00     0.174 HD
ENDBRANCH  27  28
ENDBRANCH  26  27
ENDBRANCH  25  26
ENDBRANCH  24  25
BRANCH  24  37
HETATM   37  N           1     -22.947  -6.122  -5.048  0.00  0.00    -0.067 N 
HETATM   38  H           1     -22.915  -5.859  -4.037  0.00  0.00     0.275 HD
HETATM   39  H           1     -23.303  -5.314  -5.607  0.00  0.00     0.275 HD
HETATM   40  H           1     -23.581  -6.942  -5.175  0.00  0.00     0.275 HD
ENDBRANCH  24  37
ENDBRANCH   3  24
TORSDOF 17
ENDMDL
