MODEL 1
REMARK VINA RESULT:      -5.0      0.000      0.000
REMARK  8 active torsions:
REMARK  status: ('A' for Active; 'I' for Inactive)
REMARK    1  A    between atoms: O_4  and  C_5 
REMARK    2  A    between atoms: C_5  and  C_6 
REMARK    3  A    between atoms: C_6  and  C_12 
REMARK    4  A    between atoms: C_6  and  N_10 
REMARK    5  A    between atoms: C_9  and  C_19 
REMARK    6  A    between atoms: N_11  and  C_19 
REMARK       I    between atoms: N_11  and  C_12 
REMARK    7  A    between atoms: S_15  and  C_16 
REMARK    8  A    between atoms: C_16  and  C_19 
ROOT
HETATM    1  O           1     -34.494   0.446 -14.142  0.00  0.00    -0.271 OA
HETATM    2  N           1     -35.963  -0.989 -13.264  0.00  0.00    -0.344 N 
HETATM    3  C           1     -35.559  -0.115 -14.237  0.00  0.00     0.251 C 
HETATM    4  H           1     -36.854  -1.460 -13.345  0.00  0.00     0.163 HD
ENDROOT
BRANCH   3   5
HETATM    5  C           1     -36.445   0.146 -15.431  0.00  0.00     0.297 C 
BRANCH   5   6
HETATM    6  C           1     -36.098  -0.831 -16.546  0.00  0.00     0.206 C 
BRANCH   6   7
HETATM    7  O           1     -35.219  -1.808 -16.056  0.00  0.00    -0.398 OA
HETATM    8  H           1     -35.101  -2.440 -16.744  0.00  0.00     0.209 HD
ENDBRANCH   6   7
ENDBRANCH   5   6
BRANCH   5   9
HETATM    9  N           1     -36.231   1.550 -15.914  0.00  0.00    -0.064 N 
HETATM   10  H           1     -35.706   1.532 -16.817  0.00  0.00     0.275 HD
HETATM   11  H           1     -37.157   2.012 -16.059  0.00  0.00     0.275 HD
HETATM   12  H           1     -35.684   2.084 -15.202  0.00  0.00     0.275 HD
ENDBRANCH   5   9
ENDBRANCH   3   5
BRANCH   2  13
HETATM   13  C           1     -35.111  -1.239 -12.117  0.00  0.00     0.194 C 
BRANCH  13  14
HETATM   14  C           1     -34.318  -2.503 -12.346  0.00  0.00     0.197 C 
HETATM   15  O           1     -33.517  -2.904 -11.476  0.00  0.00    -0.646 OA
HETATM   16  O           1     -34.463  -3.147 -13.408  0.00  0.00    -0.646 OA
ENDBRANCH  13  14
BRANCH  13  17
HETATM   17  C           1     -35.973  -1.399 -10.871  0.00  0.00     0.106 C 
BRANCH  17  18
HETATM   18  S           1     -37.111   0.008 -10.736  0.00  0.00    -0.180 SA
HETATM   19  H           1     -37.467   0.025 -12.032  0.00  0.00     0.101 HD
ENDBRANCH  17  18
ENDBRANCH  13  17
ENDBRANCH   2  13
TORSDOF 8
ENDMDL
MODEL 2
REMARK VINA RESULT:      -4.9     11.457     12.436
REMARK  8 active torsions:
REMARK  status: ('A' for Active; 'I' for Inactive)
REMARK    1  A    between atoms: O_4  and  C_5 
REMARK    2  A    between atoms: C_5  and  C_6 
REMARK    3  A    between atoms: C_6  and  C_12 
REMARK    4  A    between atoms: C_6  and  N_10 
REMARK    5  A    between atoms: C_9  and  C_19 
REMARK    6  A    between atoms: N_11  and  C_19 
REMARK       I    between atoms: N_11  and  C_12 
REMARK    7  A    between atoms: S_15  and  C_16 
REMARK    8  A    between atoms: C_16  and  C_19 
ROOT
HETATM    1  O           1     -28.459  -5.333 -19.107  0.00  0.00    -0.271 OA
HETATM    2  N           1     -27.217  -7.189 -19.156  0.00  0.00    -0.344 N 
HETATM    3  C           1     -28.108  -6.345 -18.549  0.00  0.00     0.251 C 
HETATM    4  H           1     -26.925  -8.036 -18.688  0.00  0.00     0.163 HD
ENDROOT
BRANCH   3   5
HETATM    5  C           1     -28.653  -6.680 -17.182  0.00  0.00     0.297 C 
BRANCH   5   6
HETATM    6  C           1     -27.542  -6.561 -16.147  0.00  0.00     0.206 C 
BRANCH   6   7
HETATM    7  O           1     -26.508  -5.765 -16.660  0.00  0.00    -0.398 OA
HETATM    8  H           1     -26.398  -6.008 -17.563  0.00  0.00     0.209 HD
ENDBRANCH   6   7
ENDBRANCH   5   6
BRANCH   5   9
HETATM    9  N           1     -29.183  -8.084 -17.186  0.00  0.00    -0.064 N 
HETATM   10  H           1     -30.117  -8.106 -16.719  0.00  0.00     0.275 HD
HETATM   11  H           1     -29.278  -8.417 -18.172  0.00  0.00     0.275 HD
HETATM   12  H           1     -28.521  -8.707 -16.671  0.00  0.00     0.275 HD
ENDBRANCH   5   9
ENDBRANCH   3   5
BRANCH   2  13
HETATM   13  C           1     -26.694  -6.866 -20.469  0.00  0.00     0.194 C 
BRANCH  13  14
HETATM   14  C           1     -26.597  -8.125 -21.295  0.00  0.00     0.197 C 
HETATM   15  O           1     -27.586  -8.880 -21.403  0.00  0.00    -0.646 OA
HETATM   16  O           1     -25.525  -8.413 -21.872  0.00  0.00    -0.646 OA
ENDBRANCH  13  14
BRANCH  13  17
HETATM   17  C           1     -25.310  -6.245 -20.325  0.00  0.00     0.106 C 
BRANCH  17  18
HETATM   18  S           1     -24.379  -7.130 -19.042  0.00  0.00    -0.180 SA
HETATM   19  H           1     -23.162  -6.742 -19.460  0.00  0.00     0.101 HD
ENDBRANCH  17  18
ENDBRANCH  13  17
ENDBRANCH   2  13
TORSDOF 8
ENDMDL
MODEL 3
REMARK VINA RESULT:      -4.7     13.371     15.255
REMARK  8 active torsions:
REMARK  status: ('A' for Active; 'I' for Inactive)
REMARK    1  A    between atoms: O_4  and  C_5 
REMARK    2  A    between atoms: C_5  and  C_6 
REMARK    3  A    between atoms: C_6  and  C_12 
REMARK    4  A    between atoms: C_6  and  N_10 
REMARK    5  A    between atoms: C_9  and  C_19 
REMARK    6  A    between atoms: N_11  and  C_19 
REMARK       I    between atoms: N_11  and  C_12 
REMARK    7  A    between atoms: S_15  and  C_16 
REMARK    8  A    between atoms: C_16  and  C_19 
ROOT
HETATM    1  O           1     -21.081  -3.317  -7.119  0.00  0.00    -0.271 OA
HETATM    2  N           1     -22.557  -4.701  -8.064  0.00  0.00    -0.344 N 
HETATM    3  C           1     -21.677  -4.367  -7.070  0.00  0.00     0.251 C 
HETATM    4  H           1     -23.057  -5.579  -8.022  0.00  0.00     0.163 HD
ENDROOT
BRANCH   3   5
HETATM    5  C           1     -21.451  -5.309  -5.913  0.00  0.00     0.297 C 
BRANCH   5   6
HETATM    6  C           1     -20.524  -6.436  -6.348  0.00  0.00     0.206 C 
BRANCH   6   7
HETATM    7  O           1     -19.977  -6.134  -7.603  0.00  0.00    -0.398 OA
HETATM    8  H           1     -19.599  -6.930  -7.936  0.00  0.00     0.209 HD
ENDBRANCH   6   7
ENDBRANCH   5   6
BRANCH   5   9
HETATM    9  N           1     -22.765  -5.885  -5.475  0.00  0.00    -0.064 N 
HETATM   10  H           1     -23.534  -5.213  -5.698  0.00  0.00     0.275 HD
HETATM   11  H           1     -22.934  -6.787  -5.977  0.00  0.00     0.275 HD
HETATM   12  H           1     -22.743  -6.060  -4.445  0.00  0.00     0.275 HD
ENDBRANCH   5   9
ENDBRANCH   3   5
BRANCH   2  13
HETATM   13  C           1     -22.773  -3.795  -9.175  0.00  0.00     0.194 C 
BRANCH  13  14
HETATM   14  C           1     -24.226  -3.836  -9.583  0.00  0.00     0.197 C 
HETATM   15  O           1     -24.932  -2.810  -9.485  0.00  0.00    -0.646 OA
HETATM   16  O           1     -24.722  -4.898 -10.018  0.00  0.00    -0.646 OA
ENDBRANCH  13  14
BRANCH  13  17
HETATM   17  C           1     -21.903  -4.219 -10.351  0.00  0.00     0.106 C 
BRANCH  17  18
HETATM   18  S           1     -22.074  -3.014 -11.697  0.00  0.00    -0.180 SA
HETATM   19  H           1     -23.121  -3.612 -12.290  0.00  0.00     0.101 HD
ENDBRANCH  17  18
ENDBRANCH  13  17
ENDBRANCH   2  13
TORSDOF 8
ENDMDL
MODEL 4
REMARK VINA RESULT:      -4.5     10.606     11.274
REMARK  8 active torsions:
REMARK  status: ('A' for Active; 'I' for Inactive)
REMARK    1  A    between atoms: O_4  and  C_5 
REMARK    2  A    between atoms: C_5  and  C_6 
REMARK    3  A    between atoms: C_6  and  C_12 
REMARK    4  A    between atoms: C_6  and  N_10 
REMARK    5  A    between atoms: C_9  and  C_19 
REMARK    6  A    between atoms: N_11  and  C_19 
REMARK       I    between atoms: N_11  and  C_12 
REMARK    7  A    between atoms: S_15  and  C_16 
REMARK    8  A    between atoms: C_16  and  C_19 
ROOT
HETATM    1  O           1     -27.510  -5.839 -19.722  0.00  0.00    -0.271 OA
HETATM    2  N           1     -26.999  -6.759 -17.752  0.00  0.00    -0.344 N 
HETATM    3  C           1     -26.690  -6.403 -19.037  0.00  0.00     0.251 C 
HETATM    4  H           1     -26.312  -7.231 -17.179  0.00  0.00     0.163 HD
ENDROOT
BRANCH   3   5
HETATM    5  C           1     -25.324  -6.714 -19.598  0.00  0.00     0.297 C 
BRANCH   5   6
HETATM    6  C           1     -25.467  -7.633 -20.804  0.00  0.00     0.206 C 
BRANCH   6   7
HETATM    7  O           1     -26.707  -8.285 -20.752  0.00  0.00    -0.398 OA
HETATM    8  H           1     -27.177  -7.921 -20.022  0.00  0.00     0.209 HD
ENDBRANCH   6   7
ENDBRANCH   5   6
BRANCH   5   9
HETATM    9  N           1     -24.495  -7.393 -18.549  0.00  0.00    -0.064 N 
HETATM   10  H           1     -23.491  -7.134 -18.675  0.00  0.00     0.275 HD
HETATM   11  H           1     -24.817  -7.089 -17.602  0.00  0.00     0.275 HD
HETATM   12  H           1     -24.602  -8.429 -18.637  0.00  0.00     0.275 HD
ENDBRANCH   5   9
ENDBRANCH   3   5
BRANCH   2  13
HETATM   13  C           1     -28.312  -6.460 -17.213  0.00  0.00     0.194 C 
BRANCH  13  14
HETATM   14  C           1     -28.256  -6.494 -15.705  0.00  0.00     0.197 C 
HETATM   15  O           1     -27.816  -7.505 -15.118  0.00  0.00    -0.646 OA
HETATM   16  O           1     -28.651  -5.509 -15.044  0.00  0.00    -0.646 OA
ENDBRANCH  13  14
BRANCH  13  17
HETATM   17  C           1     -29.311  -7.498 -17.708  0.00  0.00     0.106 C 
BRANCH  17  18
HETATM   18  S           1     -30.997  -6.850 -17.528  0.00  0.00    -0.180 SA
HETATM   19  H           1     -30.655  -5.552 -17.587  0.00  0.00     0.101 HD
ENDBRANCH  17  18
ENDBRANCH  13  17
ENDBRANCH   2  13
TORSDOF 8
ENDMDL
MODEL 5
REMARK VINA RESULT:      -4.4     10.807     11.386
REMARK  8 active torsions:
REMARK  status: ('A' for Active; 'I' for Inactive)
REMARK    1  A    between atoms: O_4  and  C_5 
REMARK    2  A    between atoms: C_5  and  C_6 
REMARK    3  A    between atoms: C_6  and  C_12 
REMARK    4  A    between atoms: C_6  and  N_10 
REMARK    5  A    between atoms: C_9  and  C_19 
REMARK    6  A    between atoms: N_11  and  C_19 
REMARK       I    between atoms: N_11  and  C_12 
REMARK    7  A    between atoms: S_15  and  C_16 
REMARK    8  A    between atoms: C_16  and  C_19 
ROOT
HETATM    1  O           1     -28.041  -5.541 -18.895  0.00  0.00    -0.271 OA
HETATM    2  N           1     -26.334  -6.661 -17.989  0.00  0.00    -0.344 N 
HETATM    3  C           1     -27.072  -6.242 -19.064  0.00  0.00     0.251 C 
HETATM    4  H           1     -25.522  -7.247 -18.131  0.00  0.00     0.163 HD
ENDROOT
BRANCH   3   5
HETATM    5  C           1     -26.673  -6.655 -20.459  0.00  0.00     0.297 C 
BRANCH   5   6
HETATM    6  C           1     -27.336  -7.981 -20.807  0.00  0.00     0.206 C 
BRANCH   6   7
HETATM    7  O           1     -28.363  -8.245 -19.890  0.00  0.00    -0.398 OA
HETATM    8  H           1     -28.260  -9.139 -19.613  0.00  0.00     0.209 HD
ENDBRANCH   6   7
ENDBRANCH   5   6
BRANCH   5   9
HETATM    9  N           1     -25.182  -6.810 -20.528  0.00  0.00    -0.064 N 
HETATM   10  H           1     -24.776  -6.710 -19.570  0.00  0.00     0.275 HD
HETATM   11  H           1     -24.948  -7.755 -20.909  0.00  0.00     0.275 HD
HETATM   12  H           1     -24.784  -6.074 -21.154  0.00  0.00     0.275 HD
ENDBRANCH   5   9
ENDBRANCH   3   5
BRANCH   2  13
HETATM   13  C           1     -26.718  -6.264 -16.649  0.00  0.00     0.194 C 
BRANCH  13  14
HETATM   14  C           1     -25.540  -6.424 -15.719  0.00  0.00     0.197 C 
HETATM   15  O           1     -25.130  -7.566 -15.421  0.00  0.00    -0.646 OA
HETATM   16  O           1     -24.974  -5.414 -15.248  0.00  0.00    -0.646 OA
ENDBRANCH  13  14
BRANCH  13  17
HETATM   17  C           1     -27.867  -7.142 -16.169  0.00  0.00     0.106 C 
BRANCH  17  18
HETATM   18  S           1     -29.098  -6.117 -15.315  0.00  0.00    -0.180 SA
HETATM   19  H           1     -28.624  -4.937 -15.751  0.00  0.00     0.101 HD
ENDBRANCH  17  18
ENDBRANCH  13  17
ENDBRANCH   2  13
TORSDOF 8
ENDMDL
MODEL 6
REMARK VINA RESULT:      -4.3     12.977     14.272
REMARK  8 active torsions:
REMARK  status: ('A' for Active; 'I' for Inactive)
REMARK    1  A    between atoms: O_4  and  C_5 
REMARK    2  A    between atoms: C_5  and  C_6 
REMARK    3  A    between atoms: C_6  and  C_12 
REMARK    4  A    between atoms: C_6  and  N_10 
REMARK    5  A    between atoms: C_9  and  C_19 
REMARK    6  A    between atoms: N_11  and  C_19 
REMARK       I    between atoms: N_11  and  C_12 
REMARK    7  A    between atoms: S_15  and  C_16 
REMARK    8  A    between atoms: C_16  and  C_19 
ROOT
HETATM    1  O           1     -21.345  -4.690 -11.022  0.00  0.00    -0.271 OA
HETATM    2  N           1     -22.410  -3.575  -9.407  0.00  0.00    -0.344 N 
HETATM    3  C           1     -22.131  -3.823 -10.724  0.00  0.00     0.251 C 
HETATM    4  H           1     -23.069  -2.849  -9.157  0.00  0.00     0.163 HD
ENDROOT
BRANCH   3   5
HETATM    5  C           1     -22.807  -3.013 -11.803  0.00  0.00     0.297 C 
BRANCH   5   6
HETATM    6  C           1     -24.264  -3.439 -11.923  0.00  0.00     0.206 C 
BRANCH   6   7
HETATM    7  O           1     -24.942  -3.127 -10.737  0.00  0.00    -0.398 OA
HETATM    8  H           1     -24.426  -2.479 -10.289  0.00  0.00     0.209 HD
ENDBRANCH   6   7
ENDBRANCH   5   6
BRANCH   5   9
HETATM    9  N           1     -22.110  -3.244 -13.111  0.00  0.00    -0.064 N 
HETATM   10  H           1     -22.555  -2.657 -13.852  0.00  0.00     0.275 HD
HETATM   11  H           1     -21.102  -2.984 -13.019  0.00  0.00     0.275 HD
HETATM   12  H           1     -22.186  -4.253 -13.373  0.00  0.00     0.275 HD
ENDBRANCH   5   9
ENDBRANCH   3   5
BRANCH   2  13
HETATM   13  C           1     -21.760  -4.353  -8.370  0.00  0.00     0.194 C 
BRANCH  13  14
HETATM   14  C           1     -22.745  -4.637  -7.263  0.00  0.00     0.197 C 
HETATM   15  O           1     -23.951  -4.343  -7.407  0.00  0.00    -0.646 OA
HETATM   16  O           1     -22.354  -5.168  -6.200  0.00  0.00    -0.646 OA
ENDBRANCH  13  14
BRANCH  13  17
HETATM   17  C           1     -20.580  -3.569  -7.811  0.00  0.00     0.106 C 
BRANCH  17  18
HETATM   18  S           1     -19.183  -4.693  -7.530  0.00  0.00    -0.180 SA
HETATM   19  H           1     -18.290  -3.988  -8.245  0.00  0.00     0.101 HD
ENDBRANCH  17  18
ENDBRANCH  13  17
ENDBRANCH   2  13
TORSDOF 8
ENDMDL
MODEL 7
REMARK VINA RESULT:      -4.3     13.561     15.312
REMARK  8 active torsions:
REMARK  status: ('A' for Active; 'I' for Inactive)
REMARK    1  A    between atoms: O_4  and  C_5 
REMARK    2  A    between atoms: C_5  and  C_6 
REMARK    3  A    between atoms: C_6  and  C_12 
REMARK    4  A    between atoms: C_6  and  N_10 
REMARK    5  A    between atoms: C_9  and  C_19 
REMARK    6  A    between atoms: N_11  and  C_19 
REMARK       I    between atoms: N_11  and  C_12 
REMARK    7  A    between atoms: S_15  and  C_16 
REMARK    8  A    between atoms: C_16  and  C_19 
ROOT
HETATM    1  O           1     -19.863  -4.975  -9.834  0.00  0.00    -0.271 OA
HETATM    2  N           1     -21.897  -4.076  -9.621  0.00  0.00    -0.344 N 
HETATM    3  C           1     -20.658  -4.394  -9.134  0.00  0.00     0.251 C 
HETATM    4  H           1     -22.561  -3.589  -9.035  0.00  0.00     0.163 HD
ENDROOT
BRANCH   3   5
HETATM    5  C           1     -20.283  -4.017  -7.721  0.00  0.00     0.297 C 
BRANCH   5   6
HETATM    6  C           1     -19.933  -5.273  -6.935  0.00  0.00     0.206 C 
BRANCH   6   7
HETATM    7  O           1     -20.759  -6.329  -7.346  0.00  0.00    -0.398 OA
HETATM    8  H           1     -21.245  -6.021  -8.092  0.00  0.00     0.209 HD
ENDBRANCH   6   7
ENDBRANCH   5   6
BRANCH   5   9
HETATM    9  N           1     -21.441  -3.325  -7.065  0.00  0.00    -0.064 N 
HETATM   10  H           1     -21.964  -2.767  -7.778  0.00  0.00     0.275 HD
HETATM   11  H           1     -22.079  -4.038  -6.645  0.00  0.00     0.275 HD
HETATM   12  H           1     -21.087  -2.689  -6.315  0.00  0.00     0.275 HD
ENDBRANCH   5   9
ENDBRANCH   3   5
BRANCH   2  13
HETATM   13  C           1     -22.255  -4.439 -10.978  0.00  0.00     0.194 C 
BRANCH  13  14
HETATM   14  C           1     -21.999  -3.269 -11.896  0.00  0.00     0.197 C 
HETATM   15  O           1     -22.566  -3.210 -13.008  0.00  0.00    -0.646 OA
HETATM   16  O           1     -21.218  -2.358 -11.544  0.00  0.00    -0.646 OA
ENDBRANCH  13  14
BRANCH  13  17
HETATM   17  C           1     -23.732  -4.811 -11.030  0.00  0.00     0.106 C 
BRANCH  17  18
HETATM   18  S           1     -24.680  -3.676  -9.978  0.00  0.00    -0.180 SA
HETATM   19  H           1     -23.639  -2.897  -9.638  0.00  0.00     0.101 HD
ENDBRANCH  17  18
ENDBRANCH  13  17
ENDBRANCH   2  13
TORSDOF 8
ENDMDL
MODEL 8
REMARK VINA RESULT:      -4.3      3.534      4.364
REMARK  8 active torsions:
REMARK  status: ('A' for Active; 'I' for Inactive)
REMARK    1  A    between atoms: O_4  and  C_5 
REMARK    2  A    between atoms: C_5  and  C_6 
REMARK    3  A    between atoms: C_6  and  C_12 
REMARK    4  A    between atoms: C_6  and  N_10 
REMARK    5  A    between atoms: C_9  and  C_19 
REMARK    6  A    between atoms: N_11  and  C_19 
REMARK       I    between atoms: N_11  and  C_12 
REMARK    7  A    between atoms: S_15  and  C_16 
REMARK    8  A    between atoms: C_16  and  C_19 
ROOT
HETATM    1  O           1     -34.272  -1.456 -10.687  0.00  0.00    -0.271 OA
HETATM    2  N           1     -35.621  -3.055 -11.468  0.00  0.00    -0.344 N 
HETATM    3  C           1     -35.392  -1.900 -10.769  0.00  0.00     0.251 C 
HETATM    4  H           1     -36.559  -3.426 -11.538  0.00  0.00     0.163 HD
ENDROOT
BRANCH   3   5
HETATM    5  C           1     -36.540  -1.181 -10.103  0.00  0.00     0.297 C 
BRANCH   5   6
HETATM    6  C           1     -37.265  -0.321 -11.129  0.00  0.00     0.206 C 
BRANCH   6   7
HETATM    7  O           1     -36.892  -0.717 -12.421  0.00  0.00    -0.398 OA
HETATM    8  H           1     -36.227  -1.377 -12.323  0.00  0.00     0.209 HD
ENDBRANCH   6   7
ENDBRANCH   5   6
BRANCH   5   9
HETATM    9  N           1     -36.011  -0.308  -9.004  0.00  0.00    -0.064 N 
HETATM   10  H           1     -36.417   0.651  -9.094  0.00  0.00     0.275 HD
HETATM   11  H           1     -36.279  -0.714  -8.079  0.00  0.00     0.275 HD
HETATM   12  H           1     -34.970  -0.254  -9.072  0.00  0.00     0.275 HD
ENDBRANCH   5   9
ENDBRANCH   3   5
BRANCH   2  13
HETATM   13  C           1     -34.518  -3.745 -12.107  0.00  0.00     0.194 C 
BRANCH  13  14
HETATM   14  C           1     -34.386  -3.269 -13.533  0.00  0.00     0.197 C 
HETATM   15  O           1     -34.890  -2.179 -13.878  0.00  0.00    -0.646 OA
HETATM   16  O           1     -33.770  -3.966 -14.370  0.00  0.00    -0.646 OA
ENDBRANCH  13  14
BRANCH  13  17
HETATM   17  C           1     -34.783  -5.245 -12.096  0.00  0.00     0.106 C 
BRANCH  17  18
HETATM   18  S           1     -34.343  -5.926 -10.472  0.00  0.00    -0.180 SA
HETATM   19  H           1     -33.012  -5.835 -10.638  0.00  0.00     0.101 HD
ENDBRANCH  17  18
ENDBRANCH  13  17
ENDBRANCH   2  13
TORSDOF 8
ENDMDL
MODEL 9
REMARK VINA RESULT:      -4.2     13.512     14.882
REMARK  8 active torsions:
REMARK  status: ('A' for Active; 'I' for Inactive)
REMARK    1  A    between atoms: O_4  and  C_5 
REMARK    2  A    between atoms: C_5  and  C_6 
REMARK    3  A    between atoms: C_6  and  C_12 
REMARK    4  A    between atoms: C_6  and  N_10 
REMARK    5  A    between atoms: C_9  and  C_19 
REMARK    6  A    between atoms: N_11  and  C_19 
REMARK       I    between atoms: N_11  and  C_12 
REMARK    7  A    between atoms: S_15  and  C_16 
REMARK    8  A    between atoms: C_16  and  C_19 
ROOT
HETATM    1  O           1     -23.081  -3.204  -8.526  0.00  0.00    -0.271 OA
HETATM    2  N           1     -22.207  -5.251  -8.709  0.00  0.00    -0.344 N 
HETATM    3  C           1     -23.129  -4.296  -9.041  0.00  0.00     0.251 C 
HETATM    4  H           1     -22.247  -6.164  -9.142  0.00  0.00     0.163 HD
ENDROOT
BRANCH   3   5
HETATM    5  C           1     -24.206  -4.605 -10.053  0.00  0.00     0.297 C 
BRANCH   5   6
HETATM    6  C           1     -23.637  -4.468 -11.459  0.00  0.00     0.206 C 
BRANCH   6   7
HETATM    7  O           1     -22.275  -4.147 -11.384  0.00  0.00    -0.398 OA
HETATM    8  H           1     -22.194  -3.239 -11.618  0.00  0.00     0.209 HD
ENDBRANCH   6   7
ENDBRANCH   5   6
BRANCH   5   9
HETATM    9  N           1     -25.345  -3.645  -9.879  0.00  0.00    -0.064 N 
HETATM   10  H           1     -25.085  -2.718 -10.284  0.00  0.00     0.275 HD
HETATM   11  H           1     -26.190  -4.016 -10.371  0.00  0.00     0.275 HD
HETATM   12  H           1     -25.556  -3.535  -8.862  0.00  0.00     0.275 HD
ENDBRANCH   5   9
ENDBRANCH   3   5
BRANCH   2  13
HETATM   13  C           1     -21.173  -4.953  -7.737  0.00  0.00     0.194 C 
BRANCH  13  14
HETATM   14  C           1     -19.887  -4.626  -8.455  0.00  0.00     0.197 C 
HETATM   15  O           1     -18.878  -4.280  -7.805  0.00  0.00    -0.646 OA
HETATM   16  O           1     -19.831  -4.703  -9.702  0.00  0.00    -0.646 OA
ENDBRANCH  13  14
BRANCH  13  17
HETATM   17  C           1     -20.960  -6.163  -6.837  0.00  0.00     0.106 C 
BRANCH  17  18
HETATM   18  S           1     -20.938  -5.632  -5.101  0.00  0.00    -0.180 SA
HETATM   19  H           1     -21.832  -6.537  -4.667  0.00  0.00     0.101 HD
ENDBRANCH  17  18
ENDBRANCH  13  17
ENDBRANCH   2  13
TORSDOF 8
ENDMDL
