MODEL 1
REMARK VINA RESULT:      -6.1      0.000      0.000
REMARK  9 active torsions:
REMARK  status: ('A' for Active; 'I' for Inactive)
REMARK    1  A    between atoms: C_1  and  C_16 
REMARK    2  A    between atoms: C_1  and  C_8 
REMARK    3  A    between atoms: C_4  and  C_8 
REMARK    4  A    between atoms: C_5  and  C_6 
REMARK    5  A    between atoms: C_5  and  C_14 
REMARK    6  A    between atoms: C_5  and  N_11 
REMARK       I    between atoms: C_6  and  N_7 
REMARK    7  A    between atoms: N_7  and  C_8 
REMARK       I    between atoms: N_9  and  C_13 
REMARK    8  A    between atoms: C_13  and  C_14 
REMARK    9  A    between atoms: S_15  and  C_16 
ROOT
HETATM    1  C           1     -21.664  -4.642  -7.695  0.00  0.00     0.249 C 
HETATM    2  N           1     -22.173  -4.896  -8.940  0.00  0.00    -0.345 N 
HETATM    3  O           1     -21.659  -3.513  -7.264  0.00  0.00    -0.271 OA
HETATM    4  H           1     -22.177  -5.841  -9.301  0.00  0.00     0.163 HD
ENDROOT
BRANCH   1   5
HETATM    5  C           1     -21.110  -5.770  -6.861  0.00  0.00     0.283 C 
BRANCH   5   6
HETATM    6  C           1     -20.876  -5.283  -5.437  0.00  0.00     0.145 C 
BRANCH   6   7
HETATM    7  C           1     -21.553  -6.220  -4.466  0.00  0.00     0.217 C 
HETATM    8  N           1     -22.003  -7.440  -4.893  0.00  0.00    -0.370 N 
HETATM    9  H           1     -22.456  -8.069  -4.242  0.00  0.00     0.159 HD
HETATM   10  H           1     -21.882  -7.714  -5.859  0.00  0.00     0.159 HD
HETATM   11  O           1     -21.697  -5.893  -3.312  0.00  0.00    -0.274 OA
ENDBRANCH   6   7
ENDBRANCH   5   6
BRANCH   5  12
HETATM   12  N           1     -19.810  -6.234  -7.449  0.00  0.00    -0.066 N 
HETATM   13  H           1     -19.226  -6.672  -6.702  0.00  0.00     0.275 HD
HETATM   14  H           1     -19.999  -6.936  -8.200  0.00  0.00     0.275 HD
HETATM   15  H           1     -19.301  -5.417  -7.855  0.00  0.00     0.275 HD
ENDBRANCH   5  12
ENDBRANCH   1   5
BRANCH   2  16
HETATM   16  C           1     -22.706  -3.812  -9.742  0.00  0.00     0.186 C 
BRANCH  16  17
HETATM   17  C           1     -22.254  -3.980 -11.186  0.00  0.00     0.046 C 
BRANCH  17  18
HETATM   18  C           1     -22.467  -2.674 -11.940  0.00  0.00     0.076 C 
BRANCH  18  19
HETATM   19  S           1     -23.867  -2.854 -13.081  0.00  0.00    -0.173 SA
HETATM   20  C           1     -22.903  -2.675 -14.609  0.00  0.00     0.089 C 
ENDBRANCH  18  19
ENDBRANCH  17  18
ENDBRANCH  16  17
BRANCH  16  21
HETATM   21  C           1     -24.213  -3.836  -9.678  0.00  0.00     0.196 C 
HETATM   22  O           1     -24.830  -4.901  -9.897  0.00  0.00    -0.646 OA
HETATM   23  O           1     -24.845  -2.792  -9.410  0.00  0.00    -0.646 OA
ENDBRANCH  16  21
ENDBRANCH   2  16
TORSDOF 9
ENDMDL
MODEL 2
REMARK VINA RESULT:      -6.0     12.154     13.966
REMARK  9 active torsions:
REMARK  status: ('A' for Active; 'I' for Inactive)
REMARK    1  A    between atoms: C_1  and  C_16 
REMARK    2  A    between atoms: C_1  and  C_8 
REMARK    3  A    between atoms: C_4  and  C_8 
REMARK    4  A    between atoms: C_5  and  C_6 
REMARK    5  A    between atoms: C_5  and  C_14 
REMARK    6  A    between atoms: C_5  and  N_11 
REMARK       I    between atoms: C_6  and  N_7 
REMARK    7  A    between atoms: N_7  and  C_8 
REMARK       I    between atoms: N_9  and  C_13 
REMARK    8  A    between atoms: C_13  and  C_14 
REMARK    9  A    between atoms: S_15  and  C_16 
ROOT
HETATM    1  C           1     -34.248  -2.540 -12.486  0.00  0.00     0.249 C 
HETATM    2  N           1     -34.872  -1.351 -12.220  0.00  0.00    -0.345 N 
HETATM    3  O           1     -34.461  -3.114 -13.527  0.00  0.00    -0.271 OA
HETATM    4  H           1     -34.695  -0.871 -11.348  0.00  0.00     0.163 HD
ENDROOT
BRANCH   1   5
HETATM    5  C           1     -33.295  -3.134 -11.478  0.00  0.00     0.283 C 
BRANCH   5   6
HETATM    6  C           1     -32.868  -4.522 -11.939  0.00  0.00     0.145 C 
BRANCH   6   7
HETATM    7  C           1     -33.917  -5.531 -11.540  0.00  0.00     0.217 C 
HETATM    8  N           1     -34.883  -5.904 -12.435  0.00  0.00    -0.370 N 
HETATM    9  H           1     -35.586  -6.581 -12.168  0.00  0.00     0.159 HD
HETATM   10  H           1     -34.893  -5.504 -13.364  0.00  0.00     0.159 HD
HETATM   11  O           1     -33.904  -6.009 -10.430  0.00  0.00    -0.274 OA
ENDBRANCH   6   7
ENDBRANCH   5   6
BRANCH   5  12
HETATM   12  N           1     -33.978  -3.238 -10.147  0.00  0.00    -0.066 N 
HETATM   13  H           1     -33.528  -2.578  -9.472  0.00  0.00     0.275 HD
HETATM   14  H           1     -34.987  -2.992 -10.253  0.00  0.00     0.275 HD
HETATM   15  H           1     -33.893  -4.215  -9.786  0.00  0.00     0.275 HD
ENDBRANCH   5  12
ENDBRANCH   1   5
BRANCH   2  16
HETATM   16  C           1     -35.789  -0.780 -13.188  0.00  0.00     0.186 C 
BRANCH  16  17
HETATM   17  C           1     -36.936  -0.095 -12.458  0.00  0.00     0.046 C 
BRANCH  17  18
HETATM   18  C           1     -37.051  -0.661 -11.049  0.00  0.00     0.076 C 
BRANCH  18  19
HETATM   19  S           1     -37.655   0.629  -9.925  0.00  0.00    -0.173 SA
HETATM   20  C           1     -36.996  -0.109  -8.403  0.00  0.00     0.089 C 
ENDBRANCH  18  19
ENDBRANCH  17  18
ENDBRANCH  16  17
BRANCH  16  21
HETATM   21  C           1     -35.055   0.230 -14.036  0.00  0.00     0.196 C 
HETATM   22  O           1     -34.768  -0.041 -15.222  0.00  0.00    -0.646 OA
HETATM   23  O           1     -34.733   1.337 -13.553  0.00  0.00    -0.646 OA
ENDBRANCH  16  21
ENDBRANCH   2  16
TORSDOF 9
ENDMDL
MODEL 3
REMARK VINA RESULT:      -6.0     12.062     13.575
REMARK  9 active torsions:
REMARK  status: ('A' for Active; 'I' for Inactive)
REMARK    1  A    between atoms: C_1  and  C_16 
REMARK    2  A    between atoms: C_1  and  C_8 
REMARK    3  A    between atoms: C_4  and  C_8 
REMARK    4  A    between atoms: C_5  and  C_6 
REMARK    5  A    between atoms: C_5  and  C_14 
REMARK    6  A    between atoms: C_5  and  N_11 
REMARK       I    between atoms: C_6  and  N_7 
REMARK    7  A    between atoms: N_7  and  C_8 
REMARK       I    between atoms: N_9  and  C_13 
REMARK    8  A    between atoms: C_13  and  C_14 
REMARK    9  A    between atoms: S_15  and  C_16 
ROOT
HETATM    1  C           1     -34.094  -2.883 -11.479  0.00  0.00     0.249 C 
HETATM    2  N           1     -35.241  -2.337 -11.988  0.00  0.00    -0.345 N 
HETATM    3  O           1     -33.342  -2.203 -10.822  0.00  0.00    -0.271 OA
HETATM    4  H           1     -35.871  -2.906 -12.539  0.00  0.00     0.163 HD
ENDROOT
BRANCH   1   5
HETATM    5  C           1     -33.768  -4.333 -11.738  0.00  0.00     0.283 C 
BRANCH   5   6
HETATM    6  C           1     -33.929  -5.128 -10.449  0.00  0.00     0.145 C 
BRANCH   6   7
HETATM    7  C           1     -34.641  -6.426 -10.742  0.00  0.00     0.217 C 
HETATM    8  N           1     -34.951  -6.760 -12.033  0.00  0.00    -0.370 N 
HETATM    9  H           1     -35.428  -7.631 -12.230  0.00  0.00     0.159 HD
HETATM   10  H           1     -34.702  -6.138 -12.790  0.00  0.00     0.159 HD
HETATM   11  O           1     -34.937  -7.171  -9.837  0.00  0.00    -0.274 OA
ENDBRANCH   6   7
ENDBRANCH   5   6
BRANCH   5  12
HETATM   12  N           1     -32.354  -4.448 -12.223  0.00  0.00    -0.066 N 
HETATM   13  H           1     -32.238  -3.885 -13.097  0.00  0.00     0.275 HD
HETATM   14  H           1     -31.704  -4.088 -11.489  0.00  0.00     0.275 HD
HETATM   15  H           1     -32.134  -5.449 -12.424  0.00  0.00     0.275 HD
ENDBRANCH   5  12
ENDBRANCH   1   5
BRANCH   2  16
HETATM   16  C           1     -35.554  -0.943 -11.740  0.00  0.00     0.186 C 
BRANCH  16  17
HETATM   17  C           1     -36.126  -0.318 -13.005  0.00  0.00     0.046 C 
BRANCH  17  18
HETATM   18  C           1     -35.053   0.520 -13.688  0.00  0.00     0.076 C 
BRANCH  18  19
HETATM   19  S           1     -35.608   0.975 -15.355  0.00  0.00    -0.173 SA
HETATM   20  C           1     -37.233   0.174 -15.248  0.00  0.00     0.089 C 
ENDBRANCH  18  19
ENDBRANCH  17  18
ENDBRANCH  16  17
BRANCH  16  21
HETATM   21  C           1     -36.569  -0.848 -10.627  0.00  0.00     0.196 C 
HETATM   22  O           1     -37.775  -1.075 -10.862  0.00  0.00    -0.646 OA
HETATM   23  O           1     -36.204  -0.540  -9.472  0.00  0.00    -0.646 OA
ENDBRANCH  16  21
ENDBRANCH   2  16
TORSDOF 9
ENDMDL
MODEL 4
REMARK VINA RESULT:      -5.7      3.529      7.267
REMARK  9 active torsions:
REMARK  status: ('A' for Active; 'I' for Inactive)
REMARK    1  A    between atoms: C_1  and  C_16 
REMARK    2  A    between atoms: C_1  and  C_8 
REMARK    3  A    between atoms: C_4  and  C_8 
REMARK    4  A    between atoms: C_5  and  C_6 
REMARK    5  A    between atoms: C_5  and  C_14 
REMARK    6  A    between atoms: C_5  and  N_11 
REMARK       I    between atoms: C_6  and  N_7 
REMARK    7  A    between atoms: N_7  and  C_8 
REMARK       I    between atoms: N_9  and  C_13 
REMARK    8  A    between atoms: C_13  and  C_14 
REMARK    9  A    between atoms: S_15  and  C_16 
ROOT
HETATM    1  C           1     -22.409  -4.291  -7.913  0.00  0.00     0.249 C 
HETATM    2  N           1     -22.248  -5.451  -7.205  0.00  0.00    -0.345 N 
HETATM    3  O           1     -21.809  -3.295  -7.584  0.00  0.00    -0.271 OA
HETATM    4  H           1     -22.751  -6.285  -7.480  0.00  0.00     0.163 HD
ENDROOT
BRANCH   1   5
HETATM    5  C           1     -23.336  -4.255  -9.103  0.00  0.00     0.283 C 
BRANCH   5   6
HETATM    6  C           1     -22.600  -3.671 -10.302  0.00  0.00     0.145 C 
BRANCH   6   7
HETATM    7  C           1     -23.511  -3.682 -11.506  0.00  0.00     0.217 C 
HETATM    8  N           1     -23.435  -4.704 -12.412  0.00  0.00    -0.370 N 
HETATM    9  H           1     -24.045  -4.713 -13.220  0.00  0.00     0.159 HD
HETATM   10  H           1     -22.768  -5.453 -12.276  0.00  0.00     0.159 HD
HETATM   11  O           1     -24.308  -2.788 -11.669  0.00  0.00    -0.274 OA
ENDBRANCH   6   7
ENDBRANCH   5   6
BRANCH   5  12
HETATM   12  N           1     -24.526  -3.401  -8.783  0.00  0.00    -0.066 N 
HETATM   13  H           1     -25.010  -3.781  -7.938  0.00  0.00     0.275 HD
HETATM   14  H           1     -24.212  -2.423  -8.592  0.00  0.00     0.275 HD
HETATM   15  H           1     -25.186  -3.404  -9.592  0.00  0.00     0.275 HD
ENDBRANCH   5  12
ENDBRANCH   1   5
BRANCH   2  16
HETATM   16  C           1     -21.358  -5.486  -6.061  0.00  0.00     0.186 C 
BRANCH  16  17
HETATM   17  C           1     -21.936  -6.410  -4.997  0.00  0.00     0.046 C 
BRANCH  17  18
HETATM   18  C           1     -21.366  -6.036  -3.635  0.00  0.00     0.076 C 
BRANCH  18  19
HETATM   19  S           1     -21.328  -7.504  -2.569  0.00  0.00    -0.173 SA
HETATM   20  C           1     -22.273  -6.780  -1.199  0.00  0.00     0.089 C 
ENDBRANCH  18  19
ENDBRANCH  17  18
ENDBRANCH  16  17
BRANCH  16  21
HETATM   21  C           1     -20.006  -5.998  -6.493  0.00  0.00     0.196 C 
HETATM   22  O           1     -19.164  -5.209  -6.973  0.00  0.00    -0.646 OA
HETATM   23  O           1     -19.729  -7.211  -6.375  0.00  0.00    -0.646 OA
ENDBRANCH  16  21
ENDBRANCH   2  16
TORSDOF 9
ENDMDL
MODEL 5
REMARK VINA RESULT:      -5.6      3.393      6.843
REMARK  9 active torsions:
REMARK  status: ('A' for Active; 'I' for Inactive)
REMARK    1  A    between atoms: C_1  and  C_16 
REMARK    2  A    between atoms: C_1  and  C_8 
REMARK    3  A    between atoms: C_4  and  C_8 
REMARK    4  A    between atoms: C_5  and  C_6 
REMARK    5  A    between atoms: C_5  and  C_14 
REMARK    6  A    between atoms: C_5  and  N_11 
REMARK       I    between atoms: C_6  and  N_7 
REMARK    7  A    between atoms: N_7  and  C_8 
REMARK       I    between atoms: N_9  and  C_13 
REMARK    8  A    between atoms: C_13  and  C_14 
REMARK    9  A    between atoms: S_15  and  C_16 
ROOT
HETATM    1  C           1     -22.914  -4.622  -8.435  0.00  0.00     0.249 C 
HETATM    2  N           1     -21.706  -5.172  -8.102  0.00  0.00    -0.345 N 
HETATM    3  O           1     -23.622  -4.156  -7.574  0.00  0.00    -0.271 OA
HETATM    4  H           1     -21.112  -5.562  -8.823  0.00  0.00     0.163 HD
ENDROOT
BRANCH   1   5
HETATM    5  C           1     -23.362  -4.596  -9.875  0.00  0.00     0.283 C 
BRANCH   5   6
HETATM    6  C           1     -22.721  -3.411 -10.586  0.00  0.00     0.145 C 
BRANCH   6   7
HETATM    7  C           1     -21.636  -3.905 -11.512  0.00  0.00     0.217 C 
HETATM    8  N           1     -21.727  -3.673 -12.858  0.00  0.00    -0.370 N 
HETATM    9  H           1     -21.000  -4.004 -13.479  0.00  0.00     0.159 HD
HETATM   10  H           1     -22.521  -3.170 -13.232  0.00  0.00     0.159 HD
HETATM   11  O           1     -20.687  -4.504 -11.065  0.00  0.00    -0.274 OA
ENDBRANCH   6   7
ENDBRANCH   5   6
BRANCH   5  12
HETATM   12  N           1     -24.854  -4.464  -9.931  0.00  0.00    -0.066 N 
HETATM   13  H           1     -25.279  -5.397 -10.138  0.00  0.00     0.275 HD
HETATM   14  H           1     -25.208  -4.118  -9.011  0.00  0.00     0.275 HD
HETATM   15  H           1     -25.117  -3.789 -10.683  0.00  0.00     0.275 HD
ENDBRANCH   5  12
ENDBRANCH   1   5
BRANCH   2  16
HETATM   16  C           1     -21.275  -5.197  -6.718  0.00  0.00     0.186 C 
BRANCH  16  17
HETATM   17  C           1     -21.315  -6.629  -6.200  0.00  0.00     0.046 C 
BRANCH  17  18
HETATM   18  C           1     -22.190  -6.694  -4.956  0.00  0.00     0.076 C 
BRANCH  18  19
HETATM   19  S           1     -21.199  -7.270  -3.548  0.00  0.00    -0.173 SA
HETATM   20  C           1     -22.016  -6.242  -2.296  0.00  0.00     0.089 C 
ENDBRANCH  18  19
ENDBRANCH  17  18
ENDBRANCH  16  17
BRANCH  16  21
HETATM   21  C           1     -19.866  -4.665  -6.622  0.00  0.00     0.196 C 
HETATM   22  O           1     -19.336  -4.501  -5.502  0.00  0.00    -0.646 OA
HETATM   23  O           1     -19.231  -4.386  -7.661  0.00  0.00    -0.646 OA
ENDBRANCH  16  21
ENDBRANCH   2  16
TORSDOF 9
ENDMDL
MODEL 6
REMARK VINA RESULT:      -5.4      3.937      7.416
REMARK  9 active torsions:
REMARK  status: ('A' for Active; 'I' for Inactive)
REMARK    1  A    between atoms: C_1  and  C_16 
REMARK    2  A    between atoms: C_1  and  C_8 
REMARK    3  A    between atoms: C_4  and  C_8 
REMARK    4  A    between atoms: C_5  and  C_6 
REMARK    5  A    between atoms: C_5  and  C_14 
REMARK    6  A    between atoms: C_5  and  N_11 
REMARK       I    between atoms: C_6  and  N_7 
REMARK    7  A    between atoms: N_7  and  C_8 
REMARK       I    between atoms: N_9  and  C_13 
REMARK    8  A    between atoms: C_13  and  C_14 
REMARK    9  A    between atoms: S_15  and  C_16 
ROOT
HETATM    1  C           1     -20.610  -4.839  -6.544  0.00  0.00     0.249 C 
HETATM    2  N           1     -21.378  -5.847  -6.027  0.00  0.00    -0.345 N 
HETATM    3  O           1     -19.574  -4.531  -6.003  0.00  0.00    -0.271 OA
HETATM    4  H           1     -22.246  -6.105  -6.479  0.00  0.00     0.163 HD
ENDROOT
BRANCH   1   5
HETATM    5  C           1     -21.056  -4.111  -7.788  0.00  0.00     0.283 C 
BRANCH   5   6
HETATM    6  C           1     -22.344  -4.736  -8.308  0.00  0.00     0.145 C 
BRANCH   6   7
HETATM    7  C           1     -23.055  -3.753  -9.206  0.00  0.00     0.217 C 
HETATM    8  N           1     -24.329  -3.352  -8.909  0.00  0.00    -0.370 N 
HETATM    9  H           1     -24.806  -2.692  -9.510  0.00  0.00     0.159 HD
HETATM   10  H           1     -24.796  -3.715  -8.087  0.00  0.00     0.159 HD
HETATM   11  O           1     -22.498  -3.318 -10.186  0.00  0.00    -0.274 OA
ENDBRANCH   6   7
ENDBRANCH   5   6
BRANCH   5  12
HETATM   12  N           1     -19.990  -4.218  -8.837  0.00  0.00    -0.066 N 
HETATM   13  H           1     -20.288  -3.695  -9.692  0.00  0.00     0.275 HD
HETATM   14  H           1     -19.101  -3.809  -8.472  0.00  0.00     0.275 HD
HETATM   15  H           1     -19.839  -5.223  -9.080  0.00  0.00     0.275 HD
ENDBRANCH   5  12
ENDBRANCH   1   5
BRANCH   2  16
HETATM   16  C           1     -20.950  -6.546  -4.831  0.00  0.00     0.186 C 
BRANCH  16  17
HETATM   17  C           1     -22.114  -6.641  -3.854  0.00  0.00     0.046 C 
BRANCH  17  18
HETATM   18  C           1     -21.638  -6.264  -2.458  0.00  0.00     0.076 C 
BRANCH  18  19
HETATM   19  S           1     -21.270  -7.771  -1.516  0.00  0.00    -0.173 SA
HETATM   20  C           1     -22.557  -7.537  -0.257  0.00  0.00     0.089 C 
ENDBRANCH  18  19
ENDBRANCH  17  18
ENDBRANCH  16  17
BRANCH  16  21
HETATM   21  C           1     -20.487  -7.934  -5.201  0.00  0.00     0.196 C 
HETATM   22  O           1     -19.415  -8.379  -4.737  0.00  0.00    -0.646 OA
HETATM   23  O           1     -21.174  -8.638  -5.973  0.00  0.00    -0.646 OA
ENDBRANCH  16  21
ENDBRANCH   2  16
TORSDOF 9
ENDMDL
MODEL 7
REMARK VINA RESULT:      -5.3      9.162     11.795
REMARK  9 active torsions:
REMARK  status: ('A' for Active; 'I' for Inactive)
REMARK    1  A    between atoms: C_1  and  C_16 
REMARK    2  A    between atoms: C_1  and  C_8 
REMARK    3  A    between atoms: C_4  and  C_8 
REMARK    4  A    between atoms: C_5  and  C_6 
REMARK    5  A    between atoms: C_5  and  C_14 
REMARK    6  A    between atoms: C_5  and  N_11 
REMARK       I    between atoms: C_6  and  N_7 
REMARK    7  A    between atoms: N_7  and  C_8 
REMARK       I    between atoms: N_9  and  C_13 
REMARK    8  A    between atoms: C_13  and  C_14 
REMARK    9  A    between atoms: S_15  and  C_16 
ROOT
HETATM    1  C           1     -27.682  -6.185 -18.141  0.00  0.00     0.249 C 
HETATM    2  N           1     -26.822  -6.944 -18.886  0.00  0.00    -0.345 N 
HETATM    3  O           1     -28.519  -5.507 -18.689  0.00  0.00    -0.271 OA
HETATM    4  H           1     -26.121  -7.511 -18.426  0.00  0.00     0.163 HD
ENDROOT
BRANCH   1   5
HETATM    5  C           1     -27.588  -6.194 -16.635  0.00  0.00     0.283 C 
BRANCH   5   6
HETATM    6  C           1     -26.676  -7.329 -16.189  0.00  0.00     0.145 C 
BRANCH   6   7
HETATM    7  C           1     -25.257  -6.825 -16.087  0.00  0.00     0.217 C 
HETATM    8  N           1     -24.213  -7.648 -16.410  0.00  0.00    -0.370 N 
HETATM    9  H           1     -23.261  -7.310 -16.343  0.00  0.00     0.159 HD
HETATM   10  H           1     -24.392  -8.595 -16.718  0.00  0.00     0.159 HD
HETATM   11  O           1     -25.043  -5.693 -15.721  0.00  0.00    -0.274 OA
ENDBRANCH   6   7
ENDBRANCH   5   6
BRANCH   5  12
HETATM   12  N           1     -28.955  -6.393 -16.051  0.00  0.00    -0.066 N 
HETATM   13  H           1     -28.933  -6.173 -15.029  0.00  0.00     0.275 HD
HETATM   14  H           1     -29.633  -5.758 -16.528  0.00  0.00     0.275 HD
HETATM   15  H           1     -29.251  -7.385 -16.186  0.00  0.00     0.275 HD
ENDBRANCH   5  12
ENDBRANCH   1   5
BRANCH   2  16
HETATM   16  C           1     -26.912  -6.936 -20.333  0.00  0.00     0.186 C 
BRANCH  16  17
HETATM   17  C           1     -25.520  -6.766 -20.927  0.00  0.00     0.046 C 
BRANCH  17  18
HETATM   18  C           1     -24.497  -7.450 -20.030  0.00  0.00     0.076 C 
BRANCH  18  19
HETATM   19  S           1     -23.257  -8.289 -21.055  0.00  0.00    -0.173 SA
HETATM   20  C           1     -23.892  -7.707 -22.652  0.00  0.00     0.089 C 
ENDBRANCH  18  19
ENDBRANCH  17  18
ENDBRANCH  16  17
BRANCH  16  21
HETATM   21  C           1     -27.506  -8.239 -20.805  0.00  0.00     0.196 C 
HETATM   22  O           1     -26.930  -8.902 -21.695  0.00  0.00    -0.646 OA
HETATM   23  O           1     -28.575  -8.656 -20.310  0.00  0.00    -0.646 OA
ENDBRANCH  16  21
ENDBRANCH   2  16
TORSDOF 9
ENDMDL
MODEL 8
REMARK VINA RESULT:      -5.3      3.864      7.471
REMARK  9 active torsions:
REMARK  status: ('A' for Active; 'I' for Inactive)
REMARK    1  A    between atoms: C_1  and  C_16 
REMARK    2  A    between atoms: C_1  and  C_8 
REMARK    3  A    between atoms: C_4  and  C_8 
REMARK    4  A    between atoms: C_5  and  C_6 
REMARK    5  A    between atoms: C_5  and  C_14 
REMARK    6  A    between atoms: C_5  and  N_11 
REMARK       I    between atoms: C_6  and  N_7 
REMARK    7  A    between atoms: N_7  and  C_8 
REMARK       I    between atoms: N_9  and  C_13 
REMARK    8  A    between atoms: C_13  and  C_14 
REMARK    9  A    between atoms: S_15  and  C_16 
ROOT
HETATM    1  C           1     -21.773  -5.744  -5.622  0.00  0.00     0.249 C 
HETATM    2  N           1     -20.953  -6.525  -4.854  0.00  0.00    -0.345 N 
HETATM    3  O           1     -22.972  -5.862  -5.538  0.00  0.00    -0.271 OA
HETATM    4  H           1     -19.949  -6.426  -4.924  0.00  0.00     0.163 HD
ENDROOT
BRANCH   1   5
HETATM    5  C           1     -21.179  -4.734  -6.573  0.00  0.00     0.283 C 
BRANCH   5   6
HETATM    6  C           1     -21.509  -5.130  -8.007  0.00  0.00     0.145 C 
BRANCH   6   7
HETATM    7  C           1     -22.538  -4.180  -8.568  0.00  0.00     0.217 C 
HETATM    8  N           1     -23.766  -4.072  -7.975  0.00  0.00    -0.370 N 
HETATM    9  H           1     -24.456  -3.434  -8.350  0.00  0.00     0.159 HD
HETATM   10  H           1     -23.985  -4.629  -7.159  0.00  0.00     0.159 HD
HETATM   11  O           1     -22.277  -3.513  -9.542  0.00  0.00    -0.274 OA
ENDBRANCH   6   7
ENDBRANCH   5   6
BRANCH   5  12
HETATM   12  N           1     -19.691  -4.696  -6.395  0.00  0.00    -0.066 N 
HETATM   13  H           1     -19.233  -4.533  -7.321  0.00  0.00     0.275 HD
HETATM   14  H           1     -19.438  -3.921  -5.741  0.00  0.00     0.275 HD
HETATM   15  H           1     -19.363  -5.606  -6.001  0.00  0.00     0.275 HD
ENDBRANCH   5  12
ENDBRANCH   1   5
BRANCH   2  16
HETATM   16  C           1     -21.523  -7.496  -3.940  0.00  0.00     0.186 C 
BRANCH  16  17
HETATM   17  C           1     -20.695  -8.774  -3.976  0.00  0.00     0.046 C 
BRANCH  17  18
HETATM   18  C           1     -19.538  -8.602  -4.952  0.00  0.00     0.076 C 
BRANCH  18  19
HETATM   19  S           1     -18.263  -9.845  -4.603  0.00  0.00    -0.173 SA
HETATM   20  C           1     -18.040  -9.417  -2.854  0.00  0.00     0.089 C 
ENDBRANCH  18  19
ENDBRANCH  17  18
ENDBRANCH  16  17
BRANCH  16  21
HETATM   21  C           1     -21.517  -6.931  -2.541  0.00  0.00     0.196 C 
HETATM   22  O           1     -22.255  -5.964  -2.255  0.00  0.00    -0.646 OA
HETATM   23  O           1     -20.772  -7.427  -1.669  0.00  0.00    -0.646 OA
ENDBRANCH  16  21
ENDBRANCH   2  16
TORSDOF 9
ENDMDL
MODEL 9
REMARK VINA RESULT:      -5.2      3.243      4.674
REMARK  9 active torsions:
REMARK  status: ('A' for Active; 'I' for Inactive)
REMARK    1  A    between atoms: C_1  and  C_16 
REMARK    2  A    between atoms: C_1  and  C_8 
REMARK    3  A    between atoms: C_4  and  C_8 
REMARK    4  A    between atoms: C_5  and  C_6 
REMARK    5  A    between atoms: C_5  and  C_14 
REMARK    6  A    between atoms: C_5  and  N_11 
REMARK       I    between atoms: C_6  and  N_7 
REMARK    7  A    between atoms: N_7  and  C_8 
REMARK       I    between atoms: N_9  and  C_13 
REMARK    8  A    between atoms: C_13  and  C_14 
REMARK    9  A    between atoms: S_15  and  C_16 
ROOT
HETATM    1  C           1     -21.462  -6.388  -4.228  0.00  0.00     0.249 C 
HETATM    2  N           1     -21.033  -5.363  -5.027  0.00  0.00    -0.345 N 
HETATM    3  O           1     -22.010  -7.346  -4.718  0.00  0.00    -0.271 OA
HETATM    4  H           1     -20.574  -4.560  -4.617  0.00  0.00     0.163 HD
ENDROOT
BRANCH   1   5
HETATM    5  C           1     -21.249  -6.322  -2.736  0.00  0.00     0.283 C 
BRANCH   5   6
HETATM    6  C           1     -20.688  -7.650  -2.243  0.00  0.00     0.145 C 
BRANCH   6   7
HETATM    7  C           1     -21.561  -8.186  -1.135  0.00  0.00     0.217 C 
HETATM    8  N           1     -22.393  -9.246  -1.371  0.00  0.00    -0.370 N 
HETATM    9  H           1     -22.978  -9.606  -0.628  0.00  0.00     0.159 HD
HETATM   10  H           1     -22.423  -9.671  -2.289  0.00  0.00     0.159 HD
HETATM   11  O           1     -21.524  -7.679  -0.038  0.00  0.00    -0.274 OA
ENDBRANCH   6   7
ENDBRANCH   5   6
BRANCH   5  12
HETATM   12  N           1     -22.558  -6.050  -2.057  0.00  0.00    -0.066 N 
HETATM   13  H           1     -23.219  -5.611  -2.737  0.00  0.00     0.275 HD
HETATM   14  H           1     -22.963  -6.949  -1.710  0.00  0.00     0.275 HD
HETATM   15  H           1     -22.406  -5.402  -1.252  0.00  0.00     0.275 HD
ENDBRANCH   5  12
ENDBRANCH   1   5
BRANCH   2  16
HETATM   16  C           1     -21.238  -5.425  -6.461  0.00  0.00     0.186 C 
BRANCH  16  17
HETATM   17  C           1     -21.780  -4.091  -6.955  0.00  0.00     0.046 C 
BRANCH  17  18
HETATM   18  C           1     -23.104  -4.315  -7.673  0.00  0.00     0.076 C 
BRANCH  18  19
HETATM   19  S           1     -22.874  -4.082  -9.458  0.00  0.00    -0.173 SA
HETATM   20  C           1     -24.530  -3.418  -9.788  0.00  0.00     0.089 C 
ENDBRANCH  18  19
ENDBRANCH  17  18
ENDBRANCH  16  17
BRANCH  16  21
HETATM   21  C           1     -19.924  -5.719  -7.142  0.00  0.00     0.196 C 
HETATM   22  O           1     -19.424  -6.862  -7.067  0.00  0.00    -0.646 OA
HETATM   23  O           1     -19.334  -4.820  -7.779  0.00  0.00    -0.646 OA
ENDBRANCH  16  21
ENDBRANCH   2  16
TORSDOF 9
ENDMDL
