MODEL 1
REMARK VINA RESULT:      -7.8      0.000      0.000
REMARK  13 active torsions:
REMARK  status: ('A' for Active; 'I' for Inactive)
REMARK    1  A    between atoms: C_2  and  C_4 
REMARK    2  A    between atoms: C_4  and  C_5 
REMARK    3  A    between atoms: C_4  and  N_17 
REMARK    4  A    between atoms: C_5  and  C_6 
REMARK    5  A    between atoms: C_9  and  O_10 
REMARK    6  A    between atoms: O_10  and  P_11 
REMARK    7  A    between atoms: P_11  and  O_13 
REMARK       I    between atoms: N_17  and  C_18 
REMARK    8  A    between atoms: C_18  and  C_19 
REMARK    9  A    between atoms: C_19  and  C_20 
REMARK   10  A    between atoms: C_19  and  N_26 
REMARK   11  A    between atoms: C_20  and  O_21 
REMARK   12  A    between atoms: O_21  and  P_22 
REMARK   13  A    between atoms: P_22  and  O_23 
ROOT
HETATM    1  C           1     -32.383  -4.511 -16.339  0.00  0.00     0.189 C 
ENDROOT
BRANCH   1   2
HETATM    2  C           1     -32.366  -3.335 -17.284  0.00  0.00     0.197 C 
HETATM    3  O           1     -31.280  -2.910 -17.733  0.00  0.00    -0.646 OA
HETATM    4  O           1     -33.439  -2.787 -17.620  0.00  0.00    -0.646 OA
ENDBRANCH   1   2
BRANCH   1   5
HETATM    5  C           1     -31.970  -5.771 -17.088  0.00  0.00     0.074 C 
BRANCH   5   6
HETATM    6  C           1     -30.613  -6.204 -16.626  0.00  0.00    -0.056 A 
HETATM    7  C           1     -29.953  -7.245 -17.277  0.00  0.00     0.010 A 
HETATM    8  C           1     -28.689  -7.648 -16.846  0.00  0.00     0.038 A 
HETATM    9  C           1     -28.085  -7.008 -15.764  0.00  0.00     0.081 A 
HETATM   10  C           1     -28.744  -5.967 -15.112  0.00  0.00     0.038 A 
HETATM   11  C           1     -30.009  -5.564 -15.543  0.00  0.00     0.010 A 
BRANCH   9  12
HETATM   12  O           1     -26.857  -7.400 -15.345  0.00  0.00    -0.247 OA
BRANCH  12  13
HETATM   13  P           1     -25.567  -6.708 -16.027  0.00  0.00     0.411 P 
HETATM   14  O           1     -25.971  -6.039 -17.284  0.00  0.00    -0.624 OA
HETATM   15  O           1     -24.552  -7.743 -16.325  0.00  0.00    -0.624 OA
BRANCH  13  16
HETATM   16  O           1     -24.943  -5.618 -15.013  0.00  0.00    -0.300 OA
HETATM   17  H           1     -24.131  -5.351 -15.410  0.00  0.00     0.223 HD
ENDBRANCH  13  16
ENDBRANCH  12  13
ENDBRANCH   9  12
ENDBRANCH   5   6
ENDBRANCH   1   5
BRANCH   1  18
HETATM   18  N           1     -33.721  -4.683 -15.807  0.00  0.00    -0.344 N 
HETATM   19  C           1     -34.073  -4.081 -14.630  0.00  0.00     0.251 C 
HETATM   20  O           1     -34.545  -2.968 -14.636  0.00  0.00    -0.271 OA
HETATM   21  H           1     -34.396  -5.247 -16.308  0.00  0.00     0.163 HD
BRANCH  19  22
HETATM   22  C           1     -33.870  -4.806 -13.322  0.00  0.00     0.298 C 
BRANCH  22  23
HETATM   23  C           1     -34.942  -4.375 -12.329  0.00  0.00     0.224 C 
BRANCH  23  24
HETATM   24  O           1     -34.352  -3.630 -11.299  0.00  0.00    -0.287 OA
BRANCH  24  25
HETATM   25  P           1     -34.961  -2.153 -11.056  0.00  0.00     0.406 P 
HETATM   26  O           1     -36.409  -2.258 -10.769  0.00  0.00    -0.624 OA
HETATM   27  O           1     -34.274  -1.519  -9.908  0.00  0.00    -0.624 OA
BRANCH  25  28
HETATM   28  O           1     -34.739  -1.254 -12.379  0.00  0.00    -0.300 OA
HETATM   29  H           1     -35.229  -1.690 -13.055  0.00  0.00     0.223 HD
ENDBRANCH  25  28
ENDBRANCH  24  25
ENDBRANCH  23  24
ENDBRANCH  22  23
BRANCH  22  30
HETATM   30  N           1     -32.515  -4.471 -12.770  0.00  0.00    -0.064 N 
HETATM   31  H           1     -32.028  -5.351 -12.487  0.00  0.00     0.275 HD
HETATM   32  H           1     -31.953  -3.982 -13.502  0.00  0.00     0.275 HD
HETATM   33  H           1     -32.622  -3.848 -11.938  0.00  0.00     0.275 HD
ENDBRANCH  22  30
ENDBRANCH  19  22
ENDBRANCH   1  18
TORSDOF 13
ENDMDL
MODEL 2
REMARK VINA RESULT:      -7.2     10.321     13.811
REMARK  13 active torsions:
REMARK  status: ('A' for Active; 'I' for Inactive)
REMARK    1  A    between atoms: C_2  and  C_4 
REMARK    2  A    between atoms: C_4  and  C_5 
REMARK    3  A    between atoms: C_4  and  N_17 
REMARK    4  A    between atoms: C_5  and  C_6 
REMARK    5  A    between atoms: C_9  and  O_10 
REMARK    6  A    between atoms: O_10  and  P_11 
REMARK    7  A    between atoms: P_11  and  O_13 
REMARK       I    between atoms: N_17  and  C_18 
REMARK    8  A    between atoms: C_18  and  C_19 
REMARK    9  A    between atoms: C_19  and  C_20 
REMARK   10  A    between atoms: C_19  and  N_26 
REMARK   11  A    between atoms: C_20  and  O_21 
REMARK   12  A    between atoms: O_21  and  P_22 
REMARK   13  A    between atoms: P_22  and  O_23 
ROOT
HETATM    1  C           1     -21.242  -6.035  -7.104  0.00  0.00     0.189 C 
ENDROOT
BRANCH   1   2
HETATM    2  C           1     -19.787  -5.894  -6.729  0.00  0.00     0.197 C 
HETATM    3  O           1     -18.994  -6.836  -6.939  0.00  0.00    -0.646 OA
HETATM    4  O           1     -19.375  -4.833  -6.209  0.00  0.00    -0.646 OA
ENDBRANCH   1   2
BRANCH   1   5
HETATM    5  C           1     -21.927  -4.678  -7.001  0.00  0.00     0.074 C 
BRANCH   5   6
HETATM    6  C           1     -22.205  -4.155  -8.376  0.00  0.00    -0.056 A 
HETATM    7  C           1     -23.490  -3.734  -8.716  0.00  0.00     0.010 A 
HETATM    8  C           1     -23.750  -3.247  -9.998  0.00  0.00     0.038 A 
HETATM    9  C           1     -22.722  -3.180 -10.939  0.00  0.00     0.081 A 
HETATM   10  C           1     -21.437  -3.601 -10.600  0.00  0.00     0.038 A 
HETATM   11  C           1     -21.178  -4.089  -9.317  0.00  0.00     0.010 A 
BRANCH   9  12
HETATM   12  O           1     -22.974  -2.708 -12.183  0.00  0.00    -0.247 OA
BRANCH  12  13
HETATM   13  P           1     -23.990  -3.544 -13.120  0.00  0.00     0.411 P 
HETATM   14  O           1     -25.359  -3.003 -12.972  0.00  0.00    -0.624 OA
HETATM   15  O           1     -23.976  -4.967 -12.716  0.00  0.00    -0.624 OA
BRANCH  13  16
HETATM   16  O           1     -23.526  -3.417 -14.662  0.00  0.00    -0.300 OA
HETATM   17  H           1     -24.257  -3.022 -15.106  0.00  0.00     0.223 HD
ENDBRANCH  13  16
ENDBRANCH  12  13
ENDBRANCH   9  12
ENDBRANCH   5   6
ENDBRANCH   1   5
BRANCH   1  18
HETATM   18  N           1     -21.884  -6.968  -6.199  0.00  0.00    -0.344 N 
HETATM   19  C           1     -22.357  -6.535  -4.990  0.00  0.00     0.251 C 
HETATM   20  O           1     -23.491  -6.129  -4.893  0.00  0.00    -0.271 OA
HETATM   21  H           1     -21.985  -7.940  -6.463  0.00  0.00     0.163 HD
BRANCH  19  22
HETATM   22  C           1     -21.461  -6.563  -3.776  0.00  0.00     0.298 C 
BRANCH  22  23
HETATM   23  C           1     -21.049  -7.999  -3.480  0.00  0.00     0.224 C 
BRANCH  23  24
HETATM   24  O           1     -19.823  -8.271  -4.104  0.00  0.00    -0.287 OA
BRANCH  24  25
HETATM   25  P           1     -19.752  -9.644  -4.953  0.00  0.00     0.406 P 
HETATM   26  O           1     -19.589 -10.787  -4.027  0.00  0.00    -0.624 OA
HETATM   27  O           1     -21.001  -9.810  -5.729  0.00  0.00    -0.624 OA
BRANCH  25  28
HETATM   28  O           1     -18.494  -9.587  -5.964  0.00  0.00    -0.300 OA
HETATM   29  H           1     -18.874  -9.521  -6.823  0.00  0.00     0.223 HD
ENDBRANCH  25  28
ENDBRANCH  24  25
ENDBRANCH  23  24
ENDBRANCH  22  23
BRANCH  22  30
HETATM   30  N           1     -22.200  -6.002  -2.597  0.00  0.00    -0.064 N 
HETATM   31  H           1     -23.048  -6.583  -2.410  0.00  0.00     0.275 HD
HETATM   32  H           1     -21.578  -6.015  -1.758  0.00  0.00     0.275 HD
HETATM   33  H           1     -22.489  -5.019  -2.803  0.00  0.00     0.275 HD
ENDBRANCH  22  30
ENDBRANCH  19  22
ENDBRANCH   1  18
TORSDOF 13
ENDMDL
MODEL 3
REMARK VINA RESULT:      -7.1     12.120     14.785
REMARK  13 active torsions:
REMARK  status: ('A' for Active; 'I' for Inactive)
REMARK    1  A    between atoms: C_2  and  C_4 
REMARK    2  A    between atoms: C_4  and  C_5 
REMARK    3  A    between atoms: C_4  and  N_17 
REMARK    4  A    between atoms: C_5  and  C_6 
REMARK    5  A    between atoms: C_9  and  O_10 
REMARK    6  A    between atoms: O_10  and  P_11 
REMARK    7  A    between atoms: P_11  and  O_13 
REMARK       I    between atoms: N_17  and  C_18 
REMARK    8  A    between atoms: C_18  and  C_19 
REMARK    9  A    between atoms: C_19  and  C_20 
REMARK   10  A    between atoms: C_19  and  N_26 
REMARK   11  A    between atoms: C_20  and  O_21 
REMARK   12  A    between atoms: O_21  and  P_22 
REMARK   13  A    between atoms: P_22  and  O_23 
ROOT
HETATM    1  C           1     -20.575  -7.449  -5.717  0.00  0.00     0.189 C 
ENDROOT
BRANCH   1   2
HETATM    2  C           1     -19.313  -8.252  -5.519  0.00  0.00     0.197 C 
HETATM    3  O           1     -19.082  -8.792  -4.416  0.00  0.00    -0.646 OA
HETATM    4  O           1     -18.498  -8.378  -6.460  0.00  0.00    -0.646 OA
ENDBRANCH   1   2
BRANCH   1   5
HETATM    5  C           1     -20.247  -5.963  -5.653  0.00  0.00     0.074 C 
BRANCH   5   6
HETATM    6  C           1     -20.762  -5.285  -6.884  0.00  0.00    -0.056 A 
HETATM    7  C           1     -21.931  -4.528  -6.827  0.00  0.00     0.010 A 
HETATM    8  C           1     -22.411  -3.897  -7.975  0.00  0.00     0.038 A 
HETATM    9  C           1     -21.720  -4.022  -9.180  0.00  0.00     0.081 A 
HETATM   10  C           1     -20.550  -4.780  -9.238  0.00  0.00     0.038 A 
HETATM   11  C           1     -20.070  -5.411  -8.089  0.00  0.00     0.010 A 
BRANCH   9  12
HETATM   12  O           1     -22.186  -3.410 -10.295  0.00  0.00    -0.247 OA
BRANCH  12  13
HETATM   13  P           1     -23.608  -3.894 -10.888  0.00  0.00     0.411 P 
HETATM   14  O           1     -23.805  -5.331 -10.589  0.00  0.00    -0.624 OA
HETATM   15  O           1     -23.628  -3.689 -12.353  0.00  0.00    -0.624 OA
BRANCH  13  16
HETATM   16  O           1     -24.794  -3.036 -10.207  0.00  0.00    -0.300 OA
HETATM   17  H           1     -24.953  -3.453  -9.377  0.00  0.00     0.223 HD
ENDBRANCH  13  16
ENDBRANCH  12  13
ENDBRANCH   9  12
ENDBRANCH   5   6
ENDBRANCH   1   5
BRANCH   1  18
HETATM   18  N           1     -21.524  -7.778  -4.672  0.00  0.00    -0.344 N 
HETATM   19  C           1     -22.034  -6.790  -3.874  0.00  0.00     0.251 C 
HETATM   20  O           1     -23.047  -6.216  -4.194  0.00  0.00    -0.271 OA
HETATM   21  H           1     -21.810  -8.739  -4.533  0.00  0.00     0.163 HD
BRANCH  19  22
HETATM   22  C           1     -21.330  -6.417  -2.592  0.00  0.00     0.298 C 
BRANCH  22  23
HETATM   23  C           1     -20.929  -7.682  -1.844  0.00  0.00     0.224 C 
BRANCH  23  24
HETATM   24  O           1     -22.051  -8.509  -1.691  0.00  0.00    -0.287 OA
BRANCH  24  25
HETATM   25  P           1     -22.537  -8.768  -0.173  0.00  0.00     0.406 P 
HETATM   26  O           1     -23.356  -7.623   0.285  0.00  0.00    -0.624 OA
HETATM   27  O           1     -23.345 -10.007  -0.117  0.00  0.00    -0.624 OA
BRANCH  25  28
HETATM   28  O           1     -21.247  -8.924   0.787  0.00  0.00    -0.300 OA
HETATM   29  H           1     -20.506  -8.904   0.206  0.00  0.00     0.223 HD
ENDBRANCH  25  28
ENDBRANCH  24  25
ENDBRANCH  23  24
ENDBRANCH  22  23
BRANCH  22  30
HETATM   30  N           1     -22.253  -5.601  -1.735  0.00  0.00    -0.064 N 
HETATM   31  H           1     -22.838  -6.238  -1.150  0.00  0.00     0.275 HD
HETATM   32  H           1     -21.690  -4.977  -1.114  0.00  0.00     0.275 HD
HETATM   33  H           1     -22.872  -5.021  -2.345  0.00  0.00     0.275 HD
ENDBRANCH  22  30
ENDBRANCH  19  22
ENDBRANCH   1  18
TORSDOF 13
ENDMDL
MODEL 4
REMARK VINA RESULT:      -7.0     10.907     13.815
REMARK  13 active torsions:
REMARK  status: ('A' for Active; 'I' for Inactive)
REMARK    1  A    between atoms: C_2  and  C_4 
REMARK    2  A    between atoms: C_4  and  C_5 
REMARK    3  A    between atoms: C_4  and  N_17 
REMARK    4  A    between atoms: C_5  and  C_6 
REMARK    5  A    between atoms: C_9  and  O_10 
REMARK    6  A    between atoms: O_10  and  P_11 
REMARK    7  A    between atoms: P_11  and  O_13 
REMARK       I    between atoms: N_17  and  C_18 
REMARK    8  A    between atoms: C_18  and  C_19 
REMARK    9  A    between atoms: C_19  and  C_20 
REMARK   10  A    between atoms: C_19  and  N_26 
REMARK   11  A    between atoms: C_20  and  O_21 
REMARK   12  A    between atoms: O_21  and  P_22 
REMARK   13  A    between atoms: P_22  and  O_23 
ROOT
HETATM    1  C           1     -21.215  -6.087  -7.044  0.00  0.00     0.189 C 
ENDROOT
BRANCH   1   2
HETATM    2  C           1     -19.747  -5.961  -6.719  0.00  0.00     0.197 C 
HETATM    3  O           1     -19.005  -6.965  -6.776  0.00  0.00    -0.646 OA
HETATM    4  O           1     -19.271  -4.850  -6.394  0.00  0.00    -0.646 OA
ENDBRANCH   1   2
BRANCH   1   5
HETATM    5  C           1     -21.871  -4.714  -6.972  0.00  0.00     0.074 C 
BRANCH   5   6
HETATM    6  C           1     -22.112  -4.204  -8.359  0.00  0.00    -0.056 A 
HETATM    7  C           1     -21.063  -4.154  -9.276  0.00  0.00     0.010 A 
HETATM    8  C           1     -21.288  -3.678 -10.568  0.00  0.00     0.038 A 
HETATM    9  C           1     -22.563  -3.254 -10.943  0.00  0.00     0.081 A 
HETATM   10  C           1     -23.612  -3.304 -10.026  0.00  0.00     0.038 A 
HETATM   11  C           1     -23.387  -3.780  -8.733  0.00  0.00     0.010 A 
BRANCH   9  12
HETATM   12  O           1     -22.781  -2.791 -12.198  0.00  0.00    -0.247 OA
BRANCH  12  13
HETATM   13  P           1     -23.907  -3.527 -13.092  0.00  0.00     0.411 P 
HETATM   14  O           1     -23.649  -3.265 -14.525  0.00  0.00    -0.624 OA
HETATM   15  O           1     -25.244  -3.007 -12.728  0.00  0.00    -0.624 OA
BRANCH  13  16
HETATM   16  O           1     -23.855  -5.118 -12.818  0.00  0.00    -0.300 OA
HETATM   17  H           1     -24.686  -5.445 -13.119  0.00  0.00     0.223 HD
ENDBRANCH  13  16
ENDBRANCH  12  13
ENDBRANCH   9  12
ENDBRANCH   5   6
ENDBRANCH   1   5
BRANCH   1  18
HETATM   18  N           1     -21.845  -6.974  -6.085  0.00  0.00    -0.344 N 
HETATM   19  C           1     -22.386  -6.464  -4.935  0.00  0.00     0.251 C 
HETATM   20  O           1     -23.542  -6.112  -4.914  0.00  0.00    -0.271 OA
HETATM   21  H           1     -21.887  -7.968  -6.266  0.00  0.00     0.163 HD
BRANCH  19  22
HETATM   22  C           1     -21.539  -6.342  -3.692  0.00  0.00     0.298 C 
BRANCH  22  23
HETATM   23  C           1     -20.928  -7.696  -3.357  0.00  0.00     0.224 C 
BRANCH  23  24
HETATM   24  O           1     -20.999  -7.911  -1.973  0.00  0.00    -0.287 OA
BRANCH  24  25
HETATM   25  P           1     -21.564  -9.351  -1.509  0.00  0.00     0.406 P 
HETATM   26  O           1     -20.533 -10.051  -0.711  0.00  0.00    -0.624 OA
HETATM   27  O           1     -22.781  -9.163  -0.688  0.00  0.00    -0.624 OA
BRANCH  25  28
HETATM   28  O           1     -21.926 -10.234  -2.812  0.00  0.00    -0.300 OA
HETATM   29  H           1     -22.195 -11.070  -2.473  0.00  0.00     0.223 HD
ENDBRANCH  25  28
ENDBRANCH  24  25
ENDBRANCH  23  24
ENDBRANCH  22  23
BRANCH  22  30
HETATM   30  N           1     -22.395  -5.883  -2.548  0.00  0.00    -0.064 N 
HETATM   31  H           1     -23.150  -5.256  -2.909  0.00  0.00     0.275 HD
HETATM   32  H           1     -22.826  -6.712  -2.081  0.00  0.00     0.275 HD
HETATM   33  H           1     -21.807  -5.361  -1.861  0.00  0.00     0.275 HD
ENDBRANCH  22  30
ENDBRANCH  19  22
ENDBRANCH   1  18
TORSDOF 13
ENDMDL
MODEL 5
REMARK VINA RESULT:      -6.5     12.280     14.896
REMARK  13 active torsions:
REMARK  status: ('A' for Active; 'I' for Inactive)
REMARK    1  A    between atoms: C_2  and  C_4 
REMARK    2  A    between atoms: C_4  and  C_5 
REMARK    3  A    between atoms: C_4  and  N_17 
REMARK    4  A    between atoms: C_5  and  C_6 
REMARK    5  A    between atoms: C_9  and  O_10 
REMARK    6  A    between atoms: O_10  and  P_11 
REMARK    7  A    between atoms: P_11  and  O_13 
REMARK       I    between atoms: N_17  and  C_18 
REMARK    8  A    between atoms: C_18  and  C_19 
REMARK    9  A    between atoms: C_19  and  C_20 
REMARK   10  A    between atoms: C_19  and  N_26 
REMARK   11  A    between atoms: C_20  and  O_21 
REMARK   12  A    between atoms: O_21  and  P_22 
REMARK   13  A    between atoms: P_22  and  O_23 
ROOT
HETATM    1  C           1     -21.185  -6.984  -4.918  0.00  0.00     0.189 C 
ENDROOT
BRANCH   1   2
HETATM    2  C           1     -20.564  -8.074  -5.757  0.00  0.00     0.197 C 
HETATM    3  O           1     -21.245  -9.066  -6.095  0.00  0.00    -0.646 OA
HETATM    4  O           1     -19.369  -7.984  -6.115  0.00  0.00    -0.646 OA
ENDBRANCH   1   2
BRANCH   1   5
HETATM    5  C           1     -20.503  -5.657  -5.225  0.00  0.00     0.074 C 
BRANCH   5   6
HETATM    6  C           1     -21.130  -5.044  -6.439  0.00  0.00    -0.056 A 
HETATM    7  C           1     -20.329  -4.608  -7.494  0.00  0.00     0.010 A 
HETATM    8  C           1     -20.913  -4.036  -8.624  0.00  0.00     0.038 A 
HETATM    9  C           1     -22.299  -3.902  -8.700  0.00  0.00     0.081 A 
HETATM   10  C           1     -23.101  -4.338  -7.645  0.00  0.00     0.038 A 
HETATM   11  C           1     -22.516  -4.909  -6.514  0.00  0.00     0.010 A 
BRANCH   9  12
HETATM   12  O           1     -22.867  -3.347  -9.798  0.00  0.00    -0.247 OA
BRANCH  12  13
HETATM   13  P           1     -23.231  -4.317 -11.036  0.00  0.00     0.411 P 
HETATM   14  O           1     -24.135  -3.610 -11.971  0.00  0.00    -0.624 OA
HETATM   15  O           1     -23.903  -5.534 -10.528  0.00  0.00    -0.624 OA
BRANCH  13  16
HETATM   16  O           1     -21.876  -4.733 -11.809  0.00  0.00    -0.300 OA
HETATM   17  H           1     -21.827  -4.150 -12.548  0.00  0.00     0.223 HD
ENDBRANCH  13  16
ENDBRANCH  12  13
ENDBRANCH   9  12
ENDBRANCH   5   6
ENDBRANCH   1   5
BRANCH   1  18
HETATM   18  N           1     -21.013  -7.300  -3.513  0.00  0.00    -0.344 N 
HETATM   19  C           1     -20.594  -8.548  -3.139  0.00  0.00     0.251 C 
HETATM   20  O           1     -19.414  -8.782  -3.024  0.00  0.00    -0.271 OA
HETATM   21  H           1     -21.201  -6.597  -2.810  0.00  0.00     0.163 HD
BRANCH  19  22
HETATM   22  C           1     -21.606  -9.634  -2.869  0.00  0.00     0.298 C 
BRANCH  22  23
HETATM   23  C           1     -21.665  -9.915  -1.373  0.00  0.00     0.224 C 
BRANCH  23  24
HETATM   24  O           1     -22.820  -9.332  -0.833  0.00  0.00    -0.287 OA
BRANCH  24  25
HETATM   25  P           1     -22.597  -7.973   0.010  0.00  0.00     0.406 P 
HETATM   26  O           1     -21.276  -8.017   0.676  0.00  0.00    -0.624 OA
HETATM   27  O           1     -22.651  -6.809  -0.904  0.00  0.00    -0.624 OA
BRANCH  25  28
HETATM   28  O           1     -23.757  -7.834   1.126  0.00  0.00    -0.300 OA
HETATM   29  H           1     -23.615  -8.554   1.717  0.00  0.00     0.223 HD
ENDBRANCH  25  28
ENDBRANCH  24  25
ENDBRANCH  23  24
ENDBRANCH  22  23
BRANCH  22  30
HETATM   30  N           1     -21.204 -10.884  -3.597  0.00  0.00    -0.064 N 
HETATM   31  H           1     -21.106 -11.668  -2.913  0.00  0.00     0.275 HD
HETATM   32  H           1     -21.936 -11.127  -4.301  0.00  0.00     0.275 HD
HETATM   33  H           1     -20.291 -10.726  -4.080  0.00  0.00     0.275 HD
ENDBRANCH  22  30
ENDBRANCH  19  22
ENDBRANCH   1  18
TORSDOF 13
ENDMDL
MODEL 6
REMARK VINA RESULT:      -6.5     12.286     15.053
REMARK  13 active torsions:
REMARK  status: ('A' for Active; 'I' for Inactive)
REMARK    1  A    between atoms: C_2  and  C_4 
REMARK    2  A    between atoms: C_4  and  C_5 
REMARK    3  A    between atoms: C_4  and  N_17 
REMARK    4  A    between atoms: C_5  and  C_6 
REMARK    5  A    between atoms: C_9  and  O_10 
REMARK    6  A    between atoms: O_10  and  P_11 
REMARK    7  A    between atoms: P_11  and  O_13 
REMARK       I    between atoms: N_17  and  C_18 
REMARK    8  A    between atoms: C_18  and  C_19 
REMARK    9  A    between atoms: C_19  and  C_20 
REMARK   10  A    between atoms: C_19  and  N_26 
REMARK   11  A    between atoms: C_20  and  O_21 
REMARK   12  A    between atoms: O_21  and  P_22 
REMARK   13  A    between atoms: P_22  and  O_23 
ROOT
HETATM    1  C           1     -21.076  -7.021  -6.004  0.00  0.00     0.189 C 
ENDROOT
BRANCH   1   2
HETATM    2  C           1     -21.685  -6.120  -4.959  0.00  0.00     0.197 C 
HETATM    3  O           1     -20.947  -5.493  -4.168  0.00  0.00    -0.646 OA
HETATM    4  O           1     -22.927  -5.998  -4.885  0.00  0.00    -0.646 OA
ENDBRANCH   1   2
BRANCH   1   5
HETATM    5  C           1     -19.868  -7.738  -5.415  0.00  0.00     0.074 C 
BRANCH   5   6
HETATM    6  C           1     -20.326  -8.734  -4.396  0.00  0.00    -0.056 A 
HETATM    7  C           1     -19.629  -8.876  -3.197  0.00  0.00     0.010 A 
HETATM    8  C           1     -20.056  -9.805  -2.247  0.00  0.00     0.038 A 
HETATM    9  C           1     -21.182 -10.589  -2.497  0.00  0.00     0.081 A 
HETATM   10  C           1     -21.880 -10.447  -3.696  0.00  0.00     0.038 A 
HETATM   11  C           1     -21.452  -9.518  -4.646  0.00  0.00     0.010 A 
BRANCH   9  12
HETATM   12  O           1     -21.597 -11.491  -1.574  0.00  0.00    -0.247 OA
BRANCH  12  13
HETATM   13  P           1     -22.313 -10.934  -0.238  0.00  0.00     0.411 P 
HETATM   14  O           1     -21.309 -10.796   0.840  0.00  0.00    -0.624 OA
HETATM   15  O           1     -23.367 -11.882   0.188  0.00  0.00    -0.624 OA
BRANCH  13  16
HETATM   16  O           1     -22.975  -9.493  -0.544  0.00  0.00    -0.300 OA
HETATM   17  H           1     -23.032  -9.067   0.294  0.00  0.00     0.223 HD
ENDBRANCH  13  16
ENDBRANCH  12  13
ENDBRANCH   9  12
ENDBRANCH   5   6
ENDBRANCH   1   5
BRANCH   1  18
HETATM   18  N           1     -20.658  -6.226  -7.142  0.00  0.00    -0.344 N 
HETATM   19  C           1     -21.211  -4.992  -7.355  0.00  0.00     0.251 C 
HETATM   20  O           1     -20.705  -4.010  -6.867  0.00  0.00    -0.271 OA
HETATM   21  H           1     -19.956  -6.583  -7.778  0.00  0.00     0.163 HD
BRANCH  19  22
HETATM   22  C           1     -22.453  -4.858  -8.201  0.00  0.00     0.298 C 
BRANCH  22  23
HETATM   23  C           1     -22.181  -3.907  -9.359  0.00  0.00     0.224 C 
BRANCH  23  24
HETATM   24  O           1     -23.396  -3.400  -9.842  0.00  0.00    -0.287 OA
BRANCH  24  25
HETATM   25  P           1     -23.593  -3.443 -11.444  0.00  0.00     0.406 P 
HETATM   26  O           1     -24.979  -3.047 -11.781  0.00  0.00    -0.624 OA
HETATM   27  O           1     -22.643  -2.506 -12.084  0.00  0.00    -0.624 OA
BRANCH  25  28
HETATM   28  O           1     -23.316  -4.941 -11.982  0.00  0.00    -0.300 OA
HETATM   29  H           1     -22.773  -5.340 -11.323  0.00  0.00     0.223 HD
ENDBRANCH  25  28
ENDBRANCH  24  25
ENDBRANCH  23  24
ENDBRANCH  22  23
BRANCH  22  30
HETATM   30  N           1     -23.572  -4.315  -7.360  0.00  0.00    -0.064 N 
HETATM   31  H           1     -24.010  -5.094  -6.819  0.00  0.00     0.275 HD
HETATM   32  H           1     -23.194  -3.601  -6.698  0.00  0.00     0.275 HD
HETATM   33  H           1     -24.289  -3.873  -7.979  0.00  0.00     0.275 HD
ENDBRANCH  22  30
ENDBRANCH  19  22
ENDBRANCH   1  18
TORSDOF 13
ENDMDL
MODEL 7
REMARK VINA RESULT:      -6.3     13.451     16.171
REMARK  13 active torsions:
REMARK  status: ('A' for Active; 'I' for Inactive)
REMARK    1  A    between atoms: C_2  and  C_4 
REMARK    2  A    between atoms: C_4  and  C_5 
REMARK    3  A    between atoms: C_4  and  N_17 
REMARK    4  A    between atoms: C_5  and  C_6 
REMARK    5  A    between atoms: C_9  and  O_10 
REMARK    6  A    between atoms: O_10  and  P_11 
REMARK    7  A    between atoms: P_11  and  O_13 
REMARK       I    between atoms: N_17  and  C_18 
REMARK    8  A    between atoms: C_18  and  C_19 
REMARK    9  A    between atoms: C_19  and  C_20 
REMARK   10  A    between atoms: C_19  and  N_26 
REMARK   11  A    between atoms: C_20  and  O_21 
REMARK   12  A    between atoms: O_21  and  P_22 
REMARK   13  A    between atoms: P_22  and  O_23 
ROOT
HETATM    1  C           1     -21.224  -7.764  -2.051  0.00  0.00     0.189 C 
ENDROOT
BRANCH   1   2
HETATM    2  C           1     -21.993  -7.510  -0.779  0.00  0.00     0.197 C 
HETATM    3  O           1     -21.730  -8.167   0.252  0.00  0.00    -0.646 OA
HETATM    4  O           1     -22.893  -6.642  -0.754  0.00  0.00    -0.646 OA
ENDBRANCH   1   2
BRANCH   1   5
HETATM    5  C           1     -19.820  -8.246  -1.708  0.00  0.00     0.074 C 
BRANCH   5   6
HETATM    6  C           1     -19.441  -9.371  -2.621  0.00  0.00    -0.056 A 
HETATM    7  C           1     -18.098  -9.632  -2.888  0.00  0.00     0.010 A 
HETATM    8  C           1     -17.746 -10.679  -3.739  0.00  0.00     0.038 A 
HETATM    9  C           1     -18.738 -11.466  -4.323  0.00  0.00     0.081 A 
HETATM   10  C           1     -20.082 -11.206  -4.057  0.00  0.00     0.038 A 
HETATM   11  C           1     -20.434 -10.157  -3.205  0.00  0.00     0.010 A 
BRANCH   9  12
HETATM   12  O           1     -18.397 -12.484  -5.150  0.00  0.00    -0.247 OA
BRANCH  12  13
HETATM   13  P           1     -17.875 -12.113  -6.633  0.00  0.00     0.411 P 
HETATM   14  O           1     -18.734 -11.053  -7.209  0.00  0.00    -0.624 OA
HETATM   15  O           1     -17.934 -13.316  -7.492  0.00  0.00    -0.624 OA
BRANCH  13  16
HETATM   16  O           1     -16.352 -11.584  -6.550  0.00  0.00    -0.300 OA
HETATM   17  H           1     -15.938 -11.908  -7.332  0.00  0.00     0.223 HD
ENDBRANCH  13  16
ENDBRANCH  12  13
ENDBRANCH   9  12
ENDBRANCH   5   6
ENDBRANCH   1   5
BRANCH   1  18
HETATM   18  N           1     -21.138  -6.535  -2.816  0.00  0.00    -0.344 N 
HETATM   19  C           1     -21.550  -6.511  -4.121  0.00  0.00     0.251 C 
HETATM   20  O           1     -22.697  -6.243  -4.389  0.00  0.00    -0.271 OA
HETATM   21  H           1     -20.775  -5.695  -2.385  0.00  0.00     0.163 HD
BRANCH  19  22
HETATM   22  C           1     -20.571  -6.821  -5.227  0.00  0.00     0.298 C 
BRANCH  22  23
HETATM   23  C           1     -20.393  -5.592  -6.109  0.00  0.00     0.224 C 
BRANCH  23  24
HETATM   24  O           1     -21.210  -5.708  -7.242  0.00  0.00    -0.287 OA
BRANCH  24  25
HETATM   25  P           1     -22.136  -4.428  -7.580  0.00  0.00     0.406 P 
HETATM   26  O           1     -21.433  -3.191  -7.170  0.00  0.00    -0.624 OA
HETATM   27  O           1     -22.405  -4.384  -9.035  0.00  0.00    -0.624 OA
BRANCH  25  28
HETATM   28  O           1     -23.532  -4.545  -6.777  0.00  0.00    -0.300 OA
HETATM   29  H           1     -23.320  -5.008  -5.985  0.00  0.00     0.223 HD
ENDBRANCH  25  28
ENDBRANCH  24  25
ENDBRANCH  23  24
ENDBRANCH  22  23
BRANCH  22  30
HETATM   30  N           1     -21.096  -7.958  -6.054  0.00  0.00    -0.064 N 
HETATM   31  H           1     -21.935  -7.640  -6.589  0.00  0.00     0.275 HD
HETATM   32  H           1     -20.357  -8.272  -6.722  0.00  0.00     0.275 HD
HETATM   33  H           1     -21.361  -8.751  -5.428  0.00  0.00     0.275 HD
ENDBRANCH  22  30
ENDBRANCH  19  22
ENDBRANCH   1  18
TORSDOF 13
ENDMDL
MODEL 8
REMARK VINA RESULT:      -6.3     12.570     15.597
REMARK  13 active torsions:
REMARK  status: ('A' for Active; 'I' for Inactive)
REMARK    1  A    between atoms: C_2  and  C_4 
REMARK    2  A    between atoms: C_4  and  C_5 
REMARK    3  A    between atoms: C_4  and  N_17 
REMARK    4  A    between atoms: C_5  and  C_6 
REMARK    5  A    between atoms: C_9  and  O_10 
REMARK    6  A    between atoms: O_10  and  P_11 
REMARK    7  A    between atoms: P_11  and  O_13 
REMARK       I    between atoms: N_17  and  C_18 
REMARK    8  A    between atoms: C_18  and  C_19 
REMARK    9  A    between atoms: C_19  and  C_20 
REMARK   10  A    between atoms: C_19  and  N_26 
REMARK   11  A    between atoms: C_20  and  O_21 
REMARK   12  A    between atoms: O_21  and  P_22 
REMARK   13  A    between atoms: P_22  and  O_23 
ROOT
HETATM    1  C           1     -20.957  -7.383  -3.719  0.00  0.00     0.189 C 
ENDROOT
BRANCH   1   2
HETATM    2  C           1     -21.504  -6.853  -2.416  0.00  0.00     0.197 C 
HETATM    3  O           1     -22.234  -5.838  -2.413  0.00  0.00    -0.646 OA
HETATM    4  O           1     -21.229  -7.429  -1.341  0.00  0.00    -0.646 OA
ENDBRANCH   1   2
BRANCH   1   5
HETATM    5  C           1     -22.029  -7.286  -4.797  0.00  0.00     0.074 C 
BRANCH   5   6
HETATM    6  C           1     -21.581  -6.333  -5.861  0.00  0.00    -0.056 A 
HETATM    7  C           1     -20.297  -6.436  -6.394  0.00  0.00     0.010 A 
HETATM    8  C           1     -19.879  -5.547  -7.385  0.00  0.00     0.038 A 
HETATM    9  C           1     -20.748  -4.557  -7.844  0.00  0.00     0.081 A 
HETATM   10  C           1     -22.033  -4.454  -7.311  0.00  0.00     0.038 A 
HETATM   11  C           1     -22.450  -5.343  -6.319  0.00  0.00     0.010 A 
BRANCH   9  12
HETATM   12  O           1     -20.343  -3.693  -8.806  0.00  0.00    -0.247 OA
BRANCH  12  13
HETATM   13  P           1     -20.585  -4.109 -10.348  0.00  0.00     0.411 P 
HETATM   14  O           1     -21.969  -4.604 -10.516  0.00  0.00    -0.624 OA
HETATM   15  O           1     -19.631  -5.175 -10.727  0.00  0.00    -0.624 OA
BRANCH  13  16
HETATM   16  O           1     -20.356  -2.820 -11.294  0.00  0.00    -0.300 OA
HETATM   17  H           1     -20.783  -3.034 -12.106  0.00  0.00     0.223 HD
ENDBRANCH  13  16
ENDBRANCH  12  13
ENDBRANCH   9  12
ENDBRANCH   5   6
ENDBRANCH   1   5
BRANCH   1  18
HETATM   18  N           1     -20.568  -8.770  -3.548  0.00  0.00    -0.344 N 
HETATM   19  C           1     -19.304  -9.172  -3.884  0.00  0.00     0.251 C 
HETATM   20  O           1     -18.420  -9.138  -3.060  0.00  0.00    -0.271 OA
HETATM   21  H           1     -21.231  -9.440  -3.181  0.00  0.00     0.163 HD
BRANCH  19  22
HETATM   22  C           1     -19.012  -9.657  -5.282  0.00  0.00     0.298 C 
BRANCH  22  23
HETATM   23  C           1     -19.613 -11.043  -5.476  0.00  0.00     0.224 C 
BRANCH  23  24
HETATM   24  O           1     -20.994 -10.927  -5.690  0.00  0.00    -0.287 OA
BRANCH  24  25
HETATM   25  P           1     -21.931 -11.901  -4.806  0.00  0.00     0.406 P 
HETATM   26  O           1     -22.657 -11.101  -3.794  0.00  0.00    -0.624 OA
HETATM   27  O           1     -22.905 -12.584  -5.687  0.00  0.00    -0.624 OA
BRANCH  25  28
HETATM   28  O           1     -21.013 -13.003  -4.063  0.00  0.00    -0.300 OA
HETATM   29  H           1     -20.165 -12.601  -3.983  0.00  0.00     0.223 HD
ENDBRANCH  25  28
ENDBRANCH  24  25
ENDBRANCH  23  24
ENDBRANCH  22  23
BRANCH  22  30
HETATM   30  N           1     -17.527  -9.724  -5.488  0.00  0.00    -0.064 N 
HETATM   31  H           1     -17.100  -8.803  -5.241  0.00  0.00     0.275 HD
HETATM   32  H           1     -17.124 -10.469  -4.876  0.00  0.00     0.275 HD
HETATM   33  H           1     -17.323  -9.946  -6.488  0.00  0.00     0.275 HD
ENDBRANCH  22  30
ENDBRANCH  19  22
ENDBRANCH   1  18
TORSDOF 13
ENDMDL
MODEL 9
REMARK VINA RESULT:      -6.2     12.441     15.154
REMARK  13 active torsions:
REMARK  status: ('A' for Active; 'I' for Inactive)
REMARK    1  A    between atoms: C_2  and  C_4 
REMARK    2  A    between atoms: C_4  and  C_5 
REMARK    3  A    between atoms: C_4  and  N_17 
REMARK    4  A    between atoms: C_5  and  C_6 
REMARK    5  A    between atoms: C_9  and  O_10 
REMARK    6  A    between atoms: O_10  and  P_11 
REMARK    7  A    between atoms: P_11  and  O_13 
REMARK       I    between atoms: N_17  and  C_18 
REMARK    8  A    between atoms: C_18  and  C_19 
REMARK    9  A    between atoms: C_19  and  C_20 
REMARK   10  A    between atoms: C_19  and  N_26 
REMARK   11  A    between atoms: C_20  and  O_21 
REMARK   12  A    between atoms: O_21  and  P_22 
REMARK   13  A    between atoms: P_22  and  O_23 
ROOT
HETATM    1  C           1     -21.026  -6.795  -4.246  0.00  0.00     0.189 C 
ENDROOT
BRANCH   1   2
HETATM    2  C           1     -21.570  -6.579  -2.856  0.00  0.00     0.197 C 
HETATM    3  O           1     -22.627  -5.933  -2.691  0.00  0.00    -0.646 OA
HETATM    4  O           1     -20.964  -7.049  -1.867  0.00  0.00    -0.646 OA
ENDBRANCH   1   2
BRANCH   1   5
HETATM    5  C           1     -22.171  -6.753  -5.251  0.00  0.00     0.074 C 
BRANCH   5   6
HETATM    6  C           1     -21.812  -5.833  -6.377  0.00  0.00    -0.056 A 
HETATM    7  C           1     -20.598  -5.986  -7.044  0.00  0.00     0.010 A 
HETATM    8  C           1     -20.263  -5.128  -8.092  0.00  0.00     0.038 A 
HETATM    9  C           1     -21.146  -4.118  -8.473  0.00  0.00     0.081 A 
HETATM   10  C           1     -22.361  -3.964  -7.807  0.00  0.00     0.038 A 
HETATM   11  C           1     -22.695  -4.822  -6.758  0.00  0.00     0.010 A 
BRANCH   9  12
HETATM   12  O           1     -20.822  -3.284  -9.491  0.00  0.00    -0.247 OA
BRANCH  12  13
HETATM   13  P           1     -21.339  -3.661 -10.974  0.00  0.00     0.411 P 
HETATM   14  O           1     -22.039  -2.498 -11.564  0.00  0.00    -0.624 OA
HETATM   15  O           1     -22.271  -4.809 -10.895  0.00  0.00    -0.624 OA
BRANCH  13  16
HETATM   16  O           1     -20.076  -4.056 -11.900  0.00  0.00    -0.300 OA
HETATM   17  H           1     -19.923  -4.970 -11.727  0.00  0.00     0.223 HD
ENDBRANCH  13  16
ENDBRANCH  12  13
ENDBRANCH   9  12
ENDBRANCH   5   6
ENDBRANCH   1   5
BRANCH   1  18
HETATM   18  N           1     -20.373  -8.088  -4.313  0.00  0.00    -0.344 N 
HETATM   19  C           1     -21.068  -9.184  -4.748  0.00  0.00     0.251 C 
HETATM   20  O           1     -21.079  -9.467  -5.923  0.00  0.00    -0.271 OA
HETATM   21  H           1     -19.403  -8.180  -4.039  0.00  0.00     0.163 HD
BRANCH  19  22
HETATM   22  C           1     -21.822 -10.040  -3.760  0.00  0.00     0.298 C 
BRANCH  22  23
HETATM   23  C           1     -20.909 -10.397  -2.595  0.00  0.00     0.224 C 
BRANCH  23  24
HETATM   24  O           1     -21.547 -11.339  -1.774  0.00  0.00    -0.287 OA
BRANCH  24  25
HETATM   25  P           1     -22.295 -10.748  -0.470  0.00  0.00     0.406 P 
HETATM   26  O           1     -23.759 -10.781  -0.685  0.00  0.00    -0.624 OA
HETATM   27  O           1     -21.951 -11.570   0.712  0.00  0.00    -0.624 OA
BRANCH  25  28
HETATM   28  O           1     -21.823  -9.223  -0.222  0.00  0.00    -0.300 OA
HETATM   29  H           1     -21.154  -9.067  -0.866  0.00  0.00     0.223 HD
ENDBRANCH  25  28
ENDBRANCH  24  25
ENDBRANCH  23  24
ENDBRANCH  22  23
BRANCH  22  30
HETATM   30  N           1     -22.282 -11.298  -4.439  0.00  0.00    -0.064 N 
HETATM   31  H           1     -21.483 -11.968  -4.507  0.00  0.00     0.275 HD
HETATM   32  H           1     -23.053 -11.731  -3.882  0.00  0.00     0.275 HD
HETATM   33  H           1     -22.629 -11.069  -5.398  0.00  0.00     0.275 HD
ENDBRANCH  22  30
ENDBRANCH  19  22
ENDBRANCH   1  18
TORSDOF 13
ENDMDL
