MODEL 1
REMARK VINA RESULT:      -9.8      0.000      0.000
REMARK  8 active torsions:
REMARK  status: ('A' for Active; 'I' for Inactive)
REMARK    1  A    between atoms: C_4  and  C_7 
REMARK    2  A    between atoms: C_4  and  C_20 
REMARK    3  A    between atoms: C_5  and  C_11 
REMARK    4  A    between atoms: C_5  and  C_18 
REMARK    5  A    between atoms: C_7  and  C_12 
REMARK    6  A    between atoms: C_7  and  N_14 
REMARK    7  A    between atoms: C_11  and  C_31 
REMARK    8  A    between atoms: C_11  and  N_24 
REMARK       I    between atoms: N_14  and  C_31 
ROOT
HETATM    1  N           1     -20.874  -7.557  -6.038  0.00  0.00    -0.344 N 
HETATM    2  H           1     -21.622  -8.045  -6.514  0.00  0.00     0.163 HD
HETATM    3  C           1     -20.292  -6.463  -6.622  0.00  0.00     0.249 C 
HETATM    4  O           1     -19.334  -6.602  -7.344  0.00  0.00    -0.271 OA
ENDROOT
BRANCH   3   5
HETATM    5  C           1     -20.847  -5.084  -6.362  0.00  0.00     0.278 C 
BRANCH   5   6
HETATM    6  C           1     -20.688  -4.229  -7.612  0.00  0.00     0.083 C 
BRANCH   6   7
HETATM    7  C           1     -22.021  -4.051  -8.269  0.00  0.00    -0.028 A 
HETATM    8  C           1     -23.249  -4.174  -7.658  0.00  0.00     0.096 A 
HETATM    9  N           1     -24.212  -3.933  -8.603  0.00  0.00    -0.365 N 
HETATM   10  H           1     -25.247  -3.957  -8.426  0.00  0.00     0.165 HD
HETATM   11  C           1     -23.627  -3.656  -9.819  0.00  0.00     0.042 A 
HETATM   12  C           1     -24.211  -3.353 -11.055  0.00  0.00     0.030 A 
HETATM   13  C           1     -22.247  -3.723  -9.634  0.00  0.00    -0.002 A 
HETATM   14  C           1     -23.354  -3.113 -12.132  0.00  0.00     0.002 A 
HETATM   15  C           1     -21.970  -3.173 -11.978  0.00  0.00     0.001 A 
HETATM   16  C           1     -21.403  -3.477 -10.735  0.00  0.00     0.014 A 
ENDBRANCH   6   7
ENDBRANCH   5   6
BRANCH   5  17
HETATM   17  N           1     -20.100  -4.452  -5.225  0.00  0.00    -0.066 N 
HETATM   18  H           1     -20.591  -3.579  -4.929  0.00  0.00     0.275 HD
HETATM   19  H           1     -19.129  -4.217  -5.534  0.00  0.00     0.275 HD
HETATM   20  H           1     -20.058  -5.120  -4.422  0.00  0.00     0.275 HD
ENDBRANCH   5  17
ENDBRANCH   3   5
BRANCH   1  21
HETATM   21  C           1     -20.419  -8.015  -4.740  0.00  0.00     0.190 C 
BRANCH  21  22
HETATM   22  C           1     -21.576  -8.668  -3.999  0.00  0.00     0.077 C 
BRANCH  22  23
HETATM   23  C           1     -21.749  -8.012  -2.664  0.00  0.00    -0.028 A 
HETATM   24  C           1     -22.191  -6.728  -2.442  0.00  0.00     0.096 A 
HETATM   25  N           1     -22.206  -6.519  -1.088  0.00  0.00    -0.365 N 
HETATM   26  C           1     -21.779  -7.648  -0.427  0.00  0.00     0.042 A 
HETATM   27  H           1     -22.500  -5.626  -0.622  0.00  0.00     0.165 HD
HETATM   28  C           1     -21.634  -7.894   0.944  0.00  0.00     0.030 A 
HETATM   29  C           1     -21.485  -8.606  -1.398  0.00  0.00    -0.002 A 
HETATM   30  C           1     -21.172  -9.157   1.330  0.00  0.00     0.002 A 
HETATM   31  C           1     -20.870 -10.132   0.381  0.00  0.00     0.001 A 
HETATM   32  C           1     -21.022  -9.870  -0.986  0.00  0.00     0.014 A 
ENDBRANCH  22  23
ENDBRANCH  21  22
BRANCH  21  33
HETATM   33  C           1     -19.307  -9.018  -4.925  0.00  0.00     0.197 C 
HETATM   34  O           1     -19.296  -9.763  -5.928  0.00  0.00    -0.646 OA
HETATM   35  O           1     -18.394  -9.103  -4.074  0.00  0.00    -0.646 OA
ENDBRANCH  21  33
ENDBRANCH   1  21
TORSDOF 8
ENDMDL
MODEL 2
REMARK VINA RESULT:      -9.3      1.549      2.283
REMARK  8 active torsions:
REMARK  status: ('A' for Active; 'I' for Inactive)
REMARK    1  A    between atoms: C_4  and  C_7 
REMARK    2  A    between atoms: C_4  and  C_20 
REMARK    3  A    between atoms: C_5  and  C_11 
REMARK    4  A    between atoms: C_5  and  C_18 
REMARK    5  A    between atoms: C_7  and  C_12 
REMARK    6  A    between atoms: C_7  and  N_14 
REMARK    7  A    between atoms: C_11  and  C_31 
REMARK    8  A    between atoms: C_11  and  N_24 
REMARK       I    between atoms: N_14  and  C_31 
ROOT
HETATM    1  N           1     -19.748  -7.194  -6.330  0.00  0.00    -0.344 N 
HETATM    2  H           1     -19.345  -7.594  -7.168  0.00  0.00     0.163 HD
HETATM    3  C           1     -20.152  -5.885  -6.324  0.00  0.00     0.249 C 
HETATM    4  O           1     -19.378  -5.015  -6.005  0.00  0.00    -0.271 OA
ENDROOT
BRANCH   3   5
HETATM    5  C           1     -21.566  -5.531  -6.717  0.00  0.00     0.278 C 
BRANCH   5   6
HETATM    6  C           1     -21.607  -4.096  -7.224  0.00  0.00     0.083 C 
BRANCH   6   7
HETATM    7  C           1     -21.443  -4.086  -8.712  0.00  0.00    -0.028 A 
HETATM    8  C           1     -20.274  -4.320  -9.400  0.00  0.00     0.096 A 
HETATM    9  N           1     -20.549  -4.221 -10.739  0.00  0.00    -0.365 N 
HETATM   10  H           1     -19.846  -4.351 -11.508  0.00  0.00     0.165 HD
HETATM   11  C           1     -21.881  -3.925 -10.930  0.00  0.00     0.042 A 
HETATM   12  C           1     -22.603  -3.733 -12.114  0.00  0.00     0.030 A 
HETATM   13  C           1     -22.466  -3.836  -9.667  0.00  0.00    -0.002 A 
HETATM   14  C           1     -23.965  -3.441 -11.999  0.00  0.00     0.002 A 
HETATM   15  C           1     -24.577  -3.345 -10.750  0.00  0.00     0.001 A 
HETATM   16  C           1     -23.840  -3.540  -9.577  0.00  0.00     0.014 A 
ENDBRANCH   6   7
ENDBRANCH   5   6
BRANCH   5  17
HETATM   17  N           1     -22.464  -5.666  -5.523  0.00  0.00    -0.066 N 
HETATM   18  H           1     -22.885  -6.622  -5.511  0.00  0.00     0.275 HD
HETATM   19  H           1     -23.225  -4.951  -5.577  0.00  0.00     0.275 HD
HETATM   20  H           1     -21.908  -5.518  -4.651  0.00  0.00     0.275 HD
ENDBRANCH   5  17
ENDBRANCH   3   5
BRANCH   1  21
HETATM   21  C           1     -19.896  -8.003  -5.136  0.00  0.00     0.190 C 
BRANCH  21  22
HETATM   22  C           1     -21.252  -8.694  -5.158  0.00  0.00     0.077 C 
BRANCH  22  23
HETATM   23  C           1     -21.550  -9.251  -3.800  0.00  0.00    -0.028 A 
HETATM   24  C           1     -21.613 -10.585  -3.467  0.00  0.00     0.096 A 
HETATM   25  N           1     -21.910 -10.669  -2.131  0.00  0.00    -0.365 N 
HETATM   26  C           1     -22.041  -9.409  -1.592  0.00  0.00     0.042 A 
HETATM   27  H           1     -22.021 -11.565  -1.596  0.00  0.00     0.165 HD
HETATM   28  C           1     -22.335  -9.011  -0.283  0.00  0.00     0.030 A 
HETATM   29  C           1     -21.818  -8.497  -2.624  0.00  0.00    -0.002 A 
HETATM   30  C           1     -22.404  -7.638  -0.024  0.00  0.00     0.002 A 
HETATM   31  C           1     -22.187  -6.704  -1.035  0.00  0.00     0.001 A 
HETATM   32  C           1     -21.893  -7.119  -2.340  0.00  0.00     0.014 A 
ENDBRANCH  22  23
ENDBRANCH  21  22
BRANCH  21  33
HETATM   33  C           1     -18.802  -9.042  -5.097  0.00  0.00     0.197 C 
HETATM   34  O           1     -18.571  -9.747  -6.102  0.00  0.00    -0.646 OA
HETATM   35  O           1     -18.123  -9.195  -4.057  0.00  0.00    -0.646 OA
ENDBRANCH  21  33
ENDBRANCH   1  21
TORSDOF 8
ENDMDL
MODEL 3
REMARK VINA RESULT:      -9.2      1.931      2.510
REMARK  8 active torsions:
REMARK  status: ('A' for Active; 'I' for Inactive)
REMARK    1  A    between atoms: C_4  and  C_7 
REMARK    2  A    between atoms: C_4  and  C_20 
REMARK    3  A    between atoms: C_5  and  C_11 
REMARK    4  A    between atoms: C_5  and  C_18 
REMARK    5  A    between atoms: C_7  and  C_12 
REMARK    6  A    between atoms: C_7  and  N_14 
REMARK    7  A    between atoms: C_11  and  C_31 
REMARK    8  A    between atoms: C_11  and  N_24 
REMARK       I    between atoms: N_14  and  C_31 
ROOT
HETATM    1  N           1     -20.831  -6.871  -6.791  0.00  0.00    -0.344 N 
HETATM    2  H           1     -20.547  -7.479  -7.549  0.00  0.00     0.163 HD
HETATM    3  C           1     -20.585  -5.526  -6.866  0.00  0.00     0.249 C 
HETATM    4  O           1     -19.550  -5.076  -6.438  0.00  0.00    -0.271 OA
ENDROOT
BRANCH   3   5
HETATM    5  C           1     -21.610  -4.606  -7.484  0.00  0.00     0.278 C 
BRANCH   5   6
HETATM    6  C           1     -21.403  -4.555  -8.992  0.00  0.00     0.083 C 
BRANCH   6   7
HETATM    7  C           1     -22.686  -4.166  -9.659  0.00  0.00    -0.028 A 
HETATM    8  C           1     -23.935  -4.170  -9.081  0.00  0.00     0.096 A 
HETATM    9  N           1     -24.834  -3.748 -10.025  0.00  0.00    -0.365 N 
HETATM   10  H           1     -25.868  -3.650  -9.868  0.00  0.00     0.165 HD
HETATM   11  C           1     -24.187  -3.471 -11.208  0.00  0.00     0.042 A 
HETATM   12  C           1     -24.696  -3.017 -12.432  0.00  0.00     0.030 A 
HETATM   13  C           1     -22.831  -3.725 -11.004  0.00  0.00    -0.002 A 
HETATM   14  C           1     -23.786  -2.820 -13.475  0.00  0.00     0.002 A 
HETATM   15  C           1     -22.426  -3.067 -13.300  0.00  0.00     0.001 A 
HETATM   16  C           1     -21.935  -3.520 -12.071  0.00  0.00     0.014 A 
ENDBRANCH   6   7
ENDBRANCH   5   6
BRANCH   5  17
HETATM   17  N           1     -21.453  -3.229  -6.911  0.00  0.00    -0.066 N 
HETATM   18  H           1     -22.321  -2.967  -6.392  0.00  0.00     0.275 HD
HETATM   19  H           1     -21.292  -2.545  -7.686  0.00  0.00     0.275 HD
HETATM   20  H           1     -20.637  -3.214  -6.258  0.00  0.00     0.275 HD
ENDBRANCH   5  17
ENDBRANCH   3   5
BRANCH   1  21
HETATM   21  C           1     -21.495  -7.423  -5.627  0.00  0.00     0.190 C 
BRANCH  21  22
HETATM   22  C           1     -20.462  -8.064  -4.710  0.00  0.00     0.077 C 
BRANCH  22  23
HETATM   23  C           1     -21.136  -9.058  -3.816  0.00  0.00    -0.028 A 
HETATM   24  C           1     -21.571 -10.312  -4.180  0.00  0.00     0.096 A 
HETATM   25  N           1     -22.129 -10.898  -3.074  0.00  0.00    -0.365 N 
HETATM   26  C           1     -22.063 -10.043  -1.997  0.00  0.00     0.042 A 
HETATM   27  H           1     -22.546 -11.861  -3.051  0.00  0.00     0.165 HD
HETATM   28  C           1     -22.500 -10.214  -0.678  0.00  0.00     0.030 A 
HETATM   29  C           1     -21.440  -8.876  -2.438  0.00  0.00    -0.002 A 
HETATM   30  C           1     -22.296  -9.155   0.213  0.00  0.00     0.002 A 
HETATM   31  C           1     -21.677  -7.977  -0.200  0.00  0.00     0.001 A 
HETATM   32  C           1     -21.244  -7.824  -1.523  0.00  0.00     0.014 A 
ENDBRANCH  22  23
ENDBRANCH  21  22
BRANCH  21  33
HETATM   33  C           1     -22.211  -6.319  -4.888  0.00  0.00     0.197 C 
HETATM   34  O           1     -23.403  -6.058  -5.155  0.00  0.00    -0.646 OA
HETATM   35  O           1     -21.610  -5.667  -4.006  0.00  0.00    -0.646 OA
ENDBRANCH  21  33
ENDBRANCH   1  21
TORSDOF 8
ENDMDL
MODEL 4
REMARK VINA RESULT:      -9.0      1.697      2.335
REMARK  8 active torsions:
REMARK  status: ('A' for Active; 'I' for Inactive)
REMARK    1  A    between atoms: C_4  and  C_7 
REMARK    2  A    between atoms: C_4  and  C_20 
REMARK    3  A    between atoms: C_5  and  C_11 
REMARK    4  A    between atoms: C_5  and  C_18 
REMARK    5  A    between atoms: C_7  and  C_12 
REMARK    6  A    between atoms: C_7  and  N_14 
REMARK    7  A    between atoms: C_11  and  C_31 
REMARK    8  A    between atoms: C_11  and  N_24 
REMARK       I    between atoms: N_14  and  C_31 
ROOT
HETATM    1  N           1     -20.858  -8.546  -4.364  0.00  0.00    -0.344 N 
HETATM    2  H           1     -21.467  -9.065  -3.743  0.00  0.00     0.163 HD
HETATM    3  C           1     -21.395  -7.775  -5.359  0.00  0.00     0.249 C 
HETATM    4  O           1     -21.600  -8.251  -6.450  0.00  0.00    -0.271 OA
ENDROOT
BRANCH   3   5
HETATM    5  C           1     -21.730  -6.327  -5.094  0.00  0.00     0.278 C 
BRANCH   5   6
HETATM    6  C           1     -20.913  -5.438  -6.022  0.00  0.00     0.083 C 
BRANCH   6   7
HETATM    7  C           1     -21.800  -4.888  -7.095  0.00  0.00    -0.028 A 
HETATM    8  C           1     -23.128  -4.552  -6.957  0.00  0.00     0.096 A 
HETATM    9  N           1     -23.570  -4.086  -8.168  0.00  0.00    -0.365 N 
HETATM   10  H           1     -24.548  -3.756  -8.363  0.00  0.00     0.165 HD
HETATM   11  C           1     -22.548  -4.114  -9.090  0.00  0.00     0.042 A 
HETATM   12  C           1     -22.537  -3.737 -10.439  0.00  0.00     0.030 A 
HETATM   13  C           1     -21.421  -4.614  -8.439  0.00  0.00    -0.002 A 
HETATM   14  C           1     -21.335  -3.878 -11.138  0.00  0.00     0.002 A 
HETATM   15  C           1     -20.193  -4.375 -10.513  0.00  0.00     0.001 A 
HETATM   16  C           1     -20.222  -4.747  -9.165  0.00  0.00     0.014 A 
ENDBRANCH   6   7
ENDBRANCH   5   6
BRANCH   5  17
HETATM   17  N           1     -21.405  -5.993  -3.668  0.00  0.00    -0.066 N 
HETATM   18  H           1     -21.424  -4.957  -3.540  0.00  0.00     0.275 HD
HETATM   19  H           1     -20.452  -6.354  -3.434  0.00  0.00     0.275 HD
HETATM   20  H           1     -22.110  -6.437  -3.037  0.00  0.00     0.275 HD
ENDBRANCH   5  17
ENDBRANCH   3   5
BRANCH   1  21
HETATM   21  C           1     -19.420  -8.622  -4.200  0.00  0.00     0.190 C 
BRANCH  21  22
HETATM   22  C           1     -19.095  -9.214  -2.836  0.00  0.00     0.077 C 
BRANCH  22  23
HETATM   23  C           1     -20.335  -9.806  -2.241  0.00  0.00    -0.028 A 
HETATM   24  C           1     -20.830 -11.067  -2.485  0.00  0.00     0.096 A 
HETATM   25  N           1     -21.976 -11.216  -1.748  0.00  0.00    -0.365 N 
HETATM   26  C           1     -22.232 -10.071  -1.028  0.00  0.00     0.042 A 
HETATM   27  H           1     -22.572 -12.080  -1.733  0.00  0.00     0.165 HD
HETATM   28  C           1     -23.278  -9.770  -0.148  0.00  0.00     0.030 A 
HETATM   29  C           1     -21.212  -9.166  -1.321  0.00  0.00    -0.002 A 
HETATM   30  C           1     -23.280  -8.504   0.448  0.00  0.00     0.002 A 
HETATM   31  C           1     -22.274  -7.581   0.174  0.00  0.00     0.001 A 
HETATM   32  C           1     -21.234  -7.897  -0.709  0.00  0.00     0.014 A 
ENDBRANCH  22  23
ENDBRANCH  21  22
BRANCH  21  33
HETATM   33  C           1     -18.837  -9.497  -5.282  0.00  0.00     0.197 C 
HETATM   34  O           1     -18.224  -8.982  -6.242  0.00  0.00    -0.646 OA
HETATM   35  O           1     -18.967 -10.740  -5.218  0.00  0.00    -0.646 OA
ENDBRANCH  21  33
ENDBRANCH   1  21
TORSDOF 8
ENDMDL
MODEL 5
REMARK VINA RESULT:      -8.9      1.486      9.402
REMARK  8 active torsions:
REMARK  status: ('A' for Active; 'I' for Inactive)
REMARK    1  A    between atoms: C_4  and  C_7 
REMARK    2  A    between atoms: C_4  and  C_20 
REMARK    3  A    between atoms: C_5  and  C_11 
REMARK    4  A    between atoms: C_5  and  C_18 
REMARK    5  A    between atoms: C_7  and  C_12 
REMARK    6  A    between atoms: C_7  and  N_14 
REMARK    7  A    between atoms: C_11  and  C_31 
REMARK    8  A    between atoms: C_11  and  N_24 
REMARK       I    between atoms: N_14  and  C_31 
ROOT
HETATM    1  N           1     -21.814  -4.915  -6.448  0.00  0.00    -0.344 N 
HETATM    2  H           1     -22.668  -4.386  -6.320  0.00  0.00     0.163 HD
HETATM    3  C           1     -21.205  -5.501  -5.371  0.00  0.00     0.249 C 
HETATM    4  O           1     -20.376  -4.892  -4.740  0.00  0.00    -0.271 OA
ENDROOT
BRANCH   3   5
HETATM    5  C           1     -21.571  -6.911  -4.974  0.00  0.00     0.278 C 
BRANCH   5   6
HETATM    6  C           1     -20.581  -7.418  -3.934  0.00  0.00     0.083 C 
BRANCH   6   7
HETATM    7  C           1     -21.222  -7.398  -2.581  0.00  0.00    -0.028 A 
HETATM    8  C           1     -22.040  -6.408  -2.087  0.00  0.00     0.096 A 
HETATM    9  N           1     -22.417  -6.770  -0.820  0.00  0.00    -0.365 N 
HETATM   10  H           1     -23.043  -6.205  -0.195  0.00  0.00     0.165 HD
HETATM   11  C           1     -21.854  -7.982  -0.484  0.00  0.00     0.042 A 
HETATM   12  C           1     -21.958  -8.732   0.694  0.00  0.00     0.030 A 
HETATM   13  C           1     -21.097  -8.399  -1.579  0.00  0.00    -0.002 A 
HETATM   14  C           1     -21.265  -9.945   0.749  0.00  0.00     0.002 A 
HETATM   15  C           1     -20.501 -10.387  -0.328  0.00  0.00     0.001 A 
HETATM   16  C           1     -20.407  -9.625  -1.498  0.00  0.00     0.014 A 
ENDBRANCH   6   7
ENDBRANCH   5   6
BRANCH   5  17
HETATM   17  N           1     -21.525  -7.798  -6.182  0.00  0.00    -0.066 N 
HETATM   18  H           1     -21.188  -8.747  -5.905  0.00  0.00     0.275 HD
HETATM   19  H           1     -20.871  -7.390  -6.889  0.00  0.00     0.275 HD
HETATM   20  H           1     -22.482  -7.873  -6.596  0.00  0.00     0.275 HD
ENDBRANCH   5  17
ENDBRANCH   3   5
BRANCH   1  21
HETATM   21  C           1     -21.236  -5.050  -7.771  0.00  0.00     0.190 C 
BRANCH  21  22
HETATM   22  C           1     -21.390  -3.738  -8.528  0.00  0.00     0.077 C 
BRANCH  22  23
HETATM   23  C           1     -22.682  -3.747  -9.285  0.00  0.00    -0.028 A 
HETATM   24  C           1     -23.918  -4.073  -8.776  0.00  0.00     0.096 A 
HETATM   25  N           1     -24.832  -3.956  -9.791  0.00  0.00    -0.365 N 
HETATM   26  C           1     -24.207  -3.558 -10.951  0.00  0.00     0.042 A 
HETATM   27  H           1     -25.861  -4.142  -9.696  0.00  0.00     0.165 HD
HETATM   28  C           1     -24.735  -3.311 -12.224  0.00  0.00     0.030 A 
HETATM   29  C           1     -22.850  -3.418 -10.659  0.00  0.00    -0.002 A 
HETATM   30  C           1     -23.846  -2.912 -13.227  0.00  0.00     0.002 A 
HETATM   31  C           1     -22.485  -2.765 -12.964  0.00  0.00     0.001 A 
HETATM   32  C           1     -21.974  -3.015 -11.685  0.00  0.00     0.014 A 
ENDBRANCH  22  23
ENDBRANCH  21  22
BRANCH  21  33
HETATM   33  C           1     -19.771  -5.391  -7.645  0.00  0.00     0.197 C 
HETATM   34  O           1     -18.916  -4.480  -7.619  0.00  0.00    -0.646 OA
HETATM   35  O           1     -19.413  -6.586  -7.566  0.00  0.00    -0.646 OA
ENDBRANCH  21  33
ENDBRANCH   1  21
TORSDOF 8
ENDMDL
MODEL 6
REMARK VINA RESULT:      -8.9      1.969      9.283
REMARK  8 active torsions:
REMARK  status: ('A' for Active; 'I' for Inactive)
REMARK    1  A    between atoms: C_4  and  C_7 
REMARK    2  A    between atoms: C_4  and  C_20 
REMARK    3  A    between atoms: C_5  and  C_11 
REMARK    4  A    between atoms: C_5  and  C_18 
REMARK    5  A    between atoms: C_7  and  C_12 
REMARK    6  A    between atoms: C_7  and  N_14 
REMARK    7  A    between atoms: C_11  and  C_31 
REMARK    8  A    between atoms: C_11  and  N_24 
REMARK       I    between atoms: N_14  and  C_31 
ROOT
HETATM    1  N           1     -22.246  -5.740  -5.604  0.00  0.00    -0.344 N 
HETATM    2  H           1     -23.209  -5.436  -5.530  0.00  0.00     0.163 HD
HETATM    3  C           1     -21.641  -6.356  -4.541  0.00  0.00     0.249 C 
HETATM    4  O           1     -21.053  -5.699  -3.716  0.00  0.00    -0.271 OA
ENDROOT
BRANCH   3   5
HETATM    5  C           1     -21.708  -7.858  -4.402  0.00  0.00     0.278 C 
BRANCH   5   6
HETATM    6  C           1     -20.788  -8.305  -3.273  0.00  0.00     0.083 C 
BRANCH   6   7
HETATM    7  C           1     -21.606  -8.631  -2.062  0.00  0.00    -0.028 A 
HETATM    8  C           1     -21.812  -7.809  -0.977  0.00  0.00     0.096 A 
HETATM    9  N           1     -22.616  -8.479  -0.092  0.00  0.00    -0.365 N 
HETATM   10  H           1     -22.941  -8.098   0.831  0.00  0.00     0.165 HD
HETATM   11  C           1     -22.934  -9.724  -0.586  0.00  0.00     0.042 A 
HETATM   12  C           1     -23.720 -10.743  -0.033  0.00  0.00     0.030 A 
HETATM   13  C           1     -22.311  -9.844  -1.828  0.00  0.00    -0.002 A 
HETATM   14  C           1     -23.870 -11.918  -0.776  0.00  0.00     0.002 A 
HETATM   15  C           1     -23.259 -12.066  -2.019  0.00  0.00     0.001 A 
HETATM   16  C           1     -22.476 -11.038  -2.557  0.00  0.00     0.014 A 
ENDBRANCH   6   7
ENDBRANCH   5   6
BRANCH   5  17
HETATM   17  N           1     -21.271  -8.498  -5.686  0.00  0.00    -0.066 N 
HETATM   18  H           1     -20.244  -8.355  -5.814  0.00  0.00     0.275 HD
HETATM   19  H           1     -21.784  -8.061  -6.486  0.00  0.00     0.275 HD
HETATM   20  H           1     -21.481  -9.521  -5.655  0.00  0.00     0.275 HD
ENDBRANCH   5  17
ENDBRANCH   3   5
BRANCH   1  21
HETATM   21  C           1     -21.509  -5.523  -6.833  0.00  0.00     0.190 C 
BRANCH  21  22
HETATM   22  C           1     -21.838  -4.143  -7.384  0.00  0.00     0.077 C 
BRANCH  22  23
HETATM   23  C           1     -21.535  -4.105  -8.850  0.00  0.00    -0.028 A 
HETATM   24  C           1     -20.310  -4.341  -9.431  0.00  0.00     0.096 A 
HETATM   25  N           1     -20.458  -4.209 -10.787  0.00  0.00    -0.365 N 
HETATM   26  C           1     -21.762  -3.891 -11.095  0.00  0.00     0.042 A 
HETATM   27  H           1     -19.689  -4.333 -11.490  0.00  0.00     0.165 HD
HETATM   28  C           1     -22.369  -3.664 -12.336  0.00  0.00     0.030 A 
HETATM   29  C           1     -22.462  -3.820  -9.891  0.00  0.00    -0.002 A 
HETATM   30  C           1     -23.733  -3.353 -12.342  0.00  0.00     0.002 A 
HETATM   31  C           1     -24.457  -3.275 -11.154  0.00  0.00     0.001 A 
HETATM   32  C           1     -23.834  -3.505  -9.921  0.00  0.00     0.014 A 
ENDBRANCH  22  23
ENDBRANCH  21  22
BRANCH  21  33
HETATM   33  C           1     -20.029  -5.614  -6.552  0.00  0.00     0.197 C 
HETATM   34  O           1     -19.424  -4.638  -6.058  0.00  0.00    -0.646 OA
HETATM   35  O           1     -19.407  -6.668  -6.812  0.00  0.00    -0.646 OA
ENDBRANCH  21  33
ENDBRANCH   1  21
TORSDOF 8
ENDMDL
MODEL 7
REMARK VINA RESULT:      -8.7      2.504      4.561
REMARK  8 active torsions:
REMARK  status: ('A' for Active; 'I' for Inactive)
REMARK    1  A    between atoms: C_4  and  C_7 
REMARK    2  A    between atoms: C_4  and  C_20 
REMARK    3  A    between atoms: C_5  and  C_11 
REMARK    4  A    between atoms: C_5  and  C_18 
REMARK    5  A    between atoms: C_7  and  C_12 
REMARK    6  A    between atoms: C_7  and  N_14 
REMARK    7  A    between atoms: C_11  and  C_31 
REMARK    8  A    between atoms: C_11  and  N_24 
REMARK       I    between atoms: N_14  and  C_31 
ROOT
HETATM    1  N           1     -21.307  -6.777  -2.996  0.00  0.00    -0.344 N 
HETATM    2  H           1     -21.089  -6.098  -2.278  0.00  0.00     0.163 HD
HETATM    3  C           1     -21.641  -6.356  -4.256  0.00  0.00     0.249 C 
HETATM    4  O           1     -22.796  -6.139  -4.534  0.00  0.00    -0.271 OA
ENDROOT
BRANCH   3   5
HETATM    5  C           1     -20.565  -6.164  -5.297  0.00  0.00     0.278 C 
BRANCH   5   6
HETATM    6  C           1     -20.442  -4.684  -5.633  0.00  0.00     0.083 C 
BRANCH   6   7
HETATM    7  C           1     -20.411  -4.510  -7.120  0.00  0.00    -0.028 A 
HETATM    8  C           1     -19.286  -4.516  -7.914  0.00  0.00     0.096 A 
HETATM    9  N           1     -19.688  -4.328  -9.210  0.00  0.00    -0.365 N 
HETATM   10  H           1     -19.044  -4.287 -10.039  0.00  0.00     0.165 HD
HETATM   11  C           1     -21.058  -4.200  -9.270  0.00  0.00     0.042 A 
HETATM   12  C           1     -21.900  -3.996 -10.370  0.00  0.00     0.030 A 
HETATM   13  C           1     -21.538  -4.312  -7.965  0.00  0.00    -0.002 A 
HETATM   14  C           1     -23.273  -3.905 -10.124  0.00  0.00     0.002 A 
HETATM   15  C           1     -23.781  -4.013  -8.831  0.00  0.00     0.001 A 
HETATM   16  C           1     -22.925  -4.216  -7.742  0.00  0.00     0.014 A 
ENDBRANCH   6   7
ENDBRANCH   5   6
BRANCH   5  17
HETATM   17  N           1     -20.928  -6.929  -6.535  0.00  0.00    -0.066 N 
HETATM   18  H           1     -21.339  -6.277  -7.240  0.00  0.00     0.275 HD
HETATM   19  H           1     -21.627  -7.669  -6.296  0.00  0.00     0.275 HD
HETATM   20  H           1     -20.070  -7.377  -6.931  0.00  0.00     0.275 HD
ENDBRANCH   5  17
ENDBRANCH   3   5
BRANCH   1  21
HETATM   21  C           1     -21.268  -8.194  -2.692  0.00  0.00     0.190 C 
BRANCH  21  22
HETATM   22  C           1     -19.820  -8.642  -2.549  0.00  0.00     0.077 C 
BRANCH  22  23
HETATM   23  C           1     -19.397  -9.366  -3.790  0.00  0.00    -0.028 A 
HETATM   24  C           1     -20.228  -9.807  -4.795  0.00  0.00     0.096 A 
HETATM   25  N           1     -19.449 -10.417  -5.743  0.00  0.00    -0.365 N 
HETATM   26  C           1     -18.124 -10.378  -5.369  0.00  0.00     0.042 A 
HETATM   27  H           1     -19.810 -10.851  -6.628  0.00  0.00     0.165 HD
HETATM   28  C           1     -16.986 -10.869  -6.019  0.00  0.00     0.030 A 
HETATM   29  C           1     -18.064  -9.719  -4.141  0.00  0.00    -0.002 A 
HETATM   30  C           1     -15.750 -10.681  -5.390  0.00  0.00     0.002 A 
HETATM   31  C           1     -15.661 -10.028  -4.163  0.00  0.00     0.001 A 
HETATM   32  C           1     -16.810  -9.542  -3.527  0.00  0.00     0.014 A 
ENDBRANCH  22  23
ENDBRANCH  21  22
BRANCH  21  33
HETATM   33  C           1     -22.005  -8.449  -1.400  0.00  0.00     0.197 C 
HETATM   34  O           1     -22.393  -7.489  -0.701  0.00  0.00    -0.646 OA
HETATM   35  O           1     -22.228  -9.623  -1.030  0.00  0.00    -0.646 OA
ENDBRANCH  21  33
ENDBRANCH   1  21
TORSDOF 8
ENDMDL
MODEL 8
REMARK VINA RESULT:      -8.4      3.098      4.285
REMARK  8 active torsions:
REMARK  status: ('A' for Active; 'I' for Inactive)
REMARK    1  A    between atoms: C_4  and  C_7 
REMARK    2  A    between atoms: C_4  and  C_20 
REMARK    3  A    between atoms: C_5  and  C_11 
REMARK    4  A    between atoms: C_5  and  C_18 
REMARK    5  A    between atoms: C_7  and  C_12 
REMARK    6  A    between atoms: C_7  and  N_14 
REMARK    7  A    between atoms: C_11  and  C_31 
REMARK    8  A    between atoms: C_11  and  N_24 
REMARK       I    between atoms: N_14  and  C_31 
ROOT
HETATM    1  N           1     -20.563  -6.721  -6.723  0.00  0.00    -0.344 N 
HETATM    2  H           1     -20.149  -7.257  -7.476  0.00  0.00     0.163 HD
HETATM    3  C           1     -20.501  -5.354  -6.743  0.00  0.00     0.249 C 
HETATM    4  O           1     -19.568  -4.783  -6.231  0.00  0.00    -0.271 OA
ENDROOT
BRANCH   3   5
HETATM    5  C           1     -21.600  -4.558  -7.406  0.00  0.00     0.278 C 
BRANCH   5   6
HETATM    6  C           1     -21.424  -4.609  -8.917  0.00  0.00     0.083 C 
BRANCH   6   7
HETATM    7  C           1     -22.707  -4.218  -9.583  0.00  0.00    -0.028 A 
HETATM    8  C           1     -23.960  -4.254  -9.014  0.00  0.00     0.096 A 
HETATM    9  N           1     -24.858  -3.817  -9.952  0.00  0.00    -0.365 N 
HETATM   10  H           1     -25.894  -3.738  -9.801  0.00  0.00     0.165 HD
HETATM   11  C           1     -24.206  -3.498 -11.123  0.00  0.00     0.042 A 
HETATM   12  C           1     -24.711  -3.016 -12.337  0.00  0.00     0.030 A 
HETATM   13  C           1     -22.848  -3.741 -10.915  0.00  0.00    -0.002 A 
HETATM   14  C           1     -23.797  -2.777 -13.367  0.00  0.00     0.002 A 
HETATM   15  C           1     -22.435  -3.011 -13.188  0.00  0.00     0.001 A 
HETATM   16  C           1     -21.947  -3.493 -11.969  0.00  0.00     0.014 A 
ENDBRANCH   6   7
ENDBRANCH   5   6
BRANCH   5  17
HETATM   17  N           1     -21.533  -3.133  -6.942  0.00  0.00    -0.066 N 
HETATM   18  H           1     -22.001  -2.517  -7.644  0.00  0.00     0.275 HD
HETATM   19  H           1     -20.532  -2.847  -6.840  0.00  0.00     0.275 HD
HETATM   20  H           1     -22.017  -3.044  -6.020  0.00  0.00     0.275 HD
ENDBRANCH   5  17
ENDBRANCH   3   5
BRANCH   1  21
HETATM   21  C           1     -21.219  -7.401  -5.624  0.00  0.00     0.190 C 
BRANCH  21  22
HETATM   22  C           1     -20.170  -8.042  -4.726  0.00  0.00     0.077 C 
BRANCH  22  23
HETATM   23  C           1     -19.938  -9.457  -5.161  0.00  0.00    -0.028 A 
HETATM   24  C           1     -20.902 -10.427  -5.312  0.00  0.00     0.096 A 
HETATM   25  N           1     -20.277 -11.576  -5.722  0.00  0.00    -0.365 N 
HETATM   26  C           1     -18.922 -11.366  -5.840  0.00  0.00     0.042 A 
HETATM   27  H           1     -20.763 -12.486  -5.919  0.00  0.00     0.165 HD
HETATM   28  C           1     -17.900 -12.242  -6.226  0.00  0.00     0.030 A 
HETATM   29  C           1     -18.682 -10.036  -5.492  0.00  0.00    -0.002 A 
HETATM   30  C           1     -16.595 -11.741  -6.254  0.00  0.00     0.002 A 
HETATM   31  C           1     -16.325 -10.417  -5.911  0.00  0.00     0.001 A 
HETATM   32  C           1     -17.359  -9.554  -5.528  0.00  0.00     0.014 A 
ENDBRANCH  22  23
ENDBRANCH  21  22
BRANCH  21  33
HETATM   33  C           1     -22.025  -6.405  -4.827  0.00  0.00     0.197 C 
HETATM   34  O           1     -23.197  -6.134  -5.165  0.00  0.00    -0.646 OA
HETATM   35  O           1     -21.519  -5.849  -3.827  0.00  0.00    -0.646 OA
ENDBRANCH  21  33
ENDBRANCH   1  21
TORSDOF 8
ENDMDL
MODEL 9
REMARK VINA RESULT:      -8.2      5.287      7.726
REMARK  8 active torsions:
REMARK  status: ('A' for Active; 'I' for Inactive)
REMARK    1  A    between atoms: C_4  and  C_7 
REMARK    2  A    between atoms: C_4  and  C_20 
REMARK    3  A    between atoms: C_5  and  C_11 
REMARK    4  A    between atoms: C_5  and  C_18 
REMARK    5  A    between atoms: C_7  and  C_12 
REMARK    6  A    between atoms: C_7  and  N_14 
REMARK    7  A    between atoms: C_11  and  C_31 
REMARK    8  A    between atoms: C_11  and  N_24 
REMARK       I    between atoms: N_14  and  C_31 
ROOT
HETATM    1  N           1     -18.231 -11.134  -4.612  0.00  0.00    -0.344 N 
HETATM    2  H           1     -17.746 -11.976  -4.329  0.00  0.00     0.163 HD
HETATM    3  C           1     -19.108 -11.171  -5.662  0.00  0.00     0.249 C 
HETATM    4  O           1     -18.716 -10.961  -6.785  0.00  0.00    -0.271 OA
ENDROOT
BRANCH   3   5
HETATM    5  C           1     -20.566 -11.474  -5.416  0.00  0.00     0.278 C 
BRANCH   5   6
HETATM    6  C           1     -20.693 -12.452  -4.256  0.00  0.00     0.083 C 
BRANCH   6   7
HETATM    7  C           1     -21.727 -11.954  -3.294  0.00  0.00    -0.028 A 
HETATM    8  C           1     -22.777 -11.116  -3.593  0.00  0.00     0.096 A 
HETATM    9  N           1     -23.486 -10.905  -2.440  0.00  0.00    -0.365 N 
HETATM   10  H           1     -24.344 -10.304  -2.364  0.00  0.00     0.165 HD
HETATM   11  C           1     -22.911 -11.595  -1.395  0.00  0.00     0.042 A 
HETATM   12  C           1     -23.288 -11.675  -0.049  0.00  0.00     0.030 A 
HETATM   13  C           1     -21.801 -12.265  -1.908  0.00  0.00    -0.002 A 
HETATM   14  C           1     -22.503 -12.465   0.795  0.00  0.00     0.002 A 
HETATM   15  C           1     -21.388 -13.146   0.311  0.00  0.00     0.001 A 
HETATM   16  C           1     -21.025 -13.055  -1.038  0.00  0.00     0.014 A 
ENDBRANCH   6   7
ENDBRANCH   5   6
BRANCH   5  17
HETATM   17  N           1     -21.164 -12.082  -6.650  0.00  0.00    -0.066 N 
HETATM   18  H           1     -21.091 -13.123  -6.596  0.00  0.00     0.275 HD
HETATM   19  H           1     -20.647 -11.741  -7.493  0.00  0.00     0.275 HD
HETATM   20  H           1     -22.169 -11.806  -6.723  0.00  0.00     0.275 HD
ENDBRANCH   5  17
ENDBRANCH   3   5
BRANCH   1  21
HETATM   21  C           1     -17.995  -9.889  -3.907  0.00  0.00     0.190 C 
BRANCH  21  22
HETATM   22  C           1     -18.598  -9.974  -2.512  0.00  0.00     0.077 C 
BRANCH  22  23
HETATM   23  C           1     -19.776  -9.054  -2.420  0.00  0.00    -0.028 A 
HETATM   24  C           1     -20.302  -8.304  -3.447  0.00  0.00     0.096 A 
HETATM   25  N           1     -21.369  -7.602  -2.949  0.00  0.00    -0.365 N 
HETATM   26  C           1     -21.543  -7.885  -1.613  0.00  0.00     0.042 A 
HETATM   27  H           1     -21.967  -6.944  -3.506  0.00  0.00     0.165 HD
HETATM   28  C           1     -22.494  -7.408  -0.704  0.00  0.00     0.030 A 
HETATM   29  C           1     -20.552  -8.799  -1.255  0.00  0.00    -0.002 A 
HETATM   30  C           1     -22.426  -7.880   0.612  0.00  0.00     0.002 A 
HETATM   31  C           1     -21.446  -8.792   0.998  0.00  0.00     0.001 A 
HETATM   32  C           1     -20.502  -9.260   0.075  0.00  0.00     0.014 A 
ENDBRANCH  22  23
ENDBRANCH  21  22
BRANCH  21  33
HETATM   33  C           1     -16.510  -9.646  -3.801  0.00  0.00     0.197 C 
HETATM   34  O           1     -15.995  -9.392  -2.691  0.00  0.00    -0.646 OA
HETATM   35  O           1     -15.793  -9.700  -4.824  0.00  0.00    -0.646 OA
ENDBRANCH  21  33
ENDBRANCH   1  21
TORSDOF 8
ENDMDL
