MODEL 1
REMARK VINA RESULT:      -5.8      0.000      0.000
REMARK  11 active torsions:
REMARK  status: ('A' for Active; 'I' for Inactive)
REMARK    1  A    between atoms: N_6  and  C_9 
REMARK    2  A    between atoms: Se_7  and  C_8 
REMARK    3  A    between atoms: C_8  and  C_9 
REMARK    4  A    between atoms: C_9  and  C_10 
REMARK       I    between atoms: C_10  and  N_11 
REMARK    5  A    between atoms: N_11  and  C_15 
REMARK    6  A    between atoms: C_14  and  C_15 
REMARK    7  A    between atoms: C_15  and  C_16 
REMARK    8  A    between atoms: C_16  and  C_17 
REMARK    9  A    between atoms: C_17  and  C_18 
REMARK   10  A    between atoms: C_18  and  C_19 
REMARK   11  A    between atoms: C_19  and  N_20 
ROOT
HETATM    1  H           1     -34.018  -1.252 -13.663  0.00  0.00     0.163 HD
HETATM    2  O           1     -37.037  -0.908 -12.885  0.00  0.00    -0.271 OA
HETATM    3  C           1     -36.004  -0.701 -13.476  0.00  0.00     0.249 C 
HETATM    4  N           1     -34.883  -1.426 -13.169  0.00  0.00    -0.345 N 
ENDROOT
BRANCH   4   5
HETATM    5  C           1     -34.937  -2.442 -12.136  0.00  0.00     0.185 C 
BRANCH   5   6
HETATM    6  C           1     -34.456  -1.857 -10.831  0.00  0.00     0.196 C 
HETATM    7  O           1     -33.241  -1.891 -10.540  0.00  0.00    -0.646 OA
HETATM    8  O           1     -35.274  -1.340 -10.040  0.00  0.00    -0.646 OA
ENDBRANCH   5   6
BRANCH   5   9
HETATM    9  C           1     -34.043  -3.611 -12.529  0.00  0.00     0.036 C 
BRANCH   9  10
HETATM   10  C           1     -34.694  -4.918 -12.093  0.00  0.00     0.004 C 
BRANCH  10  11
HETATM   11  C           1     -33.806  -5.611 -11.068  0.00  0.00     0.027 C 
BRANCH  11  12
HETATM   12  C           1     -34.647  -6.564 -10.229  0.00  0.00     0.229 C 
BRANCH  12  13
HETATM   13  N           1     -34.262  -7.979 -10.542  0.00  0.00    -0.079 N 
HETATM   14  H           1     -33.328  -7.991 -11.008  0.00  0.00     0.274 HD
HETATM   15  H           1     -34.976  -8.401 -11.177  0.00  0.00     0.274 HD
HETATM   16  H           1     -34.216  -8.531  -9.656  0.00  0.00     0.274 HD
ENDBRANCH  12  13
ENDBRANCH  11  12
ENDBRANCH  10  11
ENDBRANCH   9  10
ENDBRANCH   5   9
ENDBRANCH   4   5
BRANCH   3  17
HETATM   17  C           1     -35.949   0.357 -14.550  0.00  0.00     0.274 C 
BRANCH  17  18
HETATM   18  N           1     -34.519   0.619 -14.919  0.00  0.00    -0.067 N 
HETATM   19  H           1     -34.450   0.795 -15.947  0.00  0.00     0.275 HD
HETATM   20  H           1     -34.172   1.456 -14.398  0.00  0.00     0.275 HD
HETATM   21  H           1     -33.937  -0.214 -14.669  0.00  0.00     0.275 HD
ENDBRANCH  17  18
BRANCH  17  22
HETATM   22  C           1     -36.710  -0.125 -15.777  0.00  0.00     0.045 C 
BRANCH  22  23
HETATM   23 Se           1     -35.615  -1.404 -16.760  0.00  0.00     0.000 Se
HETATM   24  H           1     -34.338  -0.778 -16.380  0.00  0.00     0.000 HD
ENDBRANCH  22  23
ENDBRANCH  17  22
ENDBRANCH   3  17
TORSDOF 11
ENDMDL
MODEL 2
REMARK VINA RESULT:      -5.8     12.264     14.329
REMARK  11 active torsions:
REMARK  status: ('A' for Active; 'I' for Inactive)
REMARK    1  A    between atoms: N_6  and  C_9 
REMARK    2  A    between atoms: Se_7  and  C_8 
REMARK    3  A    between atoms: C_8  and  C_9 
REMARK    4  A    between atoms: C_9  and  C_10 
REMARK       I    between atoms: C_10  and  N_11 
REMARK    5  A    between atoms: N_11  and  C_15 
REMARK    6  A    between atoms: C_14  and  C_15 
REMARK    7  A    between atoms: C_15  and  C_16 
REMARK    8  A    between atoms: C_16  and  C_17 
REMARK    9  A    between atoms: C_17  and  C_18 
REMARK   10  A    between atoms: C_18  and  C_19 
REMARK   11  A    between atoms: C_19  and  N_20 
ROOT
HETATM    1  H           1     -22.176  -5.773  -9.455  0.00  0.00     0.163 HD
HETATM    2  O           1     -21.774  -3.431  -7.407  0.00  0.00    -0.271 OA
HETATM    3  C           1     -21.719  -4.555  -7.845  0.00  0.00     0.249 C 
HETATM    4  N           1     -22.221  -4.831  -9.089  0.00  0.00    -0.345 N 
ENDROOT
BRANCH   4   5
HETATM    5  C           1     -22.819  -3.773  -9.881  0.00  0.00     0.185 C 
BRANCH   5   6
HETATM    6  C           1     -24.320  -3.831  -9.744  0.00  0.00     0.196 C 
HETATM    7  O           1     -24.966  -2.790  -9.499  0.00  0.00    -0.646 OA
HETATM    8  O           1     -24.918  -4.921  -9.876  0.00  0.00    -0.646 OA
ENDBRANCH   5   6
BRANCH   5   9
HETATM    9  C           1     -22.434  -3.955 -11.343  0.00  0.00     0.036 C 
BRANCH   9  10
HETATM   10  C           1     -22.594  -2.632 -12.080  0.00  0.00     0.004 C 
BRANCH  10  11
HETATM   11  C           1     -23.747  -2.737 -13.069  0.00  0.00     0.027 C 
BRANCH  11  12
HETATM   12  C           1     -23.345  -2.094 -14.389  0.00  0.00     0.229 C 
BRANCH  12  13
HETATM   13  N           1     -24.148  -0.845 -14.604  0.00  0.00    -0.079 N 
HETATM   14  H           1     -23.524  -0.012 -14.527  0.00  0.00     0.274 HD
HETATM   15  H           1     -24.900  -0.787 -13.880  0.00  0.00     0.274 HD
HETATM   16  H           1     -24.581  -0.869 -15.554  0.00  0.00     0.274 HD
ENDBRANCH  12  13
ENDBRANCH  11  12
ENDBRANCH  10  11
ENDBRANCH   9  10
ENDBRANCH   5   9
ENDBRANCH   4   5
BRANCH   3  17
HETATM   17  C           1     -21.097  -5.656  -7.021  0.00  0.00     0.274 C 
BRANCH  17  18
HETATM   18  N           1     -19.827  -6.113  -7.676  0.00  0.00    -0.067 N 
HETATM   19  H           1     -19.834  -7.155  -7.760  0.00  0.00     0.275 HD
HETATM   20  H           1     -19.753  -5.687  -8.627  0.00  0.00     0.275 HD
HETATM   21  H           1     -19.010  -5.816  -7.095  0.00  0.00     0.275 HD
ENDBRANCH  17  18
BRANCH  17  22
HETATM   22  C           1     -20.790  -5.134  -5.625  0.00  0.00     0.045 C 
BRANCH  22  23
HETATM   23 Se           1     -21.477  -6.386  -4.298  0.00  0.00     0.000 Se
HETATM   24  H           1     -21.016  -5.596  -3.144  0.00  0.00     0.000 HD
ENDBRANCH  22  23
ENDBRANCH  17  22
ENDBRANCH   3  17
TORSDOF 11
ENDMDL
MODEL 3
REMARK VINA RESULT:      -5.5      2.465      3.175
REMARK  11 active torsions:
REMARK  status: ('A' for Active; 'I' for Inactive)
REMARK    1  A    between atoms: N_6  and  C_9 
REMARK    2  A    between atoms: Se_7  and  C_8 
REMARK    3  A    between atoms: C_8  and  C_9 
REMARK    4  A    between atoms: C_9  and  C_10 
REMARK       I    between atoms: C_10  and  N_11 
REMARK    5  A    between atoms: N_11  and  C_15 
REMARK    6  A    between atoms: C_14  and  C_15 
REMARK    7  A    between atoms: C_15  and  C_16 
REMARK    8  A    between atoms: C_16  and  C_17 
REMARK    9  A    between atoms: C_17  and  C_18 
REMARK   10  A    between atoms: C_18  and  C_19 
REMARK   11  A    between atoms: C_19  and  N_20 
ROOT
HETATM    1  H           1     -36.414  -3.194 -11.825  0.00  0.00     0.163 HD
HETATM    2  O           1     -34.507  -1.436 -10.060  0.00  0.00    -0.271 OA
HETATM    3  C           1     -35.488  -1.720 -10.706  0.00  0.00     0.249 C 
HETATM    4  N           1     -35.593  -2.957 -11.283  0.00  0.00    -0.345 N 
ENDROOT
BRANCH   4   5
HETATM    5  C           1     -34.528  -3.927 -11.118  0.00  0.00     0.185 C 
BRANCH   5   6
HETATM    6  C           1     -33.540  -3.786 -12.250  0.00  0.00     0.196 C 
HETATM    7  O           1     -32.327  -4.014 -12.054  0.00  0.00    -0.646 OA
HETATM    8  O           1     -33.936  -3.439 -13.385  0.00  0.00    -0.646 OA
ENDBRANCH   5   6
BRANCH   5   9
HETATM    9  C           1     -35.116  -5.332 -11.130  0.00  0.00     0.036 C 
BRANCH   9  10
HETATM   10  C           1     -34.324  -6.223 -10.182  0.00  0.00     0.004 C 
BRANCH  10  11
HETATM   11  C           1     -34.929  -7.620 -10.171  0.00  0.00     0.027 C 
BRANCH  11  12
HETATM   12  C           1     -33.955  -8.591  -9.518  0.00  0.00     0.229 C 
BRANCH  12  13
HETATM   13  N           1     -33.440  -9.553 -10.548  0.00  0.00    -0.079 N 
HETATM   14  H           1     -32.606  -9.141 -11.022  0.00  0.00     0.274 HD
HETATM   15  H           1     -34.188  -9.739 -11.253  0.00  0.00     0.274 HD
HETATM   16  H           1     -33.169 -10.448 -10.083  0.00  0.00     0.274 HD
ENDBRANCH  12  13
ENDBRANCH  11  12
ENDBRANCH  10  11
ENDBRANCH   9  10
ENDBRANCH   5   9
ENDBRANCH   4   5
BRANCH   3  17
HETATM   17  C           1     -36.596  -0.710 -10.878  0.00  0.00     0.274 C 
BRANCH  17  18
HETATM   18  N           1     -36.265   0.531 -10.103  0.00  0.00    -0.067 N 
HETATM   19  H           1     -35.838   1.237 -10.743  0.00  0.00     0.275 HD
HETATM   20  H           1     -37.138   0.923  -9.684  0.00  0.00     0.275 HD
HETATM   21  H           1     -35.588   0.295  -9.342  0.00  0.00     0.275 HD
ENDBRANCH  17  18
BRANCH  17  22
HETATM   22  C           1     -36.744  -0.364 -12.353  0.00  0.00     0.045 C 
BRANCH  22  23
HETATM   23 Se           1     -35.051   0.323 -13.032  0.00  0.00     0.000 Se
HETATM   24  H           1     -35.119  -0.430 -14.295  0.00  0.00     0.000 HD
ENDBRANCH  22  23
ENDBRANCH  17  22
ENDBRANCH   3  17
TORSDOF 11
ENDMDL
MODEL 4
REMARK VINA RESULT:      -5.4      9.251     10.392
REMARK  11 active torsions:
REMARK  status: ('A' for Active; 'I' for Inactive)
REMARK    1  A    between atoms: N_6  and  C_9 
REMARK    2  A    between atoms: Se_7  and  C_8 
REMARK    3  A    between atoms: C_8  and  C_9 
REMARK    4  A    between atoms: C_9  and  C_10 
REMARK       I    between atoms: C_10  and  N_11 
REMARK    5  A    between atoms: N_11  and  C_15 
REMARK    6  A    between atoms: C_14  and  C_15 
REMARK    7  A    between atoms: C_15  and  C_16 
REMARK    8  A    between atoms: C_16  and  C_17 
REMARK    9  A    between atoms: C_17  and  C_18 
REMARK   10  A    between atoms: C_18  and  C_19 
REMARK   11  A    between atoms: C_19  and  N_20 
ROOT
HETATM    1  H           1     -26.677  -7.349 -17.238  0.00  0.00     0.163 HD
HETATM    2  O           1     -27.978  -5.598 -19.493  0.00  0.00    -0.271 OA
HETATM    3  C           1     -27.143  -6.281 -18.949  0.00  0.00     0.249 C 
HETATM    4  N           1     -27.377  -6.778 -17.694  0.00  0.00    -0.345 N 
ENDROOT
BRANCH   4   5
HETATM    5  C           1     -28.625  -6.483 -17.018  0.00  0.00     0.185 C 
BRANCH   5   6
HETATM    6  C           1     -28.399  -6.476 -15.526  0.00  0.00     0.196 C 
HETATM    7  O           1     -27.910  -7.478 -14.963  0.00  0.00    -0.646 OA
HETATM    8  O           1     -28.702  -5.466 -14.854  0.00  0.00    -0.646 OA
ENDBRANCH   5   6
BRANCH   5   9
HETATM    9  C           1     -29.656  -7.548 -17.370  0.00  0.00     0.036 C 
BRANCH   9  10
HETATM   10  C           1     -31.033  -6.908 -17.478  0.00  0.00     0.004 C 
BRANCH  10  11
HETATM   11  C           1     -30.882  -5.404 -17.661  0.00  0.00     0.027 C 
BRANCH  11  12
HETATM   12  C           1     -31.898  -4.681 -16.788  0.00  0.00     0.229 C 
BRANCH  12  13
HETATM   13  N           1     -32.219  -3.346 -17.392  0.00  0.00    -0.079 N 
HETATM   14  H           1     -32.675  -2.740 -16.674  0.00  0.00     0.274 HD
HETATM   15  H           1     -32.867  -3.478 -18.201  0.00  0.00     0.274 HD
HETATM   16  H           1     -31.338  -2.892 -17.721  0.00  0.00     0.274 HD
ENDBRANCH  12  13
ENDBRANCH  11  12
ENDBRANCH  10  11
ENDBRANCH   9  10
ENDBRANCH   5   9
ENDBRANCH   4   5
BRANCH   3  17
HETATM   17  C           1     -25.844  -6.588 -19.652  0.00  0.00     0.274 C 
BRANCH  17  18
HETATM   18  N           1     -24.857  -7.132 -18.662  0.00  0.00    -0.067 N 
HETATM   19  H           1     -24.189  -6.377 -18.385  0.00  0.00     0.275 HD
HETATM   20  H           1     -25.366  -7.476 -17.816  0.00  0.00     0.275 HD
HETATM   21  H           1     -24.328  -7.922 -19.097  0.00  0.00     0.275 HD
ENDBRANCH  17  18
BRANCH  17  22
HETATM   22  C           1     -26.088  -7.618 -20.745  0.00  0.00     0.045 C 
BRANCH  22  23
HETATM   23 Se           1     -24.447  -7.889 -21.762  0.00  0.00     0.000 Se
HETATM   24  H           1     -24.422  -9.346 -21.555  0.00  0.00     0.000 HD
ENDBRANCH  22  23
ENDBRANCH  17  22
ENDBRANCH   3  17
TORSDOF 11
ENDMDL
MODEL 5
REMARK VINA RESULT:      -5.3      1.646      1.981
REMARK  11 active torsions:
REMARK  status: ('A' for Active; 'I' for Inactive)
REMARK    1  A    between atoms: N_6  and  C_9 
REMARK    2  A    between atoms: Se_7  and  C_8 
REMARK    3  A    between atoms: C_8  and  C_9 
REMARK    4  A    between atoms: C_9  and  C_10 
REMARK       I    between atoms: C_10  and  N_11 
REMARK    5  A    between atoms: N_11  and  C_15 
REMARK    6  A    between atoms: C_14  and  C_15 
REMARK    7  A    between atoms: C_15  and  C_16 
REMARK    8  A    between atoms: C_16  and  C_17 
REMARK    9  A    between atoms: C_17  and  C_18 
REMARK   10  A    between atoms: C_18  and  C_19 
REMARK   11  A    between atoms: C_19  and  N_20 
ROOT
HETATM    1  H           1     -35.764  -2.331 -13.730  0.00  0.00     0.163 HD
HETATM    2  O           1     -34.736   0.337 -12.441  0.00  0.00    -0.271 OA
HETATM    3  C           1     -35.106  -0.414 -13.311  0.00  0.00     0.249 C 
HETATM    4  N           1     -35.455  -1.702 -13.001  0.00  0.00    -0.345 N 
ENDROOT
BRANCH   4   5
HETATM    5  C           1     -35.382  -2.163 -11.628  0.00  0.00     0.185 C 
BRANCH   5   6
HETATM    6  C           1     -36.329  -1.353 -10.776  0.00  0.00     0.196 C 
HETATM    7  O           1     -35.902  -0.745  -9.772  0.00  0.00    -0.646 OA
HETATM    8  O           1     -37.541  -1.293 -11.075  0.00  0.00    -0.646 OA
ENDBRANCH   5   6
BRANCH   5   9
HETATM    9  C           1     -33.960  -1.991 -11.111  0.00  0.00     0.036 C 
BRANCH   9  10
HETATM   10  C           1     -33.205  -3.306 -11.249  0.00  0.00     0.004 C 
BRANCH  10  11
HETATM   11  C           1     -33.954  -4.403 -10.503  0.00  0.00     0.027 C 
BRANCH  11  12
HETATM   12  C           1     -33.765  -5.729 -11.227  0.00  0.00     0.229 C 
BRANCH  12  13
HETATM   13  N           1     -34.705  -5.801 -12.394  0.00  0.00    -0.079 N 
HETATM   14  H           1     -35.636  -5.420 -12.115  0.00  0.00     0.274 HD
HETATM   15  H           1     -34.810  -6.797 -12.694  0.00  0.00     0.274 HD
HETATM   16  H           1     -34.320  -5.238 -13.185  0.00  0.00     0.274 HD
ENDBRANCH  12  13
ENDBRANCH  11  12
ENDBRANCH  10  11
ENDBRANCH   9  10
ENDBRANCH   5   9
ENDBRANCH   4   5
BRANCH   3  17
HETATM   17  C           1     -35.182   0.065 -14.740  0.00  0.00     0.274 C 
BRANCH  17  18
HETATM   18  N           1     -35.067  -1.108 -15.667  0.00  0.00    -0.067 N 
HETATM   19  H           1     -34.058  -1.308 -15.854  0.00  0.00     0.275 HD
HETATM   20  H           1     -35.512  -1.945 -15.226  0.00  0.00     0.275 HD
HETATM   21  H           1     -35.552  -0.889 -16.567  0.00  0.00     0.275 HD
ENDBRANCH  17  18
BRANCH  17  22
HETATM   22  C           1     -36.513   0.767 -14.970  0.00  0.00     0.045 C 
BRANCH  22  23
HETATM   23 Se           1     -37.720  -0.428 -15.927  0.00  0.00     0.000 Se
HETATM   24  H           1     -36.723  -1.500 -16.081  0.00  0.00     0.000 HD
ENDBRANCH  22  23
ENDBRANCH  17  22
ENDBRANCH   3  17
TORSDOF 11
ENDMDL
MODEL 6
REMARK VINA RESULT:      -5.1      2.829      4.210
REMARK  11 active torsions:
REMARK  status: ('A' for Active; 'I' for Inactive)
REMARK    1  A    between atoms: N_6  and  C_9 
REMARK    2  A    between atoms: Se_7  and  C_8 
REMARK    3  A    between atoms: C_8  and  C_9 
REMARK    4  A    between atoms: C_9  and  C_10 
REMARK       I    between atoms: C_10  and  N_11 
REMARK    5  A    between atoms: N_11  and  C_15 
REMARK    6  A    between atoms: C_14  and  C_15 
REMARK    7  A    between atoms: C_15  and  C_16 
REMARK    8  A    between atoms: C_16  and  C_17 
REMARK    9  A    between atoms: C_17  and  C_18 
REMARK   10  A    between atoms: C_18  and  C_19 
REMARK   11  A    between atoms: C_19  and  N_20 
ROOT
HETATM    1  H           1     -36.791  -1.514 -13.287  0.00  0.00     0.163 HD
HETATM    2  O           1     -34.486   0.480 -14.032  0.00  0.00    -0.271 OA
HETATM    3  C           1     -35.584  -0.023 -14.064  0.00  0.00     0.249 C 
HETATM    4  N           1     -35.871  -1.093 -13.260  0.00  0.00    -0.345 N 
ENDROOT
BRANCH   4   5
HETATM    5  C           1     -34.857  -1.623 -12.369  0.00  0.00     0.185 C 
BRANCH   5   6
HETATM    6  C           1     -34.506  -3.030 -12.789  0.00  0.00     0.196 C 
HETATM    7  O           1     -34.415  -3.316 -14.002  0.00  0.00    -0.646 OA
HETATM    8  O           1     -34.307  -3.909 -11.922  0.00  0.00    -0.646 OA
ENDBRANCH   5   6
BRANCH   5   9
HETATM    9  C           1     -35.392  -1.637 -10.943  0.00  0.00     0.036 C 
BRANCH   9  10
HETATM   10  C           1     -36.728  -0.906 -10.893  0.00  0.00     0.004 C 
BRANCH  10  11
HETATM   11  C           1     -37.041  -0.518  -9.455  0.00  0.00     0.027 C 
BRANCH  11  12
HETATM   12  C           1     -37.259   0.987  -9.371  0.00  0.00     0.229 C 
BRANCH  12  13
HETATM   13  N           1     -36.380   1.562  -8.300  0.00  0.00    -0.079 N 
HETATM   14  H           1     -36.756   2.490  -8.002  0.00  0.00     0.274 HD
HETATM   15  H           1     -35.411   1.680  -8.672  0.00  0.00     0.274 HD
HETATM   16  H           1     -36.362   0.915  -7.480  0.00  0.00     0.274 HD
ENDBRANCH  12  13
ENDBRANCH  11  12
ENDBRANCH  10  11
ENDBRANCH   9  10
ENDBRANCH   5   9
ENDBRANCH   4   5
BRANCH   3  17
HETATM   17  C           1     -36.639   0.529 -14.991  0.00  0.00     0.274 C 
BRANCH  17  18
HETATM   18  N           1     -36.058   1.654 -15.796  0.00  0.00    -0.067 N 
HETATM   19  H           1     -35.519   2.290 -15.166  0.00  0.00     0.275 HD
HETATM   20  H           1     -35.422   1.266 -16.528  0.00  0.00     0.275 HD
HETATM   21  H           1     -36.831   2.190 -16.253  0.00  0.00     0.275 HD
ENDBRANCH  17  18
BRANCH  17  22
HETATM   22  C           1     -37.118  -0.571 -15.928  0.00  0.00     0.045 C 
BRANCH  22  23
HETATM   23 Se           1     -35.588  -1.354 -16.846  0.00  0.00     0.000 Se
HETATM   24  H           1     -35.061  -2.022 -15.645  0.00  0.00     0.000 HD
ENDBRANCH  22  23
ENDBRANCH  17  22
ENDBRANCH   3  17
TORSDOF 11
ENDMDL
MODEL 7
REMARK VINA RESULT:      -5.1     12.827     14.364
REMARK  11 active torsions:
REMARK  status: ('A' for Active; 'I' for Inactive)
REMARK    1  A    between atoms: N_6  and  C_9 
REMARK    2  A    between atoms: Se_7  and  C_8 
REMARK    3  A    between atoms: C_8  and  C_9 
REMARK    4  A    between atoms: C_9  and  C_10 
REMARK       I    between atoms: C_10  and  N_11 
REMARK    5  A    between atoms: N_11  and  C_15 
REMARK    6  A    between atoms: C_14  and  C_15 
REMARK    7  A    between atoms: C_15  and  C_16 
REMARK    8  A    between atoms: C_16  and  C_17 
REMARK    9  A    between atoms: C_17  and  C_18 
REMARK   10  A    between atoms: C_18  and  C_19 
REMARK   11  A    between atoms: C_19  and  N_20 
ROOT
HETATM    1  H           1     -22.086  -6.138  -8.472  0.00  0.00     0.163 HD
HETATM    2  O           1     -22.835  -3.104  -8.746  0.00  0.00    -0.271 OA
HETATM    3  C           1     -22.905  -4.294  -8.936  0.00  0.00     0.249 C 
HETATM    4  N           1     -22.028  -5.140  -8.311  0.00  0.00    -0.345 N 
ENDROOT
BRANCH   4   5
HETATM    5  C           1     -21.017  -4.607  -7.419  0.00  0.00     0.185 C 
BRANCH   5   6
HETATM    6  C           1     -19.705  -4.495  -8.158  0.00  0.00     0.196 C 
HETATM    7  O           1     -18.640  -4.347  -7.521  0.00  0.00    -0.646 OA
HETATM    8  O           1     -19.685  -4.549  -9.406  0.00  0.00    -0.646 OA
ENDBRANCH   5   6
BRANCH   5   9
HETATM    9  C           1     -20.850  -5.540  -6.227  0.00  0.00     0.036 C 
BRANCH   9  10
HETATM   10  C           1     -22.220  -5.986  -5.734  0.00  0.00     0.004 C 
BRANCH  10  11
HETATM   11  C           1     -22.055  -6.891  -4.521  0.00  0.00     0.027 C 
BRANCH  11  12
HETATM   12  C           1     -21.379  -6.117  -3.397  0.00  0.00     0.229 C 
BRANCH  12  13
HETATM   13  N           1     -22.357  -5.896  -2.282  0.00  0.00    -0.079 N 
HETATM   14  H           1     -23.231  -5.472  -2.664  0.00  0.00     0.274 HD
HETATM   15  H           1     -21.936  -5.252  -1.574  0.00  0.00     0.274 HD
HETATM   16  H           1     -22.582  -6.810  -1.830  0.00  0.00     0.274 HD
ENDBRANCH  12  13
ENDBRANCH  11  12
ENDBRANCH  10  11
ENDBRANCH   9  10
ENDBRANCH   5   9
ENDBRANCH   4   5
BRANCH   3  17
HETATM   17  C           1     -23.957  -4.849  -9.865  0.00  0.00     0.274 C 
BRANCH  17  18
HETATM   18  N           1     -25.218  -4.049  -9.724  0.00  0.00    -0.067 N 
HETATM   19  H           1     -25.822  -4.199 -10.564  0.00  0.00     0.275 HD
HETATM   20  H           1     -25.732  -4.357  -8.867  0.00  0.00     0.275 HD
HETATM   21  H           1     -24.980  -3.035  -9.643  0.00  0.00     0.275 HD
ENDBRANCH  17  18
BRANCH  17  22
HETATM   22  C           1     -23.462  -4.767 -11.302  0.00  0.00     0.045 C 
BRANCH  22  23
HETATM   23 Se           1     -24.166  -3.155 -12.141  0.00  0.00     0.000 Se
HETATM   24  H           1     -22.959  -2.907 -12.947  0.00  0.00     0.000 HD
ENDBRANCH  22  23
ENDBRANCH  17  22
ENDBRANCH   3  17
TORSDOF 11
ENDMDL
MODEL 8
REMARK VINA RESULT:      -5.0     14.821     16.380
REMARK  11 active torsions:
REMARK  status: ('A' for Active; 'I' for Inactive)
REMARK    1  A    between atoms: N_6  and  C_9 
REMARK    2  A    between atoms: Se_7  and  C_8 
REMARK    3  A    between atoms: C_8  and  C_9 
REMARK    4  A    between atoms: C_9  and  C_10 
REMARK       I    between atoms: C_10  and  N_11 
REMARK    5  A    between atoms: N_11  and  C_15 
REMARK    6  A    between atoms: C_14  and  C_15 
REMARK    7  A    between atoms: C_15  and  C_16 
REMARK    8  A    between atoms: C_16  and  C_17 
REMARK    9  A    between atoms: C_17  and  C_18 
REMARK   10  A    between atoms: C_18  and  C_19 
REMARK   11  A    between atoms: C_19  and  N_20 
ROOT
HETATM    1  H           1     -21.707  -7.066  -6.981  0.00  0.00     0.163 HD
HETATM    2  O           1     -20.463  -4.305  -6.163  0.00  0.00    -0.271 OA
HETATM    3  C           1     -21.023  -5.116  -6.861  0.00  0.00     0.249 C 
HETATM    4  N           1     -21.239  -6.386  -6.396  0.00  0.00    -0.345 N 
ENDROOT
BRANCH   4   5
HETATM    5  C           1     -20.798  -6.756  -5.065  0.00  0.00     0.185 C 
BRANCH   5   6
HETATM    6  C           1     -20.342  -8.195  -5.068  0.00  0.00     0.196 C 
HETATM    7  O           1     -20.890  -9.022  -5.828  0.00  0.00    -0.646 OA
HETATM    8  O           1     -19.418  -8.559  -4.310  0.00  0.00    -0.646 OA
ENDBRANCH   5   6
BRANCH   5   9
HETATM    9  C           1     -21.952  -6.591  -4.084  0.00  0.00     0.036 C 
BRANCH   9  10
HETATM   10  C           1     -21.424  -6.046  -2.764  0.00  0.00     0.004 C 
BRANCH  10  11
HETATM   11  C           1     -22.297  -6.547  -1.621  0.00  0.00     0.027 C 
BRANCH  11  12
HETATM   12  C           1     -21.846  -7.943  -1.212  0.00  0.00     0.229 C 
BRANCH  12  13
HETATM   13  N           1     -20.363  -8.066  -1.399  0.00  0.00    -0.079 N 
HETATM   14  H           1     -19.918  -8.317  -0.488  0.00  0.00     0.274 HD
HETATM   15  H           1     -19.979  -7.155  -1.736  0.00  0.00     0.274 HD
HETATM   16  H           1     -20.161  -8.811  -2.102  0.00  0.00     0.274 HD
ENDBRANCH  12  13
ENDBRANCH  11  12
ENDBRANCH  10  11
ENDBRANCH   9  10
ENDBRANCH   5   9
ENDBRANCH   4   5
BRANCH   3  17
HETATM   17  C           1     -21.481  -4.732  -8.246  0.00  0.00     0.274 C 
BRANCH  17  18
HETATM   18  N           1     -22.421  -3.566  -8.155  0.00  0.00    -0.067 N 
HETATM   19  H           1     -22.585  -3.329  -7.150  0.00  0.00     0.275 HD
HETATM   20  H           1     -22.003  -2.743  -8.644  0.00  0.00     0.275 HD
HETATM   21  H           1     -23.330  -3.816  -8.607  0.00  0.00     0.275 HD
ENDBRANCH  17  18
BRANCH  17  22
HETATM   22  C           1     -20.276  -4.347  -9.092  0.00  0.00     0.045 C 
BRANCH  22  23
HETATM   23 Se           1     -20.835  -4.089 -10.941  0.00  0.00     0.000 Se
HETATM   24  H           1     -22.063  -3.357 -10.589  0.00  0.00     0.000 HD
ENDBRANCH  22  23
ENDBRANCH  17  22
ENDBRANCH   3  17
TORSDOF 11
ENDMDL
MODEL 9
REMARK VINA RESULT:      -4.9     14.209     16.399
REMARK  11 active torsions:
REMARK  status: ('A' for Active; 'I' for Inactive)
REMARK    1  A    between atoms: N_6  and  C_9 
REMARK    2  A    between atoms: Se_7  and  C_8 
REMARK    3  A    between atoms: C_8  and  C_9 
REMARK    4  A    between atoms: C_9  and  C_10 
REMARK       I    between atoms: C_10  and  N_11 
REMARK    5  A    between atoms: N_11  and  C_15 
REMARK    6  A    between atoms: C_14  and  C_15 
REMARK    7  A    between atoms: C_15  and  C_16 
REMARK    8  A    between atoms: C_16  and  C_17 
REMARK    9  A    between atoms: C_17  and  C_18 
REMARK   10  A    between atoms: C_18  and  C_19 
REMARK   11  A    between atoms: C_19  and  N_20 
ROOT
HETATM    1  H           1     -20.239  -4.973  -4.949  0.00  0.00     0.163 HD
HETATM    2  O           1     -22.577  -7.065  -4.938  0.00  0.00    -0.271 OA
HETATM    3  C           1     -21.684  -6.384  -4.494  0.00  0.00     0.249 C 
HETATM    4  N           1     -20.988  -5.543  -5.321  0.00  0.00    -0.345 N 
ENDROOT
BRANCH   4   5
HETATM    5  C           1     -21.324  -5.469  -6.730  0.00  0.00     0.185 C 
BRANCH   5   6
HETATM    6  C           1     -20.083  -5.707  -7.555  0.00  0.00     0.196 C 
HETATM    7  O           1     -19.780  -4.914  -8.472  0.00  0.00    -0.646 OA
HETATM    8  O           1     -19.358  -6.698  -7.321  0.00  0.00    -0.646 OA
ENDBRANCH   5   6
BRANCH   5   9
HETATM    9  C           1     -21.886  -4.089  -7.045  0.00  0.00     0.036 C 
BRANCH   9  10
HETATM   10  C           1     -23.196  -4.236  -7.808  0.00  0.00     0.004 C 
BRANCH  10  11
HETATM   11  C           1     -23.060  -3.592  -9.182  0.00  0.00     0.027 C 
BRANCH  11  12
HETATM   12  C           1     -22.847  -4.674 -10.231  0.00  0.00     0.229 C 
BRANCH  12  13
HETATM   13  N           1     -21.525  -4.464 -10.908  0.00  0.00    -0.079 N 
HETATM   14  H           1     -21.088  -5.389 -11.116  0.00  0.00     0.274 HD
HETATM   15  H           1     -20.897  -3.914 -10.279  0.00  0.00     0.274 HD
HETATM   16  H           1     -21.670  -3.939 -11.800  0.00  0.00     0.274 HD
ENDBRANCH  12  13
ENDBRANCH  11  12
ENDBRANCH  10  11
ENDBRANCH   9  10
ENDBRANCH   5   9
ENDBRANCH   4   5
BRANCH   3  17
HETATM   17  C           1     -21.334  -6.460  -3.028  0.00  0.00     0.274 C 
BRANCH  17  18
HETATM   18  N           1     -22.425  -5.822  -2.221  0.00  0.00    -0.067 N 
HETATM   19  H           1     -23.139  -6.543  -1.968  0.00  0.00     0.275 HD
HETATM   20  H           1     -22.019  -5.412  -1.349  0.00  0.00     0.275 HD
HETATM   21  H           1     -22.878  -5.067  -2.784  0.00  0.00     0.275 HD
ENDBRANCH  17  18
BRANCH  17  22
HETATM   22  C           1     -21.184  -7.918  -2.617  0.00  0.00     0.045 C 
BRANCH  22  23
HETATM   23 Se           1     -19.762  -8.745  -3.663  0.00  0.00     0.000 Se
HETATM   24  H           1     -18.677  -8.219  -2.818  0.00  0.00     0.000 HD
ENDBRANCH  22  23
ENDBRANCH  17  22
ENDBRANCH   3  17
TORSDOF 11
ENDMDL
