MODEL 1
REMARK VINA RESULT:      -9.1      0.000      0.000
REMARK  8 active torsions:
REMARK  status: ('A' for Active; 'I' for Inactive)
REMARK    1  A    between atoms: C_2  and  C_3 
REMARK    2  A    between atoms: C_3  and  C_4 
REMARK    3  A    between atoms: C_4  and  C_30 
REMARK    4  A    between atoms: C_4  and  N_22 
REMARK    5  A    between atoms: N_6  and  C_11 
REMARK    6  A    between atoms: C_11  and  C_23 
REMARK    7  A    between atoms: C_11  and  C_13 
REMARK    8  A    between atoms: C_13  and  C_17 
REMARK       I    between atoms: N_22  and  C_23 
ROOT
HETATM    1  C           1     -19.754  -4.402  -7.463  0.00  0.00     0.278 C 
ENDROOT
BRANCH   1   2
HETATM    2  N           1     -18.274  -4.158  -7.489  0.00  0.00    -0.066 N 
HETATM    3  H           1     -17.839  -4.731  -8.247  0.00  0.00     0.275 HD
HETATM    4  H           1     -18.092  -3.145  -7.671  0.00  0.00     0.275 HD
HETATM    5  H           1     -17.860  -4.426  -6.569  0.00  0.00     0.275 HD
ENDBRANCH   1   2
BRANCH   1   6
HETATM    6  C           1     -20.062  -5.517  -6.495  0.00  0.00     0.249 C 
HETATM    7  O           1     -19.770  -6.656  -6.772  0.00  0.00    -0.271 OA
HETATM    8  N           1     -20.672  -5.239  -5.302  0.00  0.00    -0.344 N 
HETATM    9  H           1     -20.917  -4.285  -5.069  0.00  0.00     0.163 HD
BRANCH   8  10
HETATM   10  C           1     -20.968  -6.310  -4.371  0.00  0.00     0.189 C 
BRANCH  10  11
HETATM   11  C           1     -21.154  -5.732  -2.974  0.00  0.00     0.074 C 
BRANCH  11  12
HETATM   12  C           1     -21.340  -6.846  -1.992  0.00  0.00    -0.056 A 
HETATM   13  C           1     -20.466  -7.932  -1.995  0.00  0.00     0.007 A 
HETATM   14  C           1     -20.641  -8.971  -1.080  0.00  0.00     0.001 A 
HETATM   15  C           1     -21.690  -8.922  -0.161  0.00  0.00     0.000 A 
HETATM   16  C           1     -22.563  -7.835  -0.159  0.00  0.00     0.001 A 
HETATM   17  C           1     -22.389  -6.797  -1.074  0.00  0.00     0.007 A 
ENDBRANCH  11  12
ENDBRANCH  10  11
BRANCH  10  18
HETATM   18  C           1     -22.236  -7.010  -4.796  0.00  0.00     0.197 C 
HETATM   19  O           1     -22.241  -8.250  -4.959  0.00  0.00    -0.646 OA
HETATM   20  O           1     -23.282  -6.351  -4.985  0.00  0.00    -0.646 OA
ENDBRANCH  10  18
ENDBRANCH   8  10
ENDBRANCH   1   6
BRANCH   1  21
HETATM   21  C           1     -20.226  -4.795  -8.857  0.00  0.00     0.083 C 
BRANCH  21  22
HETATM   22  C           1     -21.647  -4.361  -9.044  0.00  0.00    -0.028 A 
HETATM   23  C           1     -22.612  -4.301  -8.063  0.00  0.00     0.096 A 
HETATM   24  N           1     -23.771  -3.857  -8.645  0.00  0.00    -0.365 N 
HETATM   25  H           1     -24.679  -3.712  -8.139  0.00  0.00     0.165 HD
HETATM   26  C           1     -23.573  -3.626  -9.988  0.00  0.00     0.042 A 
HETATM   27  C           1     -24.462  -3.172 -10.968  0.00  0.00     0.030 A 
HETATM   28  C           1     -22.242  -3.937 -10.265  0.00  0.00    -0.002 A 
HETATM   29  C           1     -23.973  -3.032 -12.270  0.00  0.00     0.002 A 
HETATM   30  C           1     -22.647  -3.335 -12.577  0.00  0.00     0.001 A 
HETATM   31  C           1     -21.771  -3.789 -11.583  0.00  0.00     0.014 A 
ENDBRANCH  21  22
ENDBRANCH   1  21
TORSDOF 8
ENDMDL
MODEL 2
REMARK VINA RESULT:      -9.1      1.451      2.050
REMARK  8 active torsions:
REMARK  status: ('A' for Active; 'I' for Inactive)
REMARK    1  A    between atoms: C_2  and  C_3 
REMARK    2  A    between atoms: C_3  and  C_4 
REMARK    3  A    between atoms: C_4  and  C_30 
REMARK    4  A    between atoms: C_4  and  N_22 
REMARK    5  A    between atoms: N_6  and  C_11 
REMARK    6  A    between atoms: C_11  and  C_23 
REMARK    7  A    between atoms: C_11  and  C_13 
REMARK    8  A    between atoms: C_13  and  C_17 
REMARK       I    between atoms: N_22  and  C_23 
ROOT
HETATM    1  C           1     -20.160  -4.537  -7.256  0.00  0.00     0.278 C 
ENDROOT
BRANCH   1   2
HETATM    2  N           1     -18.763  -4.163  -7.657  0.00  0.00    -0.066 N 
HETATM    3  H           1     -18.366  -4.907  -8.274  0.00  0.00     0.275 HD
HETATM    4  H           1     -18.782  -3.255  -8.175  0.00  0.00     0.275 HD
HETATM    5  H           1     -18.170  -4.065  -6.803  0.00  0.00     0.275 HD
ENDBRANCH   1   2
BRANCH   1   6
HETATM    6  C           1     -20.113  -5.392  -6.014  0.00  0.00     0.249 C 
HETATM    7  O           1     -20.102  -4.874  -4.923  0.00  0.00    -0.271 OA
HETATM    8  N           1     -20.084  -6.756  -6.122  0.00  0.00    -0.344 N 
HETATM    9  H           1     -20.093  -7.192  -7.036  0.00  0.00     0.163 HD
BRANCH   8  10
HETATM   10  C           1     -20.039  -7.578  -4.929  0.00  0.00     0.189 C 
BRANCH  10  11
HETATM   11  C           1     -21.444  -8.058  -4.590  0.00  0.00     0.074 C 
BRANCH  11  12
HETATM   12  C           1     -21.713  -7.829  -3.135  0.00  0.00    -0.056 A 
HETATM   13  C           1     -21.975  -6.541  -2.669  0.00  0.00     0.007 A 
HETATM   14  C           1     -22.226  -6.328  -1.313  0.00  0.00     0.001 A 
HETATM   15  C           1     -22.215  -7.403  -0.425  0.00  0.00     0.000 A 
HETATM   16  C           1     -21.954  -8.691  -0.892  0.00  0.00     0.001 A 
HETATM   17  C           1     -21.703  -8.904  -2.247  0.00  0.00     0.007 A 
ENDBRANCH  11  12
ENDBRANCH  10  11
BRANCH  10  18
HETATM   18  C           1     -19.146  -8.771  -5.173  0.00  0.00     0.197 C 
HETATM   19  O           1     -18.593  -8.921  -6.284  0.00  0.00    -0.646 OA
HETATM   20  O           1     -18.960  -9.609  -4.264  0.00  0.00    -0.646 OA
ENDBRANCH  10  18
ENDBRANCH   8  10
ENDBRANCH   1   6
BRANCH   1  21
HETATM   21  C           1     -20.819  -5.318  -8.385  0.00  0.00     0.083 C 
BRANCH  21  22
HETATM   22  C           1     -22.109  -4.657  -8.762  0.00  0.00    -0.028 A 
HETATM   23  C           1     -23.166  -4.402  -7.918  0.00  0.00     0.096 A 
HETATM   24  N           1     -24.148  -3.789  -8.653  0.00  0.00    -0.365 N 
HETATM   25  H           1     -25.075  -3.476  -8.272  0.00  0.00     0.165 HD
HETATM   26  C           1     -23.744  -3.642  -9.961  0.00  0.00     0.042 A 
HETATM   27  C           1     -24.409  -3.078 -11.055  0.00  0.00     0.030 A 
HETATM   28  C           1     -22.461  -4.182 -10.056  0.00  0.00    -0.002 A 
HETATM   29  C           1     -23.741  -3.068 -12.283  0.00  0.00     0.002 A 
HETATM   30  C           1     -22.459  -3.600 -12.408  0.00  0.00     0.001 A 
HETATM   31  C           1     -21.807  -4.161 -11.303  0.00  0.00     0.014 A 
ENDBRANCH  21  22
ENDBRANCH   1  21
TORSDOF 8
ENDMDL
MODEL 3
REMARK VINA RESULT:      -8.9      1.833      2.760
REMARK  8 active torsions:
REMARK  status: ('A' for Active; 'I' for Inactive)
REMARK    1  A    between atoms: C_2  and  C_3 
REMARK    2  A    between atoms: C_3  and  C_4 
REMARK    3  A    between atoms: C_4  and  C_30 
REMARK    4  A    between atoms: C_4  and  N_22 
REMARK    5  A    between atoms: N_6  and  C_11 
REMARK    6  A    between atoms: C_11  and  C_23 
REMARK    7  A    between atoms: C_11  and  C_13 
REMARK    8  A    between atoms: C_13  and  C_17 
REMARK       I    between atoms: N_22  and  C_23 
ROOT
HETATM    1  C           1     -22.164  -5.409  -6.646  0.00  0.00     0.278 C 
ENDROOT
BRANCH   1   2
HETATM    2  N           1     -23.545  -5.042  -6.188  0.00  0.00    -0.066 N 
HETATM    3  H           1     -24.234  -5.264  -6.943  0.00  0.00     0.275 HD
HETATM    4  H           1     -23.783  -5.588  -5.329  0.00  0.00     0.275 HD
HETATM    5  H           1     -23.581  -4.021  -5.973  0.00  0.00     0.275 HD
ENDBRANCH   1   2
BRANCH   1   6
HETATM    6  C           1     -21.408  -6.041  -5.504  0.00  0.00     0.249 C 
HETATM    7  O           1     -20.846  -5.345  -4.692  0.00  0.00    -0.271 OA
HETATM    8  N           1     -21.358  -7.403  -5.387  0.00  0.00    -0.344 N 
HETATM    9  H           1     -21.829  -7.988  -6.066  0.00  0.00     0.163 HD
BRANCH   8  10
HETATM   10  C           1     -20.631  -8.011  -4.290  0.00  0.00     0.189 C 
BRANCH  10  11
HETATM   11  C           1     -21.485  -9.104  -3.659  0.00  0.00     0.074 C 
BRANCH  11  12
HETATM   12  C           1     -21.866  -8.701  -2.268  0.00  0.00    -0.056 A 
HETATM   13  C           1     -21.891  -7.352  -1.915  0.00  0.00     0.007 A 
HETATM   14  C           1     -22.246  -6.978  -0.619  0.00  0.00     0.001 A 
HETATM   15  C           1     -22.577  -7.952   0.323  0.00  0.00     0.000 A 
HETATM   16  C           1     -22.552  -9.300  -0.031  0.00  0.00     0.001 A 
HETATM   17  C           1     -22.197  -9.675  -1.326  0.00  0.00     0.007 A 
ENDBRANCH  11  12
ENDBRANCH  10  11
BRANCH  10  18
HETATM   18  C           1     -19.348  -8.613  -4.808  0.00  0.00     0.197 C 
HETATM   19  O           1     -18.548  -9.158  -4.016  0.00  0.00    -0.646 OA
HETATM   20  O           1     -19.085  -8.568  -6.030  0.00  0.00    -0.646 OA
ENDBRANCH  10  18
ENDBRANCH   8  10
ENDBRANCH   1   6
BRANCH   1  21
HETATM   21  C           1     -21.434  -4.154  -7.106  0.00  0.00     0.083 C 
BRANCH  21  22
HETATM   22  C           1     -21.256  -4.197  -8.593  0.00  0.00    -0.028 A 
HETATM   23  C           1     -20.095  -4.512  -9.262  0.00  0.00     0.096 A 
HETATM   24  N           1     -20.353  -4.434 -10.606  0.00  0.00    -0.365 N 
HETATM   25  H           1     -19.652  -4.624 -11.363  0.00  0.00     0.165 HD
HETATM   26  C           1     -21.665  -4.074 -10.819  0.00  0.00     0.042 A 
HETATM   27  C           1     -22.366  -3.876 -12.014  0.00  0.00     0.030 A 
HETATM   28  C           1     -22.256  -3.917  -9.565  0.00  0.00    -0.002 A 
HETATM   29  C           1     -23.711  -3.507 -11.922  0.00  0.00     0.002 A 
HETATM   30  C           1     -24.328  -3.343 -10.683  0.00  0.00     0.001 A 
HETATM   31  C           1     -23.612  -3.545  -9.496  0.00  0.00     0.014 A 
ENDBRANCH  21  22
ENDBRANCH   1  21
TORSDOF 8
ENDMDL
MODEL 4
REMARK VINA RESULT:      -8.6      2.715      3.664
REMARK  8 active torsions:
REMARK  status: ('A' for Active; 'I' for Inactive)
REMARK    1  A    between atoms: C_2  and  C_3 
REMARK    2  A    between atoms: C_3  and  C_4 
REMARK    3  A    between atoms: C_4  and  C_30 
REMARK    4  A    between atoms: C_4  and  N_22 
REMARK    5  A    between atoms: N_6  and  C_11 
REMARK    6  A    between atoms: C_11  and  C_23 
REMARK    7  A    between atoms: C_11  and  C_13 
REMARK    8  A    between atoms: C_13  and  C_17 
REMARK       I    between atoms: N_22  and  C_23 
ROOT
HETATM    1  C           1     -21.167  -5.697  -5.796  0.00  0.00     0.278 C 
ENDROOT
BRANCH   1   2
HETATM    2  N           1     -20.296  -4.846  -4.920  0.00  0.00    -0.066 N 
HETATM    3  H           1     -19.693  -5.459  -4.326  0.00  0.00     0.275 HD
HETATM    4  H           1     -19.691  -4.237  -5.517  0.00  0.00     0.275 HD
HETATM    5  H           1     -20.895  -4.248  -4.308  0.00  0.00     0.275 HD
ENDBRANCH   1   2
BRANCH   1   6
HETATM    6  C           1     -20.974  -7.149  -5.436  0.00  0.00     0.249 C 
HETATM    7  O           1     -21.141  -8.006  -6.271  0.00  0.00    -0.271 OA
HETATM    8  N           1     -20.610  -7.497  -4.163  0.00  0.00    -0.344 N 
HETATM    9  H           1     -20.470  -6.779  -3.463  0.00  0.00     0.163 HD
BRANCH   8  10
HETATM   10  C           1     -20.425  -8.892  -3.817  0.00  0.00     0.189 C 
BRANCH  10  11
HETATM   11  C           1     -19.217  -9.032  -2.900  0.00  0.00     0.074 C 
BRANCH  11  12
HETATM   12  C           1     -18.015  -9.408  -3.709  0.00  0.00    -0.056 A 
HETATM   13  C           1     -18.138  -9.628  -5.081  0.00  0.00     0.007 A 
HETATM   14  C           1     -17.017  -9.979  -5.834  0.00  0.00     0.001 A 
HETATM   15  C           1     -15.774 -10.111  -5.215  0.00  0.00     0.000 A 
HETATM   16  C           1     -15.652  -9.891  -3.844  0.00  0.00     0.001 A 
HETATM   17  C           1     -16.772  -9.540  -3.090  0.00  0.00     0.007 A 
ENDBRANCH  11  12
ENDBRANCH  10  11
BRANCH  10  18
HETATM   18  C           1     -21.655  -9.403  -3.108  0.00  0.00     0.197 C 
HETATM   19  O           1     -22.397 -10.239  -3.666  0.00  0.00    -0.646 OA
HETATM   20  O           1     -21.932  -8.989  -1.960  0.00  0.00    -0.646 OA
ENDBRANCH  10  18
ENDBRANCH   8  10
ENDBRANCH   1   6
BRANCH   1  21
HETATM   21  C           1     -20.785  -5.480  -7.254  0.00  0.00     0.083 C 
BRANCH  21  22
HETATM   22  C           1     -21.905  -4.785  -7.965  0.00  0.00    -0.028 A 
HETATM   23  C           1     -23.137  -4.479  -7.434  0.00  0.00     0.096 A 
HETATM   24  N           1     -23.867  -3.848  -8.407  0.00  0.00    -0.365 N 
HETATM   25  H           1     -24.849  -3.498  -8.288  0.00  0.00     0.165 HD
HETATM   26  C           1     -23.127  -3.740  -9.563  0.00  0.00     0.042 A 
HETATM   27  C           1     -23.459  -3.176 -10.800  0.00  0.00     0.030 A 
HETATM   28  C           1     -21.885  -4.323  -9.311  0.00  0.00    -0.002 A 
HETATM   29  C           1     -22.490  -3.210 -11.808  0.00  0.00     0.002 A 
HETATM   30  C           1     -21.241  -3.787 -11.584  0.00  0.00     0.001 A 
HETATM   31  C           1     -20.925  -4.347 -10.341  0.00  0.00     0.014 A 
ENDBRANCH  21  22
ENDBRANCH   1  21
TORSDOF 8
ENDMDL
MODEL 5
REMARK VINA RESULT:      -8.4      2.122      3.047
REMARK  8 active torsions:
REMARK  status: ('A' for Active; 'I' for Inactive)
REMARK    1  A    between atoms: C_2  and  C_3 
REMARK    2  A    between atoms: C_3  and  C_4 
REMARK    3  A    between atoms: C_4  and  C_30 
REMARK    4  A    between atoms: C_4  and  N_22 
REMARK    5  A    between atoms: N_6  and  C_11 
REMARK    6  A    between atoms: C_11  and  C_23 
REMARK    7  A    between atoms: C_11  and  C_13 
REMARK    8  A    between atoms: C_13  and  C_17 
REMARK       I    between atoms: N_22  and  C_23 
ROOT
HETATM    1  C           1     -21.077  -5.289  -5.304  0.00  0.00     0.278 C 
ENDROOT
BRANCH   1   2
HETATM    2  N           1     -19.869  -4.401  -5.252  0.00  0.00    -0.066 N 
HETATM    3  H           1     -19.043  -4.954  -4.926  0.00  0.00     0.275 HD
HETATM    4  H           1     -19.676  -4.019  -6.206  0.00  0.00     0.275 HD
HETATM    5  H           1     -20.043  -3.613  -4.590  0.00  0.00     0.275 HD
ENDBRANCH   1   2
BRANCH   1   6
HETATM    6  C           1     -20.959  -6.360  -4.248  0.00  0.00     0.249 C 
HETATM    7  O           1     -21.307  -6.131  -3.114  0.00  0.00    -0.271 OA
HETATM    8  N           1     -20.460  -7.591  -4.575  0.00  0.00    -0.344 N 
HETATM    9  H           1     -20.169  -7.784  -5.525  0.00  0.00     0.163 HD
BRANCH   8  10
HETATM   10  C           1     -20.346  -8.620  -3.560  0.00  0.00     0.189 C 
BRANCH  10  11
HETATM   11  C           1     -21.379  -9.708  -3.823  0.00  0.00     0.074 C 
BRANCH  11  12
HETATM   12  C           1     -22.157  -9.972  -2.571  0.00  0.00    -0.056 A 
HETATM   13  C           1     -22.001  -9.139  -1.464  0.00  0.00     0.007 A 
HETATM   14  C           1     -22.726  -9.386  -0.298  0.00  0.00     0.001 A 
HETATM   15  C           1     -23.606 -10.466  -0.239  0.00  0.00     0.000 A 
HETATM   16  C           1     -23.763 -11.299  -1.347  0.00  0.00     0.001 A 
HETATM   17  C           1     -23.038 -11.052  -2.513  0.00  0.00     0.007 A 
ENDBRANCH  11  12
ENDBRANCH  10  11
BRANCH  10  18
HETATM   18  C           1     -18.962  -9.221  -3.605  0.00  0.00     0.197 C 
HETATM   19  O           1     -18.421  -9.462  -4.706  0.00  0.00    -0.646 OA
HETATM   20  O           1     -18.357  -9.477  -2.542  0.00  0.00    -0.646 OA
ENDBRANCH  10  18
ENDBRANCH   8  10
ENDBRANCH   1   6
BRANCH   1  21
HETATM   21  C           1     -21.168  -5.939  -6.678  0.00  0.00     0.083 C 
BRANCH  21  22
HETATM   22  C           1     -21.992  -5.077  -7.585  0.00  0.00    -0.028 A 
HETATM   23  C           1     -23.255  -4.599  -7.322  0.00  0.00     0.096 A 
HETATM   24  N           1     -23.654  -3.856  -8.402  0.00  0.00    -0.365 N 
HETATM   25  H           1     -24.578  -3.365  -8.484  0.00  0.00     0.165 HD
HETATM   26  C           1     -22.668  -3.844  -9.363  0.00  0.00     0.042 A 
HETATM   27  C           1     -22.634  -3.223 -10.616  0.00  0.00     0.030 A 
HETATM   28  C           1     -21.609  -4.608  -8.872  0.00  0.00    -0.002 A 
HETATM   29  C           1     -21.481  -3.389 -11.390  0.00  0.00     0.002 A 
HETATM   30  C           1     -20.407  -4.147 -10.925  0.00  0.00     0.001 A 
HETATM   31  C           1     -20.458  -4.763  -9.669  0.00  0.00     0.014 A 
ENDBRANCH  21  22
ENDBRANCH   1  21
TORSDOF 8
ENDMDL
MODEL 6
REMARK VINA RESULT:      -8.4      1.813      8.635
REMARK  8 active torsions:
REMARK  status: ('A' for Active; 'I' for Inactive)
REMARK    1  A    between atoms: C_2  and  C_3 
REMARK    2  A    between atoms: C_3  and  C_4 
REMARK    3  A    between atoms: C_4  and  C_30 
REMARK    4  A    between atoms: C_4  and  N_22 
REMARK    5  A    between atoms: N_6  and  C_11 
REMARK    6  A    between atoms: C_11  and  C_23 
REMARK    7  A    between atoms: C_11  and  C_13 
REMARK    8  A    between atoms: C_13  and  C_17 
REMARK       I    between atoms: N_22  and  C_23 
ROOT
HETATM    1  C           1     -21.146  -8.454  -5.180  0.00  0.00     0.278 C 
ENDROOT
BRANCH   1   2
HETATM    2  N           1     -20.996  -9.796  -5.832  0.00  0.00    -0.066 N 
HETATM    3  H           1     -21.653  -9.867  -6.642  0.00  0.00     0.275 HD
HETATM    4  H           1     -20.013  -9.910  -6.171  0.00  0.00     0.275 HD
HETATM    5  H           1     -21.214 -10.547  -5.140  0.00  0.00     0.275 HD
ENDBRANCH   1   2
BRANCH   1   6
HETATM    6  C           1     -20.578  -7.389  -6.085  0.00  0.00     0.249 C 
HETATM    7  O           1     -19.428  -7.456  -6.450  0.00  0.00    -0.271 OA
HETATM    8  N           1     -21.365  -6.347  -6.494  0.00  0.00    -0.344 N 
HETATM    9  H           1     -22.328  -6.290  -6.189  0.00  0.00     0.163 HD
BRANCH   8  10
HETATM   10  C           1     -20.819  -5.323  -7.364  0.00  0.00     0.189 C 
BRANCH  10  11
HETATM   11  C           1     -21.912  -4.323  -7.718  0.00  0.00     0.074 C 
BRANCH  11  12
HETATM   12  C           1     -21.921  -4.094  -9.197  0.00  0.00    -0.056 A 
HETATM   13  C           1     -23.095  -3.689  -9.833  0.00  0.00     0.007 A 
HETATM   14  C           1     -23.103  -3.477 -11.212  0.00  0.00     0.001 A 
HETATM   15  C           1     -21.938  -3.670 -11.954  0.00  0.00     0.000 A 
HETATM   16  C           1     -20.765  -4.074 -11.318  0.00  0.00     0.001 A 
HETATM   17  C           1     -20.756  -4.287  -9.940  0.00  0.00     0.007 A 
ENDBRANCH  11  12
ENDBRANCH  10  11
BRANCH  10  18
HETATM   18  C           1     -19.695  -4.608  -6.656  0.00  0.00     0.197 C 
HETATM   19  O           1     -19.820  -4.277  -5.457  0.00  0.00    -0.646 OA
HETATM   20  O           1     -18.636  -4.347  -7.268  0.00  0.00    -0.646 OA
ENDBRANCH  10  18
ENDBRANCH   8  10
ENDBRANCH   1   6
BRANCH   1  21
HETATM   21  C           1     -20.394  -8.447  -3.855  0.00  0.00     0.083 C 
BRANCH  21  22
HETATM   22  C           1     -21.181  -7.679  -2.838  0.00  0.00    -0.028 A 
HETATM   23  C           1     -21.794  -6.463  -3.038  0.00  0.00     0.096 A 
HETATM   24  N           1     -22.404  -6.105  -1.864  0.00  0.00    -0.365 N 
HETATM   25  H           1     -22.952  -5.222  -1.717  0.00  0.00     0.165 HD
HETATM   26  C           1     -22.197  -7.071  -0.905  0.00  0.00     0.042 A 
HETATM   27  C           1     -22.626  -7.132   0.426  0.00  0.00     0.030 A 
HETATM   28  C           1     -21.427  -8.075  -1.494  0.00  0.00    -0.002 A 
HETATM   29  C           1     -22.257  -8.254   1.174  0.00  0.00     0.002 A 
HETATM   30  C           1     -21.489  -9.272   0.611  0.00  0.00     0.001 A 
HETATM   31  C           1     -21.067  -9.195  -0.722  0.00  0.00     0.014 A 
ENDBRANCH  21  22
ENDBRANCH   1  21
TORSDOF 8
ENDMDL
MODEL 7
REMARK VINA RESULT:      -8.4      1.834      2.820
REMARK  8 active torsions:
REMARK  status: ('A' for Active; 'I' for Inactive)
REMARK    1  A    between atoms: C_2  and  C_3 
REMARK    2  A    between atoms: C_3  and  C_4 
REMARK    3  A    between atoms: C_4  and  C_30 
REMARK    4  A    between atoms: C_4  and  N_22 
REMARK    5  A    between atoms: N_6  and  C_11 
REMARK    6  A    between atoms: C_11  and  C_23 
REMARK    7  A    between atoms: C_11  and  C_13 
REMARK    8  A    between atoms: C_13  and  C_17 
REMARK       I    between atoms: N_22  and  C_23 
ROOT
HETATM    1  C           1     -21.693  -6.499  -5.747  0.00  0.00     0.278 C 
ENDROOT
BRANCH   1   2
HETATM    2  N           1     -22.418  -6.001  -4.532  0.00  0.00    -0.066 N 
HETATM    3  H           1     -21.955  -6.374  -3.672  0.00  0.00     0.275 HD
HETATM    4  H           1     -22.391  -4.956  -4.515  0.00  0.00     0.275 HD
HETATM    5  H           1     -23.410  -6.323  -4.562  0.00  0.00     0.275 HD
ENDBRANCH   1   2
BRANCH   1   6
HETATM    6  C           1     -20.668  -7.526  -5.335  0.00  0.00     0.249 C 
HETATM    7  O           1     -19.698  -7.725  -6.027  0.00  0.00    -0.271 OA
HETATM    8  N           1     -20.836  -8.233  -4.175  0.00  0.00    -0.344 N 
HETATM    9  H           1     -21.648  -8.066  -3.593  0.00  0.00     0.163 HD
BRANCH   8  10
HETATM   10  C           1     -19.852  -9.220  -3.778  0.00  0.00     0.189 C 
BRANCH  10  11
HETATM   11  C           1     -19.440  -8.974  -2.332  0.00  0.00     0.074 C 
BRANCH  11  12
HETATM   12  C           1     -20.651  -8.645  -1.516  0.00  0.00    -0.056 A 
HETATM   13  C           1     -21.271  -9.637  -0.757  0.00  0.00     0.007 A 
HETATM   14  C           1     -22.400  -9.330   0.003  0.00  0.00     0.001 A 
HETATM   15  C           1     -22.908  -8.031   0.005  0.00  0.00     0.000 A 
HETATM   16  C           1     -22.287  -7.039  -0.754  0.00  0.00     0.001 A 
HETATM   17  C           1     -21.159  -7.346  -1.514  0.00  0.00     0.007 A 
ENDBRANCH  11  12
ENDBRANCH  10  11
BRANCH  10  18
HETATM   18  C           1     -20.446 -10.601  -3.901  0.00  0.00     0.197 C 
HETATM   19  O           1     -21.662 -10.738  -4.159  0.00  0.00    -0.646 OA
HETATM   20  O           1     -19.723 -11.610  -3.748  0.00  0.00    -0.646 OA
ENDBRANCH  10  18
ENDBRANCH   8  10
ENDBRANCH   1   6
BRANCH   1  21
HETATM   21  C           1     -20.994  -5.332  -6.433  0.00  0.00     0.083 C 
BRANCH  21  22
HETATM   22  C           1     -21.903  -4.745  -7.470  0.00  0.00    -0.028 A 
HETATM   23  C           1     -23.232  -4.430  -7.298  0.00  0.00     0.096 A 
HETATM   24  N           1     -23.697  -3.921  -8.482  0.00  0.00    -0.365 N 
HETATM   25  H           1     -24.679  -3.593  -8.649  0.00  0.00     0.165 HD
HETATM   26  C           1     -22.689  -3.900  -9.420  0.00  0.00     0.042 A 
HETATM   27  C           1     -22.702  -3.470 -10.752  0.00  0.00     0.030 A 
HETATM   28  C           1     -21.547  -4.416  -8.807  0.00  0.00    -0.002 A 
HETATM   29  C           1     -21.510  -3.570 -11.476  0.00  0.00     0.002 A 
HETATM   30  C           1     -20.353  -4.081 -10.889  0.00  0.00     0.001 A 
HETATM   31  C           1     -20.358  -4.508  -9.555  0.00  0.00     0.014 A 
ENDBRANCH  21  22
ENDBRANCH   1  21
TORSDOF 8
ENDMDL
MODEL 8
REMARK VINA RESULT:      -8.2      2.052      3.014
REMARK  8 active torsions:
REMARK  status: ('A' for Active; 'I' for Inactive)
REMARK    1  A    between atoms: C_2  and  C_3 
REMARK    2  A    between atoms: C_3  and  C_4 
REMARK    3  A    between atoms: C_4  and  C_30 
REMARK    4  A    between atoms: C_4  and  N_22 
REMARK    5  A    between atoms: N_6  and  C_11 
REMARK    6  A    between atoms: C_11  and  C_23 
REMARK    7  A    between atoms: C_11  and  C_13 
REMARK    8  A    between atoms: C_13  and  C_17 
REMARK       I    between atoms: N_22  and  C_23 
ROOT
HETATM    1  C           1     -20.589  -5.960  -5.885  0.00  0.00     0.278 C 
ENDROOT
BRANCH   1   2
HETATM    2  N           1     -20.841  -6.715  -7.156  0.00  0.00    -0.066 N 
HETATM    3  H           1     -21.104  -6.045  -7.914  0.00  0.00     0.275 HD
HETATM    4  H           1     -19.973  -7.229  -7.433  0.00  0.00     0.275 HD
HETATM    5  H           1     -21.618  -7.397  -7.009  0.00  0.00     0.275 HD
ENDBRANCH   1   2
BRANCH   1   6
HETATM    6  C           1     -21.494  -6.490  -4.799  0.00  0.00     0.249 C 
HETATM    7  O           1     -22.693  -6.437  -4.932  0.00  0.00    -0.271 OA
HETATM    8  N           1     -20.955  -7.032  -3.664  0.00  0.00    -0.344 N 
HETATM    9  H           1     -19.950  -7.077  -3.552  0.00  0.00     0.163 HD
BRANCH   8  10
HETATM   10  C           1     -21.823  -7.541  -2.620  0.00  0.00     0.189 C 
BRANCH  10  11
HETATM   11  C           1     -21.117  -8.667  -1.877  0.00  0.00     0.074 C 
BRANCH  11  12
HETATM   12  C           1     -22.082  -9.784  -1.626  0.00  0.00    -0.056 A 
HETATM   13  C           1     -22.741  -9.874  -0.400  0.00  0.00     0.007 A 
HETATM   14  C           1     -23.640 -10.915  -0.167  0.00  0.00     0.001 A 
HETATM   15  C           1     -23.880 -11.865  -1.160  0.00  0.00     0.000 A 
HETATM   16  C           1     -23.221 -11.774  -2.386  0.00  0.00     0.001 A 
HETATM   17  C           1     -22.322 -10.734  -2.619  0.00  0.00     0.007 A 
ENDBRANCH  11  12
ENDBRANCH  10  11
BRANCH  10  18
HETATM   18  C           1     -22.152  -6.430  -1.653  0.00  0.00     0.197 C 
HETATM   19  O           1     -22.713  -6.693  -0.567  0.00  0.00    -0.646 OA
HETATM   20  O           1     -21.861  -5.247  -1.936  0.00  0.00    -0.646 OA
ENDBRANCH  10  18
ENDBRANCH   8  10
ENDBRANCH   1   6
BRANCH   1  21
HETATM   21  C           1     -20.878  -4.482  -6.109  0.00  0.00     0.083 C 
BRANCH  21  22
HETATM   22  C           1     -21.829  -4.327  -7.255  0.00  0.00    -0.028 A 
HETATM   23  C           1     -23.203  -4.302  -7.171  0.00  0.00     0.096 A 
HETATM   24  N           1     -23.696  -4.146  -8.441  0.00  0.00    -0.365 N 
HETATM   25  H           1     -24.715  -4.092  -8.686  0.00  0.00     0.165 HD
HETATM   26  C           1     -22.663  -4.068  -9.347  0.00  0.00     0.042 A 
HETATM   27  C           1     -22.689  -3.909 -10.737  0.00  0.00     0.030 A 
HETATM   28  C           1     -21.475  -4.180  -8.625  0.00  0.00    -0.002 A 
HETATM   29  C           1     -21.463  -3.864 -11.407  0.00  0.00     0.002 A 
HETATM   30  C           1     -20.260  -3.973 -10.711  0.00  0.00     0.001 A 
HETATM   31  C           1     -20.251  -4.132  -9.320  0.00  0.00     0.014 A 
ENDBRANCH  21  22
ENDBRANCH   1  21
TORSDOF 8
ENDMDL
MODEL 9
REMARK VINA RESULT:      -8.0      2.276      3.707
REMARK  8 active torsions:
REMARK  status: ('A' for Active; 'I' for Inactive)
REMARK    1  A    between atoms: C_2  and  C_3 
REMARK    2  A    between atoms: C_3  and  C_4 
REMARK    3  A    between atoms: C_4  and  C_30 
REMARK    4  A    between atoms: C_4  and  N_22 
REMARK    5  A    between atoms: N_6  and  C_11 
REMARK    6  A    between atoms: C_11  and  C_23 
REMARK    7  A    between atoms: C_11  and  C_13 
REMARK    8  A    between atoms: C_13  and  C_17 
REMARK       I    between atoms: N_22  and  C_23 
ROOT
HETATM    1  C           1     -21.935  -6.386  -5.427  0.00  0.00     0.278 C 
ENDROOT
BRANCH   1   2
HETATM    2  N           1     -23.371  -6.040  -5.167  0.00  0.00    -0.066 N 
HETATM    3  H           1     -23.685  -5.315  -5.852  0.00  0.00     0.275 HD
HETATM    4  H           1     -23.961  -6.897  -5.273  0.00  0.00     0.275 HD
HETATM    5  H           1     -23.469  -5.667  -4.196  0.00  0.00     0.275 HD
ENDBRANCH   1   2
BRANCH   1   6
HETATM    6  C           1     -21.387  -7.165  -4.256  0.00  0.00     0.249 C 
HETATM    7  O           1     -21.421  -6.691  -3.146  0.00  0.00    -0.271 OA
HETATM    8  N           1     -20.850  -8.409  -4.453  0.00  0.00    -0.344 N 
HETATM    9  H           1     -20.821  -8.806  -5.383  0.00  0.00     0.163 HD
BRANCH   8  10
HETATM   10  C           1     -20.323  -9.157  -3.329  0.00  0.00     0.189 C 
BRANCH  10  11
HETATM   11  C           1     -21.014 -10.512  -3.252  0.00  0.00     0.074 C 
BRANCH  11  12
HETATM   12  C           1     -22.024 -10.496  -2.146  0.00  0.00    -0.056 A 
HETATM   13  C           1     -23.070 -11.419  -2.144  0.00  0.00     0.007 A 
HETATM   14  C           1     -24.010 -11.404  -1.114  0.00  0.00     0.001 A 
HETATM   15  C           1     -23.905 -10.467  -0.086  0.00  0.00     0.000 A 
HETATM   16  C           1     -22.858  -9.545  -0.089  0.00  0.00     0.001 A 
HETATM   17  C           1     -21.918  -9.559  -1.119  0.00  0.00     0.007 A 
ENDBRANCH  11  12
ENDBRANCH  10  11
BRANCH  10  18
HETATM   18  C           1     -18.839  -9.361  -3.512  0.00  0.00     0.197 C 
HETATM   19  O           1     -18.119  -9.636  -2.527  0.00  0.00    -0.646 OA
HETATM   20  O           1     -18.328  -9.256  -4.648  0.00  0.00    -0.646 OA
ENDBRANCH  10  18
ENDBRANCH   8  10
ENDBRANCH   1   6
BRANCH   1  21
HETATM   21  C           1     -21.130  -5.106  -5.606  0.00  0.00     0.083 C 
BRANCH  21  22
HETATM   22  C           1     -20.853  -4.891  -7.063  0.00  0.00    -0.028 A 
HETATM   23  C           1     -19.642  -5.068  -7.692  0.00  0.00     0.096 A 
HETATM   24  N           1     -19.812  -4.766  -9.018  0.00  0.00    -0.365 N 
HETATM   25  H           1     -19.058  -4.811  -9.746  0.00  0.00     0.165 HD
HETATM   26  C           1     -21.117  -4.396  -9.259  0.00  0.00     0.042 A 
HETATM   27  C           1     -21.742  -4.008 -10.449  0.00  0.00     0.030 A 
HETATM   28  C           1     -21.794  -4.466  -8.041  0.00  0.00    -0.002 A 
HETATM   29  C           1     -23.101  -3.683 -10.390  0.00  0.00     0.002 A 
HETATM   30  C           1     -23.803  -3.743  -9.188  0.00  0.00     0.001 A 
HETATM   31  C           1     -23.162  -4.133  -8.005  0.00  0.00     0.014 A 
ENDBRANCH  21  22
ENDBRANCH   1  21
TORSDOF 8
ENDMDL
