MODEL 1
REMARK VINA RESULT:      -9.3      0.000      0.000
REMARK  11 active torsions:
REMARK  status: ('A' for Active; 'I' for Inactive)
REMARK    1  A    between atoms: O_2  and  P_32 
REMARK    2  A    between atoms: C_3  and  C_6 
REMARK       I    between atoms: C_4  and  N_5 
REMARK    3  A    between atoms: C_4  and  C_18 
REMARK    4  A    between atoms: N_5  and  C_7 
REMARK    5  A    between atoms: C_6  and  C_7 
REMARK    6  A    between atoms: C_7  and  C_13 
REMARK    7  A    between atoms: C_9  and  O_16 
REMARK    8  A    between atoms: O_16  and  P_32 
REMARK    9  A    between atoms: C_18  and  C_24 
REMARK   10  A    between atoms: C_18  and  N_19 
REMARK   11  A    between atoms: C_23  and  C_24 
ROOT
HETATM    1  C           1     -21.545  -5.473  -6.618  0.00  0.00     0.189 C 
ENDROOT
BRANCH   1   2
HETATM    2  N           1     -22.180  -5.681  -5.331  0.00  0.00    -0.344 N 
HETATM    3  C           1     -21.518  -6.361  -4.344  0.00  0.00     0.249 C 
HETATM    4  O           1     -20.820  -5.760  -3.561  0.00  0.00    -0.271 OA
HETATM    5  H           1     -23.112  -5.325  -5.162  0.00  0.00     0.163 HD
BRANCH   3   6
HETATM    6  C           1     -21.661  -7.859  -4.231  0.00  0.00     0.278 C 
BRANCH   6   7
HETATM    7  C           1     -20.809  -8.366  -3.076  0.00  0.00     0.081 C 
BRANCH   7   8
HETATM    8  C           1     -21.688  -8.670  -1.903  0.00  0.00    -0.056 A 
HETATM    9  C           1     -22.238  -9.944  -1.755  0.00  0.00     0.007 A 
HETATM   10  C           1     -23.057 -10.227  -0.662  0.00  0.00     0.001 A 
HETATM   11  C           1     -23.326  -9.237   0.283  0.00  0.00     0.000 A 
HETATM   12  C           1     -22.777  -7.964   0.136  0.00  0.00     0.001 A 
HETATM   13  C           1     -21.958  -7.680  -0.958  0.00  0.00     0.007 A 
ENDBRANCH   7   8
ENDBRANCH   6   7
BRANCH   6  14
HETATM   14  N           1     -21.203  -8.500  -5.508  0.00  0.00    -0.066 N 
HETATM   15  H           1     -20.537  -9.275  -5.289  0.00  0.00     0.275 HD
HETATM   16  H           1     -22.029  -8.885  -6.020  0.00  0.00     0.275 HD
HETATM   17  H           1     -20.726  -7.787  -6.104  0.00  0.00     0.275 HD
ENDBRANCH   6  14
ENDBRANCH   3   6
ENDBRANCH   1   2
BRANCH   1  18
HETATM   18  C           1     -21.887  -4.082  -7.133  0.00  0.00     0.074 C 
BRANCH  18  19
HETATM   19  C           1     -22.333  -4.172  -8.559  0.00  0.00    -0.056 A 
HETATM   20  C           1     -23.694  -4.171  -8.865  0.00  0.00     0.010 A 
HETATM   21  C           1     -24.110  -4.255 -10.194  0.00  0.00     0.038 A 
HETATM   22  C           1     -23.166  -4.341 -11.217  0.00  0.00     0.081 A 
HETATM   23  C           1     -21.805  -4.343 -10.910  0.00  0.00     0.038 A 
HETATM   24  C           1     -21.389  -4.259  -9.582  0.00  0.00     0.010 A 
BRANCH  22  25
HETATM   25  O           1     -23.570  -4.423 -12.507  0.00  0.00    -0.247 OA
BRANCH  25  26
HETATM   26  P           1     -24.055  -3.067 -13.238  0.00  0.00     0.411 P 
HETATM   27  O           1     -23.869  -3.202 -14.700  0.00  0.00    -0.624 OA
HETATM   28  O           1     -25.485  -2.831 -12.942  0.00  0.00    -0.624 OA
BRANCH  26  29
HETATM   29  O           1     -23.180  -1.823 -12.696  0.00  0.00    -0.300 OA
HETATM   30  H           1     -22.371  -1.866 -13.177  0.00  0.00     0.223 HD
ENDBRANCH  26  29
ENDBRANCH  25  26
ENDBRANCH  22  25
ENDBRANCH  18  19
ENDBRANCH   1  18
BRANCH   1  31
HETATM   31  C           1     -20.050  -5.602  -6.468  0.00  0.00     0.197 C 
HETATM   32  O           1     -19.380  -4.641  -6.027  0.00  0.00    -0.646 OA
HETATM   33  O           1     -19.478  -6.667  -6.784  0.00  0.00    -0.646 OA
ENDBRANCH   1  31
TORSDOF 11
ENDMDL
MODEL 2
REMARK VINA RESULT:      -8.9      1.614      2.662
REMARK  11 active torsions:
REMARK  status: ('A' for Active; 'I' for Inactive)
REMARK    1  A    between atoms: O_2  and  P_32 
REMARK    2  A    between atoms: C_3  and  C_6 
REMARK       I    between atoms: C_4  and  N_5 
REMARK    3  A    between atoms: C_4  and  C_18 
REMARK    4  A    between atoms: N_5  and  C_7 
REMARK    5  A    between atoms: C_6  and  C_7 
REMARK    6  A    between atoms: C_7  and  C_13 
REMARK    7  A    between atoms: C_9  and  O_16 
REMARK    8  A    between atoms: O_16  and  P_32 
REMARK    9  A    between atoms: C_18  and  C_24 
REMARK   10  A    between atoms: C_18  and  N_19 
REMARK   11  A    between atoms: C_23  and  C_24 
ROOT
HETATM    1  C           1     -21.631  -6.896  -5.623  0.00  0.00     0.189 C 
ENDROOT
BRANCH   1   2
HETATM    2  N           1     -22.273  -6.838  -4.324  0.00  0.00    -0.344 N 
HETATM    3  C           1     -21.514  -6.840  -3.185  0.00  0.00     0.249 C 
HETATM    4  O           1     -21.138  -5.796  -2.707  0.00  0.00    -0.271 OA
HETATM    5  H           1     -23.283  -6.796  -4.259  0.00  0.00     0.163 HD
BRANCH   3   6
HETATM    6  C           1     -21.147  -8.146  -2.524  0.00  0.00     0.278 C 
BRANCH   6   7
HETATM    7  C           1     -21.853  -8.252  -1.179  0.00  0.00     0.081 C 
BRANCH   7   8
HETATM    8  C           1     -22.584  -9.557  -1.100  0.00  0.00    -0.056 A 
HETATM    9  C           1     -23.420  -9.823  -0.015  0.00  0.00     0.007 A 
HETATM   10  C           1     -24.100 -11.039   0.058  0.00  0.00     0.001 A 
HETATM   11  C           1     -23.945 -11.987  -0.953  0.00  0.00     0.000 A 
HETATM   12  C           1     -23.110 -11.721  -2.037  0.00  0.00     0.001 A 
HETATM   13  C           1     -22.429 -10.505  -2.111  0.00  0.00     0.007 A 
ENDBRANCH   7   8
ENDBRANCH   6   7
BRANCH   6  14
HETATM   14  N           1     -19.663  -8.199  -2.314  0.00  0.00    -0.066 N 
HETATM   15  H           1     -19.217  -7.372  -2.772  0.00  0.00     0.275 HD
HETATM   16  H           1     -19.455  -8.184  -1.290  0.00  0.00     0.275 HD
HETATM   17  H           1     -19.283  -9.078  -2.732  0.00  0.00     0.275 HD
ENDBRANCH   6  14
ENDBRANCH   3   6
ENDBRANCH   1   2
BRANCH   1  18
HETATM   18  C           1     -20.797  -5.640  -5.833  0.00  0.00     0.074 C 
BRANCH  18  19
HETATM   19  C           1     -21.162  -5.010  -7.141  0.00  0.00    -0.056 A 
HETATM   20  C           1     -20.262  -5.044  -8.206  0.00  0.00     0.010 A 
HETATM   21  C           1     -20.602  -4.457  -9.425  0.00  0.00     0.038 A 
HETATM   22  C           1     -21.841  -3.835  -9.579  0.00  0.00     0.081 A 
HETATM   23  C           1     -22.740  -3.801  -8.513  0.00  0.00     0.038 A 
HETATM   24  C           1     -22.401  -4.388  -7.294  0.00  0.00     0.010 A 
BRANCH  22  25
HETATM   25  O           1     -22.170  -3.264 -10.762  0.00  0.00    -0.247 OA
BRANCH  25  26
HETATM   26  P           1     -23.445  -3.853 -11.559  0.00  0.00     0.411 P 
HETATM   27  O           1     -23.677  -5.257 -11.152  0.00  0.00    -0.624 OA
HETATM   28  O           1     -24.643  -3.043 -11.242  0.00  0.00    -0.624 OA
BRANCH  26  29
HETATM   29  O           1     -23.160  -3.793 -13.148  0.00  0.00    -0.300 OA
HETATM   30  H           1     -23.677  -4.489 -13.515  0.00  0.00     0.223 HD
ENDBRANCH  26  29
ENDBRANCH  25  26
ENDBRANCH  22  25
ENDBRANCH  18  19
ENDBRANCH   1  18
BRANCH   1  31
HETATM   31  C           1     -20.739  -8.111  -5.688  0.00  0.00     0.197 C 
HETATM   32  O           1     -21.241  -9.251  -5.804  0.00  0.00    -0.646 OA
HETATM   33  O           1     -19.498  -7.979  -5.624  0.00  0.00    -0.646 OA
ENDBRANCH   1  31
TORSDOF 11
ENDMDL
MODEL 3
REMARK VINA RESULT:      -8.5      1.546      2.311
REMARK  11 active torsions:
REMARK  status: ('A' for Active; 'I' for Inactive)
REMARK    1  A    between atoms: O_2  and  P_32 
REMARK    2  A    between atoms: C_3  and  C_6 
REMARK       I    between atoms: C_4  and  N_5 
REMARK    3  A    between atoms: C_4  and  C_18 
REMARK    4  A    between atoms: N_5  and  C_7 
REMARK    5  A    between atoms: C_6  and  C_7 
REMARK    6  A    between atoms: C_7  and  C_13 
REMARK    7  A    between atoms: C_9  and  O_16 
REMARK    8  A    between atoms: O_16  and  P_32 
REMARK    9  A    between atoms: C_18  and  C_24 
REMARK   10  A    between atoms: C_18  and  N_19 
REMARK   11  A    between atoms: C_23  and  C_24 
ROOT
HETATM    1  C           1     -21.568  -4.819  -6.955  0.00  0.00     0.189 C 
ENDROOT
BRANCH   1   2
HETATM    2  N           1     -20.540  -5.299  -6.051  0.00  0.00    -0.344 N 
HETATM    3  C           1     -20.176  -6.618  -6.069  0.00  0.00     0.249 C 
HETATM    4  O           1     -19.283  -6.988  -6.794  0.00  0.00    -0.271 OA
HETATM    5  H           1     -20.094  -4.659  -5.407  0.00  0.00     0.163 HD
BRANCH   3   6
HETATM    6  C           1     -20.887  -7.611  -5.182  0.00  0.00     0.278 C 
BRANCH   6   7
HETATM    7  C           1     -20.015  -7.934  -3.977  0.00  0.00     0.081 C 
BRANCH   7   8
HETATM    8  C           1     -20.809  -7.750  -2.722  0.00  0.00    -0.056 A 
HETATM    9  C           1     -21.599  -6.612  -2.556  0.00  0.00     0.007 A 
HETATM   10  C           1     -22.338  -6.441  -1.385  0.00  0.00     0.001 A 
HETATM   11  C           1     -22.288  -7.408  -0.381  0.00  0.00     0.000 A 
HETATM   12  C           1     -21.499  -8.545  -0.546  0.00  0.00     0.001 A 
HETATM   13  C           1     -20.759  -8.717  -1.717  0.00  0.00     0.007 A 
ENDBRANCH   7   8
ENDBRANCH   6   7
BRANCH   6  14
HETATM   14  N           1     -21.155  -8.867  -5.957  0.00  0.00    -0.066 N 
HETATM   15  H           1     -21.445  -8.621  -6.930  0.00  0.00     0.275 HD
HETATM   16  H           1     -20.288  -9.449  -5.988  0.00  0.00     0.275 HD
HETATM   17  H           1     -21.919  -9.407  -5.491  0.00  0.00     0.275 HD
ENDBRANCH   6  14
ENDBRANCH   3   6
ENDBRANCH   1   2
BRANCH   1  18
HETATM   18  C           1     -21.476  -5.573  -8.274  0.00  0.00     0.074 C 
BRANCH  18  19
HETATM   19  C           1     -21.811  -4.650  -9.403  0.00  0.00    -0.056 A 
HETATM   20  C           1     -23.132  -4.250  -9.608  0.00  0.00     0.010 A 
HETATM   21  C           1     -23.444  -3.389 -10.661  0.00  0.00     0.038 A 
HETATM   22  C           1     -22.436  -2.928 -11.509  0.00  0.00     0.081 A 
HETATM   23  C           1     -21.116  -3.330 -11.304  0.00  0.00     0.038 A 
HETATM   24  C           1     -20.803  -4.190 -10.252  0.00  0.00     0.010 A 
BRANCH  22  25
HETATM   25  O           1     -22.740  -2.094 -12.531  0.00  0.00    -0.247 OA
BRANCH  25  26
HETATM   26  P           1     -23.432  -2.725 -13.846  0.00  0.00     0.411 P 
HETATM   27  O           1     -24.253  -3.894 -13.459  0.00  0.00    -0.624 OA
HETATM   28  O           1     -24.294  -1.708 -14.487  0.00  0.00    -0.624 OA
BRANCH  26  29
HETATM   29  O           1     -22.287  -3.191 -14.885  0.00  0.00    -0.300 OA
HETATM   30  H           1     -21.493  -3.215 -14.378  0.00  0.00     0.223 HD
ENDBRANCH  26  29
ENDBRANCH  25  26
ENDBRANCH  22  25
ENDBRANCH  18  19
ENDBRANCH   1  18
BRANCH   1  31
HETATM   31  C           1     -22.926  -5.046  -6.338  0.00  0.00     0.197 C 
HETATM   32  O           1     -23.061  -5.872  -5.410  0.00  0.00    -0.646 OA
HETATM   33  O           1     -23.916  -4.409  -6.756  0.00  0.00    -0.646 OA
ENDBRANCH   1  31
TORSDOF 11
ENDMDL
MODEL 4
REMARK VINA RESULT:      -8.5      4.430      6.161
REMARK  11 active torsions:
REMARK  status: ('A' for Active; 'I' for Inactive)
REMARK    1  A    between atoms: O_2  and  P_32 
REMARK    2  A    between atoms: C_3  and  C_6 
REMARK       I    between atoms: C_4  and  N_5 
REMARK    3  A    between atoms: C_4  and  C_18 
REMARK    4  A    between atoms: N_5  and  C_7 
REMARK    5  A    between atoms: C_6  and  C_7 
REMARK    6  A    between atoms: C_7  and  C_13 
REMARK    7  A    between atoms: C_9  and  O_16 
REMARK    8  A    between atoms: O_16  and  P_32 
REMARK    9  A    between atoms: C_18  and  C_24 
REMARK   10  A    between atoms: C_18  and  N_19 
REMARK   11  A    between atoms: C_23  and  C_24 
ROOT
HETATM    1  C           1     -19.033 -10.399  -2.850  0.00  0.00     0.189 C 
ENDROOT
BRANCH   1   2
HETATM    2  N           1     -19.453 -11.594  -2.144  0.00  0.00    -0.344 N 
HETATM    3  C           1     -20.589 -12.253  -2.530  0.00  0.00     0.249 C 
HETATM    4  O           1     -20.526 -13.131  -3.358  0.00  0.00    -0.271 OA
HETATM    5  H           1     -18.907 -11.941  -1.366  0.00  0.00     0.163 HD
BRANCH   3   6
HETATM    6  C           1     -21.921 -11.884  -1.923  0.00  0.00     0.278 C 
BRANCH   6   7
HETATM    7  C           1     -21.808 -11.896  -0.405  0.00  0.00     0.081 C 
BRANCH   7   8
HETATM    8  C           1     -21.922 -10.496   0.116  0.00  0.00    -0.056 A 
HETATM    9  C           1     -23.004  -9.699  -0.257  0.00  0.00     0.007 A 
HETATM   10  C           1     -23.110  -8.396   0.228  0.00  0.00     0.001 A 
HETATM   11  C           1     -22.133  -7.890   1.086  0.00  0.00     0.000 A 
HETATM   12  C           1     -21.052  -8.686   1.459  0.00  0.00     0.001 A 
HETATM   13  C           1     -20.946  -9.990   0.974  0.00  0.00     0.007 A 
ENDBRANCH   7   8
ENDBRANCH   6   7
BRANCH   6  14
HETATM   14  N           1     -22.958 -12.878  -2.355  0.00  0.00    -0.066 N 
HETATM   15  H           1     -22.492 -13.775  -2.618  0.00  0.00     0.275 HD
HETATM   16  H           1     -23.625 -13.050  -1.568  0.00  0.00     0.275 HD
HETATM   17  H           1     -23.481 -12.501  -3.177  0.00  0.00     0.275 HD
ENDBRANCH   6  14
ENDBRANCH   3   6
ENDBRANCH   1   2
BRANCH   1  18
HETATM   18  C           1     -19.520  -9.168  -2.098  0.00  0.00     0.074 C 
BRANCH  18  19
HETATM   19  C           1     -20.302  -8.292  -3.026  0.00  0.00    -0.056 A 
HETATM   20  C           1     -20.981  -7.180  -2.527  0.00  0.00     0.010 A 
HETATM   21  C           1     -21.710  -6.363  -3.392  0.00  0.00     0.038 A 
HETATM   22  C           1     -21.760  -6.657  -4.754  0.00  0.00     0.081 A 
HETATM   23  C           1     -21.081  -7.770  -5.252  0.00  0.00     0.038 A 
HETATM   24  C           1     -20.353  -8.587  -4.388  0.00  0.00     0.010 A 
BRANCH  22  25
HETATM   25  O           1     -22.468  -5.864  -5.594  0.00  0.00    -0.247 OA
BRANCH  25  26
HETATM   26  P           1     -21.652  -4.985  -6.675  0.00  0.00     0.411 P 
HETATM   27  O           1     -20.489  -4.349  -6.017  0.00  0.00    -0.624 OA
HETATM   28  O           1     -21.181  -5.861  -7.770  0.00  0.00    -0.624 OA
BRANCH  26  29
HETATM   29  O           1     -22.621  -3.842  -7.278  0.00  0.00    -0.300 OA
HETATM   30  H           1     -23.175  -4.292  -7.893  0.00  0.00     0.223 HD
ENDBRANCH  26  29
ENDBRANCH  25  26
ENDBRANCH  22  25
ENDBRANCH  18  19
ENDBRANCH   1  18
BRANCH   1  31
HETATM   31  C           1     -17.527 -10.372  -2.939  0.00  0.00     0.197 C 
HETATM   32  O           1     -16.912  -9.291  -2.806  0.00  0.00    -0.646 OA
HETATM   33  O           1     -16.894 -11.429  -3.147  0.00  0.00    -0.646 OA
ENDBRANCH   1  31
TORSDOF 11
ENDMDL
MODEL 5
REMARK VINA RESULT:      -8.0     11.623     14.014
REMARK  11 active torsions:
REMARK  status: ('A' for Active; 'I' for Inactive)
REMARK    1  A    between atoms: O_2  and  P_32 
REMARK    2  A    between atoms: C_3  and  C_6 
REMARK       I    between atoms: C_4  and  N_5 
REMARK    3  A    between atoms: C_4  and  C_18 
REMARK    4  A    between atoms: N_5  and  C_7 
REMARK    5  A    between atoms: C_6  and  C_7 
REMARK    6  A    between atoms: C_7  and  C_13 
REMARK    7  A    between atoms: C_9  and  O_16 
REMARK    8  A    between atoms: O_16  and  P_32 
REMARK    9  A    between atoms: C_18  and  C_24 
REMARK   10  A    between atoms: C_18  and  N_19 
REMARK   11  A    between atoms: C_23  and  C_24 
ROOT
HETATM    1  C           1     -32.428  -4.725 -16.532  0.00  0.00     0.189 C 
ENDROOT
BRANCH   1   2
HETATM    2  N           1     -33.863  -4.854 -16.368  0.00  0.00    -0.344 N 
HETATM    3  C           1     -34.526  -4.044 -15.486  0.00  0.00     0.249 C 
HETATM    4  O           1     -34.970  -2.983 -15.858  0.00  0.00    -0.271 OA
HETATM    5  H           1     -34.374  -5.544 -16.904  0.00  0.00     0.163 HD
BRANCH   3   6
HETATM    6  C           1     -34.705  -4.475 -14.051  0.00  0.00     0.278 C 
BRANCH   6   7
HETATM    7  C           1     -33.511  -4.011 -13.228  0.00  0.00     0.081 C 
BRANCH   7   8
HETATM    8  C           1     -33.973  -3.059 -12.169  0.00  0.00    -0.056 A 
HETATM    9  C           1     -33.338  -3.035 -10.927  0.00  0.00     0.007 A 
HETATM   10  C           1     -33.770  -2.148  -9.941  0.00  0.00     0.001 A 
HETATM   11  C           1     -34.836  -1.285 -10.196  0.00  0.00     0.000 A 
HETATM   12  C           1     -35.470  -1.309 -11.437  0.00  0.00     0.001 A 
HETATM   13  C           1     -35.039  -2.196 -12.424  0.00  0.00     0.007 A 
ENDBRANCH   7   8
ENDBRANCH   6   7
BRANCH   6  14
HETATM   14  N           1     -34.804  -5.970 -13.988  0.00  0.00    -0.066 N 
HETATM   15  H           1     -35.676  -6.240 -13.479  0.00  0.00     0.275 HD
HETATM   16  H           1     -34.833  -6.359 -14.958  0.00  0.00     0.275 HD
HETATM   17  H           1     -33.972  -6.354 -13.486  0.00  0.00     0.275 HD
ENDBRANCH   6  14
ENDBRANCH   3   6
ENDBRANCH   1   2
BRANCH   1  18
HETATM   18  C           1     -31.894  -5.929 -17.296  0.00  0.00     0.074 C 
BRANCH  18  19
HETATM   19  C           1     -30.555  -6.314 -16.750  0.00  0.00    -0.056 A 
HETATM   20  C           1     -29.826  -7.340 -17.351  0.00  0.00     0.010 A 
HETATM   21  C           1     -28.578  -7.700 -16.842  0.00  0.00     0.038 A 
HETATM   22  C           1     -28.058  -7.034 -15.733  0.00  0.00     0.081 A 
HETATM   23  C           1     -28.787  -6.008 -15.131  0.00  0.00     0.038 A 
HETATM   24  C           1     -30.035  -5.648 -15.639  0.00  0.00     0.010 A 
BRANCH  22  25
HETATM   25  O           1     -26.846  -7.383 -15.238  0.00  0.00    -0.247 OA
BRANCH  25  26
HETATM   26  P           1     -25.534  -6.718 -15.905  0.00  0.00     0.411 P 
HETATM   27  O           1     -24.556  -7.779 -16.233  0.00  0.00    -0.624 OA
HETATM   28  O           1     -25.918  -6.002 -17.142  0.00  0.00    -0.624 OA
BRANCH  26  29
HETATM   29  O           1     -24.872  -5.677 -14.863  0.00  0.00    -0.300 OA
HETATM   30  H           1     -24.492  -5.003 -15.400  0.00  0.00     0.223 HD
ENDBRANCH  26  29
ENDBRANCH  25  26
ENDBRANCH  22  25
ENDBRANCH  18  19
ENDBRANCH   1  18
BRANCH   1  31
HETATM   31  C           1     -32.122  -3.464 -17.301  0.00  0.00     0.197 C 
HETATM   32  O           1     -30.952  -3.023 -17.340  0.00  0.00    -0.646 OA
HETATM   33  O           1     -33.037  -2.858 -17.899  0.00  0.00    -0.646 OA
ENDBRANCH   1  31
TORSDOF 11
ENDMDL
MODEL 6
REMARK VINA RESULT:      -7.9      4.870      9.148
REMARK  11 active torsions:
REMARK  status: ('A' for Active; 'I' for Inactive)
REMARK    1  A    between atoms: O_2  and  P_32 
REMARK    2  A    between atoms: C_3  and  C_6 
REMARK       I    between atoms: C_4  and  N_5 
REMARK    3  A    between atoms: C_4  and  C_18 
REMARK    4  A    between atoms: N_5  and  C_7 
REMARK    5  A    between atoms: C_6  and  C_7 
REMARK    6  A    between atoms: C_7  and  C_13 
REMARK    7  A    between atoms: C_9  and  O_16 
REMARK    8  A    between atoms: O_16  and  P_32 
REMARK    9  A    between atoms: C_18  and  C_24 
REMARK   10  A    between atoms: C_18  and  N_19 
REMARK   11  A    between atoms: C_23  and  C_24 
ROOT
HETATM    1  C           1     -20.745  -8.448  -2.800  0.00  0.00     0.189 C 
ENDROOT
BRANCH   1   2
HETATM    2  N           1     -20.807  -7.014  -3.011  0.00  0.00    -0.344 N 
HETATM    3  C           1     -21.316  -6.516  -4.179  0.00  0.00     0.249 C 
HETATM    4  O           1     -22.497  -6.274  -4.269  0.00  0.00    -0.271 OA
HETATM    5  H           1     -20.474  -6.382  -2.294  0.00  0.00     0.163 HD
BRANCH   3   6
HETATM    6  C           1     -20.404  -6.267  -5.356  0.00  0.00     0.278 C 
BRANCH   6   7
HETATM    7  C           1     -20.331  -4.773  -5.636  0.00  0.00     0.081 C 
BRANCH   7   8
HETATM    8  C           1     -20.747  -4.508  -7.050  0.00  0.00    -0.056 A 
HETATM    9  C           1     -19.803  -4.561  -8.076  0.00  0.00     0.007 A 
HETATM   10  C           1     -20.191  -4.315  -9.393  0.00  0.00     0.001 A 
HETATM   11  C           1     -21.523  -4.015  -9.684  0.00  0.00     0.000 A 
HETATM   12  C           1     -22.466  -3.963  -8.658  0.00  0.00     0.001 A 
HETATM   13  C           1     -22.078  -4.209  -7.340  0.00  0.00     0.007 A 
ENDBRANCH   7   8
ENDBRANCH   6   7
BRANCH   6  14
HETATM   14  N           1     -20.944  -6.976  -6.563  0.00  0.00    -0.066 N 
HETATM   15  H           1     -20.197  -7.579  -6.976  0.00  0.00     0.275 HD
HETATM   16  H           1     -21.757  -7.571  -6.283  0.00  0.00     0.275 HD
HETATM   17  H           1     -21.256  -6.272  -7.269  0.00  0.00     0.275 HD
ENDBRANCH   6  14
ENDBRANCH   3   6
ENDBRANCH   1   2
BRANCH   1  18
HETATM   18  C           1     -19.413  -8.809  -2.157  0.00  0.00     0.074 C 
BRANCH  18  19
HETATM   19  C           1     -18.453  -9.257  -3.214  0.00  0.00    -0.056 A 
HETATM   20  C           1     -17.094  -9.373  -2.918  0.00  0.00     0.010 A 
HETATM   21  C           1     -16.199  -9.790  -3.903  0.00  0.00     0.038 A 
HETATM   22  C           1     -16.661 -10.092  -5.184  0.00  0.00     0.081 A 
HETATM   23  C           1     -18.019  -9.975  -5.480  0.00  0.00     0.038 A 
HETATM   24  C           1     -18.915  -9.558  -4.496  0.00  0.00     0.010 A 
BRANCH  22  25
HETATM   25  O           1     -15.792 -10.497  -6.141  0.00  0.00    -0.247 OA
BRANCH  25  26
HETATM   26  P           1     -15.563 -12.084  -6.336  0.00  0.00     0.411 P 
HETATM   27  O           1     -14.156 -12.336  -6.719  0.00  0.00    -0.624 OA
HETATM   28  O           1     -15.863 -12.785  -5.068  0.00  0.00    -0.624 OA
BRANCH  26  29
HETATM   29  O           1     -16.544 -12.629  -7.497  0.00  0.00    -0.300 OA
HETATM   30  H           1     -16.149 -12.345  -8.303  0.00  0.00     0.223 HD
ENDBRANCH  26  29
ENDBRANCH  25  26
ENDBRANCH  22  25
ENDBRANCH  18  19
ENDBRANCH   1  18
BRANCH   1  31
HETATM   31  C           1     -21.873  -8.872  -1.893  0.00  0.00     0.197 C 
HETATM   32  O           1     -22.331 -10.033  -1.964  0.00  0.00    -0.646 OA
HETATM   33  O           1     -22.352  -8.062  -1.070  0.00  0.00    -0.646 OA
ENDBRANCH   1  31
TORSDOF 11
ENDMDL
MODEL 7
REMARK VINA RESULT:      -7.8      5.097      7.057
REMARK  11 active torsions:
REMARK  status: ('A' for Active; 'I' for Inactive)
REMARK    1  A    between atoms: O_2  and  P_32 
REMARK    2  A    between atoms: C_3  and  C_6 
REMARK       I    between atoms: C_4  and  N_5 
REMARK    3  A    between atoms: C_4  and  C_18 
REMARK    4  A    between atoms: N_5  and  C_7 
REMARK    5  A    between atoms: C_6  and  C_7 
REMARK    6  A    between atoms: C_7  and  C_13 
REMARK    7  A    between atoms: C_9  and  O_16 
REMARK    8  A    between atoms: O_16  and  P_32 
REMARK    9  A    between atoms: C_18  and  C_24 
REMARK   10  A    between atoms: C_18  and  N_19 
REMARK   11  A    between atoms: C_23  and  C_24 
ROOT
HETATM    1  C           1     -18.285 -11.360  -2.507  0.00  0.00     0.189 C 
ENDROOT
BRANCH   1   2
HETATM    2  N           1     -18.221 -12.024  -1.219  0.00  0.00    -0.344 N 
HETATM    3  C           1     -19.187 -12.926  -0.866  0.00  0.00     0.249 C 
HETATM    4  O           1     -19.048 -14.096  -1.135  0.00  0.00    -0.271 OA
HETATM    5  H           1     -17.462 -11.819  -0.582  0.00  0.00     0.163 HD
BRANCH   3   6
HETATM    6  C           1     -20.426 -12.461  -0.140  0.00  0.00     0.278 C 
BRANCH   6   7
HETATM    7  C           1     -20.079 -11.276   0.751  0.00  0.00     0.081 C 
BRANCH   7   8
HETATM    8  C           1     -21.139 -10.227   0.621  0.00  0.00    -0.056 A 
HETATM    9  C           1     -22.318 -10.507  -0.070  0.00  0.00     0.007 A 
HETATM   10  C           1     -23.305  -9.529  -0.190  0.00  0.00     0.001 A 
HETATM   11  C           1     -23.113  -8.270   0.380  0.00  0.00     0.000 A 
HETATM   12  C           1     -21.935  -7.990   1.070  0.00  0.00     0.001 A 
HETATM   13  C           1     -20.947  -8.968   1.191  0.00  0.00     0.007 A 
ENDBRANCH   7   8
ENDBRANCH   6   7
BRANCH   6  14
HETATM   14  N           1     -20.958 -13.582   0.704  0.00  0.00    -0.066 N 
HETATM   15  H           1     -21.672 -14.118   0.161  0.00  0.00     0.275 HD
HETATM   16  H           1     -20.174 -14.219   0.973  0.00  0.00     0.275 HD
HETATM   17  H           1     -21.398 -13.189   1.567  0.00  0.00     0.275 HD
ENDBRANCH   6  14
ENDBRANCH   3   6
ENDBRANCH   1   2
BRANCH   1  18
HETATM   18  C           1     -18.061  -9.866  -2.320  0.00  0.00     0.074 C 
BRANCH  18  19
HETATM   19  C           1     -19.108  -9.105  -3.071  0.00  0.00    -0.056 A 
HETATM   20  C           1     -20.115  -8.433  -2.377  0.00  0.00     0.010 A 
HETATM   21  C           1     -21.091  -7.724  -3.077  0.00  0.00     0.038 A 
HETATM   22  C           1     -21.061  -7.686  -4.471  0.00  0.00     0.081 A 
HETATM   23  C           1     -20.055  -8.359  -5.165  0.00  0.00     0.038 A 
HETATM   24  C           1     -19.079  -9.068  -4.465  0.00  0.00     0.010 A 
BRANCH  22  25
HETATM   25  O           1     -22.009  -6.998  -5.151  0.00  0.00    -0.247 OA
BRANCH  25  26
HETATM   26  P           1     -21.541  -5.726  -6.028  0.00  0.00     0.411 P 
HETATM   27  O           1     -22.716  -4.882  -6.341  0.00  0.00    -0.624 OA
HETATM   28  O           1     -20.555  -4.933  -5.260  0.00  0.00    -0.624 OA
BRANCH  26  29
HETATM   29  O           1     -20.865  -6.239  -7.402  0.00  0.00    -0.300 OA
HETATM   30  H           1     -20.580  -7.118  -7.219  0.00  0.00     0.223 HD
ENDBRANCH  26  29
ENDBRANCH  25  26
ENDBRANCH  22  25
ENDBRANCH  18  19
ENDBRANCH   1  18
BRANCH   1  31
HETATM   31  C           1     -17.217 -11.919  -3.415  0.00  0.00     0.197 C 
HETATM   32  O           1     -17.511 -12.787  -4.266  0.00  0.00    -0.646 OA
HETATM   33  O           1     -16.038 -11.517  -3.315  0.00  0.00    -0.646 OA
ENDBRANCH   1  31
TORSDOF 11
ENDMDL
MODEL 8
REMARK VINA RESULT:      -7.8      4.573      8.513
REMARK  11 active torsions:
REMARK  status: ('A' for Active; 'I' for Inactive)
REMARK    1  A    between atoms: O_2  and  P_32 
REMARK    2  A    between atoms: C_3  and  C_6 
REMARK       I    between atoms: C_4  and  N_5 
REMARK    3  A    between atoms: C_4  and  C_18 
REMARK    4  A    between atoms: N_5  and  C_7 
REMARK    5  A    between atoms: C_6  and  C_7 
REMARK    6  A    between atoms: C_7  and  C_13 
REMARK    7  A    between atoms: C_9  and  O_16 
REMARK    8  A    between atoms: O_16  and  P_32 
REMARK    9  A    between atoms: C_18  and  C_24 
REMARK   10  A    between atoms: C_18  and  N_19 
REMARK   11  A    between atoms: C_23  and  C_24 
ROOT
HETATM    1  C           1     -21.363  -7.653  -2.357  0.00  0.00     0.189 C 
ENDROOT
BRANCH   1   2
HETATM    2  N           1     -21.434  -6.344  -2.978  0.00  0.00    -0.344 N 
HETATM    3  C           1     -21.690  -6.236  -4.318  0.00  0.00     0.249 C 
HETATM    4  O           1     -22.829  -6.148  -4.711  0.00  0.00    -0.271 OA
HETATM    5  H           1     -21.295  -5.511  -2.420  0.00  0.00     0.163 HD
BRANCH   3   6
HETATM    6  C           1     -20.549  -6.224  -5.307  0.00  0.00     0.278 C 
BRANCH   6   7
HETATM    7  C           1     -20.221  -4.788  -5.688  0.00  0.00     0.081 C 
BRANCH   7   8
HETATM    8  C           1     -20.660  -4.532  -7.096  0.00  0.00    -0.056 A 
HETATM    9  C           1     -19.775  -4.742  -8.153  0.00  0.00     0.007 A 
HETATM   10  C           1     -20.185  -4.503  -9.465  0.00  0.00     0.001 A 
HETATM   11  C           1     -21.481  -4.055  -9.720  0.00  0.00     0.000 A 
HETATM   12  C           1     -22.367  -3.845  -8.664  0.00  0.00     0.001 A 
HETATM   13  C           1     -21.957  -4.083  -7.351  0.00  0.00     0.007 A 
ENDBRANCH   7   8
ENDBRANCH   6   7
BRANCH   6  14
HETATM   14  N           1     -20.946  -6.990  -6.534  0.00  0.00    -0.066 N 
HETATM   15  H           1     -21.514  -7.822  -6.257  0.00  0.00     0.275 HD
HETATM   16  H           1     -21.513  -6.374  -7.161  0.00  0.00     0.275 HD
HETATM   17  H           1     -20.088  -7.304  -7.041  0.00  0.00     0.275 HD
ENDBRANCH   6  14
ENDBRANCH   3   6
ENDBRANCH   1   2
BRANCH   1  18
HETATM   18  C           1     -19.924  -8.148  -2.381  0.00  0.00     0.074 C 
BRANCH  18  19
HETATM   19  C           1     -19.839  -9.400  -3.197  0.00  0.00    -0.056 A 
HETATM   20  C           1     -20.973  -9.885  -3.849  0.00  0.00     0.010 A 
HETATM   21  C           1     -20.893 -11.053  -4.609  0.00  0.00     0.038 A 
HETATM   22  C           1     -19.682 -11.735  -4.717  0.00  0.00     0.081 A 
HETATM   23  C           1     -18.549 -11.249  -4.064  0.00  0.00     0.038 A 
HETATM   24  C           1     -18.627 -10.082  -3.304  0.00  0.00     0.010 A 
BRANCH  22  25
HETATM   25  O           1     -19.605 -12.868  -5.454  0.00  0.00    -0.247 OA
BRANCH  25  26
HETATM   26  P           1     -19.565 -12.726  -7.062  0.00  0.00     0.411 P 
HETATM   27  O           1     -18.766 -13.832  -7.636  0.00  0.00    -0.624 OA
HETATM   28  O           1     -20.943 -12.783  -7.598  0.00  0.00    -0.624 OA
BRANCH  26  29
HETATM   29  O           1     -18.892 -11.313  -7.460  0.00  0.00    -0.300 OA
HETATM   30  H           1     -18.227 -11.528  -8.090  0.00  0.00     0.223 HD
ENDBRANCH  26  29
ENDBRANCH  25  26
ENDBRANCH  22  25
ENDBRANCH  18  19
ENDBRANCH   1  18
BRANCH   1  31
HETATM   31  C           1     -21.840  -7.558  -0.929  0.00  0.00     0.197 C 
HETATM   32  O           1     -22.853  -6.879  -0.651  0.00  0.00    -0.646 OA
HETATM   33  O           1     -21.221  -8.156  -0.022  0.00  0.00    -0.646 OA
ENDBRANCH   1  31
TORSDOF 11
ENDMDL
MODEL 9
REMARK VINA RESULT:      -7.8     11.186     13.461
REMARK  11 active torsions:
REMARK  status: ('A' for Active; 'I' for Inactive)
REMARK    1  A    between atoms: O_2  and  P_32 
REMARK    2  A    between atoms: C_3  and  C_6 
REMARK       I    between atoms: C_4  and  N_5 
REMARK    3  A    between atoms: C_4  and  C_18 
REMARK    4  A    between atoms: N_5  and  C_7 
REMARK    5  A    between atoms: C_6  and  C_7 
REMARK    6  A    between atoms: C_7  and  C_13 
REMARK    7  A    between atoms: C_9  and  O_16 
REMARK    8  A    between atoms: O_16  and  P_32 
REMARK    9  A    between atoms: C_18  and  C_24 
REMARK   10  A    between atoms: C_18  and  N_19 
REMARK   11  A    between atoms: C_23  and  C_24 
ROOT
HETATM    1  C           1     -32.381  -4.505 -16.435  0.00  0.00     0.189 C 
ENDROOT
BRANCH   1   2
HETATM    2  N           1     -33.678  -4.715 -15.821  0.00  0.00    -0.344 N 
HETATM    3  C           1     -33.964  -4.137 -14.613  0.00  0.00     0.249 C 
HETATM    4  O           1     -34.462  -3.036 -14.573  0.00  0.00    -0.271 OA
HETATM    5  H           1     -34.371  -5.289 -16.284  0.00  0.00     0.163 HD
BRANCH   3   6
HETATM    6  C           1     -33.659  -4.873 -13.332  0.00  0.00     0.278 C 
BRANCH   6   7
HETATM    7  C           1     -34.823  -4.714 -12.364  0.00  0.00     0.081 C 
BRANCH   7   8
HETATM    8  C           1     -34.767  -5.796 -11.331  0.00  0.00    -0.056 A 
HETATM    9  C           1     -34.562  -5.471  -9.990  0.00  0.00     0.007 A 
HETATM   10  C           1     -34.509  -6.480  -9.029  0.00  0.00     0.001 A 
HETATM   11  C           1     -34.662  -7.814  -9.408  0.00  0.00     0.000 A 
HETATM   12  C           1     -34.867  -8.139 -10.748  0.00  0.00     0.001 A 
HETATM   13  C           1     -34.920  -7.130 -11.710  0.00  0.00     0.007 A 
ENDBRANCH   7   8
ENDBRANCH   6   7
BRANCH   6  14
HETATM   14  N           1     -32.415  -4.305 -12.715  0.00  0.00    -0.066 N 
HETATM   15  H           1     -31.589  -4.555 -13.304  0.00  0.00     0.275 HD
HETATM   16  H           1     -32.499  -3.265 -12.655  0.00  0.00     0.275 HD
HETATM   17  H           1     -32.292  -4.699 -11.755  0.00  0.00     0.275 HD
ENDBRANCH   6  14
ENDBRANCH   3   6
ENDBRANCH   1   2
BRANCH   1  18
HETATM   18  C           1     -31.967  -5.762 -17.188  0.00  0.00     0.074 C 
BRANCH  18  19
HETATM   19  C           1     -30.616  -6.204 -16.718  0.00  0.00    -0.056 A 
HETATM   20  C           1     -29.957  -7.244 -17.373  0.00  0.00     0.010 A 
HETATM   21  C           1     -28.698  -7.656 -16.935  0.00  0.00     0.038 A 
HETATM   22  C           1     -28.098  -7.030 -15.843  0.00  0.00     0.081 A 
HETATM   23  C           1     -28.759  -5.990 -15.188  0.00  0.00     0.038 A 
HETATM   24  C           1     -30.017  -5.577 -15.625  0.00  0.00     0.010 A 
BRANCH  22  25
HETATM   25  O           1     -26.877  -7.430 -15.418  0.00  0.00    -0.247 OA
BRANCH  25  26
HETATM   26  P           1     -25.578  -6.720 -16.063  0.00  0.00     0.411 P 
HETATM   27  O           1     -25.889  -6.282 -17.442  0.00  0.00    -0.624 OA
HETATM   28  O           1     -25.200  -5.545 -15.246  0.00  0.00    -0.624 OA
BRANCH  26  29
HETATM   29  O           1     -24.351  -7.770 -16.095  0.00  0.00    -0.300 OA
HETATM   30  H           1     -23.643  -7.305 -16.504  0.00  0.00     0.223 HD
ENDBRANCH  26  29
ENDBRANCH  25  26
ENDBRANCH  22  25
ENDBRANCH  18  19
ENDBRANCH   1  18
BRANCH   1  31
HETATM   31  C           1     -32.463  -3.346 -17.398  0.00  0.00     0.197 C 
HETATM   32  O           1     -33.558  -2.775 -17.598  0.00  0.00    -0.646 OA
HETATM   33  O           1     -31.437  -2.956 -17.996  0.00  0.00    -0.646 OA
ENDBRANCH   1  31
TORSDOF 11
ENDMDL
