MODEL 1
REMARK VINA RESULT:      -6.1      0.000      0.000
REMARK  7 active torsions:
REMARK  status: ('A' for Active; 'I' for Inactive)
REMARK    1  A    between atoms: C_1  and  C_2 
REMARK    2  A    between atoms: C_1  and  N_5 
REMARK       I    between atoms: N_5  and  C_6 
REMARK    3  A    between atoms: C_6  and  C_7 
REMARK    4  A    between atoms: C_7  and  C_15 
REMARK    5  A    between atoms: C_7  and  N_13 
REMARK    6  A    between atoms: C_8  and  C_15 
REMARK    7  A    between atoms: C_8  and  C_10 
ROOT
HETATM    1  C           1     -22.785  -4.548  -9.233  0.00  0.00     0.275 C 
ENDROOT
BRANCH   1   2
HETATM    2  C           1     -21.533  -4.897  -8.466  0.00  0.00     0.249 C 
HETATM    3  N           1     -21.626  -5.424  -7.207  0.00  0.00    -0.345 N 
HETATM    4  H           1     -22.535  -5.580  -6.789  0.00  0.00     0.163 HD
HETATM    5  O           1     -20.448  -4.711  -8.965  0.00  0.00    -0.271 OA
BRANCH   3   6
HETATM    6  C           1     -20.423  -5.759  -6.470  0.00  0.00     0.181 C 
HETATM    7  C           1     -20.123  -4.658  -5.461  0.00  0.00     0.043 C 
BRANCH   6   8
HETATM    8  C           1     -20.627  -7.066  -5.744  0.00  0.00     0.196 C 
HETATM    9  O           1     -19.742  -7.948  -5.784  0.00  0.00    -0.646 OA
HETATM   10  O           1     -21.681  -7.267  -5.102  0.00  0.00    -0.646 OA
ENDBRANCH   6   8
ENDBRANCH   3   6
ENDBRANCH   1   2
BRANCH   1  11
HETATM   11  C           1     -22.446  -3.551 -10.334  0.00  0.00     0.053 C 
BRANCH  11  12
HETATM   12  C           1     -23.068  -4.010 -11.645  0.00  0.00     0.115 C 
BRANCH  12  13
HETATM   13  C           1     -24.364  -3.269 -11.875  0.00  0.00     0.172 C 
HETATM   14  O           1     -24.624  -2.802 -13.004  0.00  0.00    -0.648 OA
HETATM   15  O           1     -25.175  -3.124 -10.935  0.00  0.00    -0.648 OA
ENDBRANCH  12  13
ENDBRANCH  11  12
ENDBRANCH   1  11
BRANCH   1  16
HETATM   16  N           1     -23.788  -3.939  -8.300  0.00  0.00    -0.066 N 
HETATM   17  H           1     -24.529  -3.452  -8.853  0.00  0.00     0.275 HD
HETATM   18  H           1     -24.226  -4.690  -7.720  0.00  0.00     0.275 HD
HETATM   19  H           1     -23.311  -3.250  -7.675  0.00  0.00     0.275 HD
ENDBRANCH   1  16
TORSDOF 7
ENDMDL
MODEL 2
REMARK VINA RESULT:      -6.0      2.495      3.331
REMARK  7 active torsions:
REMARK  status: ('A' for Active; 'I' for Inactive)
REMARK    1  A    between atoms: C_1  and  C_2 
REMARK    2  A    between atoms: C_1  and  N_5 
REMARK       I    between atoms: N_5  and  C_6 
REMARK    3  A    between atoms: C_6  and  C_7 
REMARK    4  A    between atoms: C_7  and  C_15 
REMARK    5  A    between atoms: C_7  and  N_13 
REMARK    6  A    between atoms: C_8  and  C_15 
REMARK    7  A    between atoms: C_8  and  C_10 
ROOT
HETATM    1  C           1     -21.988  -3.175 -11.625  0.00  0.00     0.275 C 
ENDROOT
BRANCH   1   2
HETATM    2  C           1     -22.180  -4.078 -10.430  0.00  0.00     0.249 C 
HETATM    3  N           1     -21.216  -4.146  -9.462  0.00  0.00    -0.345 N 
HETATM    4  H           1     -20.374  -3.591  -9.546  0.00  0.00     0.163 HD
HETATM    5  O           1     -23.185  -4.740 -10.330  0.00  0.00    -0.271 OA
BRANCH   3   6
HETATM    6  C           1     -21.400  -5.014  -8.315  0.00  0.00     0.181 C 
HETATM    7  C           1     -20.050  -5.561  -7.870  0.00  0.00     0.043 C 
BRANCH   6   8
HETATM    8  C           1     -22.022  -4.229  -7.186  0.00  0.00     0.196 C 
HETATM    9  O           1     -23.076  -4.633  -6.649  0.00  0.00    -0.646 OA
HETATM   10  O           1     -21.482  -3.173  -6.788  0.00  0.00    -0.646 OA
ENDBRANCH   6   8
ENDBRANCH   3   6
ENDBRANCH   1   2
BRANCH   1  11
HETATM   11  C           1     -23.339  -2.639 -12.080  0.00  0.00     0.053 C 
BRANCH  11  12
HETATM   12  C           1     -23.738  -3.310 -13.387  0.00  0.00     0.115 C 
BRANCH  12  13
HETATM   13  C           1     -23.488  -2.362 -14.536  0.00  0.00     0.172 C 
HETATM   14  O           1     -22.552  -2.582 -15.334  0.00  0.00    -0.648 OA
HETATM   15  O           1     -24.216  -1.358 -14.688  0.00  0.00    -0.648 OA
ENDBRANCH  12  13
ENDBRANCH  11  12
ENDBRANCH   1  11
BRANCH   1  16
HETATM   16  N           1     -21.358  -3.953 -12.741  0.00  0.00    -0.066 N 
HETATM   17  H           1     -21.359  -3.375 -13.613  0.00  0.00     0.275 HD
HETATM   18  H           1     -20.373  -4.193 -12.486  0.00  0.00     0.275 HD
HETATM   19  H           1     -21.901  -4.831 -12.905  0.00  0.00     0.275 HD
ENDBRANCH   1  16
TORSDOF 7
ENDMDL
MODEL 3
REMARK VINA RESULT:      -6.0      1.789      2.038
REMARK  7 active torsions:
REMARK  status: ('A' for Active; 'I' for Inactive)
REMARK    1  A    between atoms: C_1  and  C_2 
REMARK    2  A    between atoms: C_1  and  N_5 
REMARK       I    between atoms: N_5  and  C_6 
REMARK    3  A    between atoms: C_6  and  C_7 
REMARK    4  A    between atoms: C_7  and  C_15 
REMARK    5  A    between atoms: C_7  and  N_13 
REMARK    6  A    between atoms: C_8  and  C_15 
REMARK    7  A    between atoms: C_8  and  C_10 
ROOT
HETATM    1  C           1     -21.566  -3.631 -10.683  0.00  0.00     0.275 C 
ENDROOT
BRANCH   1   2
HETATM    2  C           1     -20.718  -4.506  -9.793  0.00  0.00     0.249 C 
HETATM    3  N           1     -21.049  -4.668  -8.475  0.00  0.00    -0.345 N 
HETATM    4  H           1     -21.863  -4.201  -8.097  0.00  0.00     0.163 HD
HETATM    5  O           1     -19.745  -5.064 -10.245  0.00  0.00    -0.271 OA
BRANCH   3   6
HETATM    6  C           1     -20.233  -5.508  -7.620  0.00  0.00     0.181 C 
HETATM    7  C           1     -19.201  -4.650  -6.901  0.00  0.00     0.043 C 
BRANCH   6   8
HETATM    8  C           1     -21.113  -6.195  -6.605  0.00  0.00     0.196 C 
HETATM    9  O           1     -21.959  -5.537  -5.963  0.00  0.00    -0.646 OA
HETATM   10  O           1     -20.995  -7.424  -6.406  0.00  0.00    -0.646 OA
ENDBRANCH   6   8
ENDBRANCH   3   6
ENDBRANCH   1   2
BRANCH   1  11
HETATM   11  C           1     -22.548  -4.498 -11.461  0.00  0.00     0.053 C 
BRANCH  11  12
HETATM   12  C           1     -23.802  -4.721 -10.625  0.00  0.00     0.115 C 
BRANCH  12  13
HETATM   13  C           1     -24.657  -3.477 -10.657  0.00  0.00     0.172 C 
HETATM   14  O           1     -25.026  -3.001 -11.752  0.00  0.00    -0.648 OA
HETATM   15  O           1     -24.995  -2.924  -9.588  0.00  0.00    -0.648 OA
ENDBRANCH  12  13
ENDBRANCH  11  12
ENDBRANCH   1  11
BRANCH   1  16
HETATM   16  N           1     -20.683  -2.893 -11.644  0.00  0.00    -0.066 N 
HETATM   17  H           1     -20.190  -3.577 -12.261  0.00  0.00     0.275 HD
HETATM   18  H           1     -21.265  -2.253 -12.231  0.00  0.00     0.275 HD
HETATM   19  H           1     -19.979  -2.333 -11.112  0.00  0.00     0.275 HD
ENDBRANCH   1  16
TORSDOF 7
ENDMDL
MODEL 4
REMARK VINA RESULT:      -5.9      1.816      2.346
REMARK  7 active torsions:
REMARK  status: ('A' for Active; 'I' for Inactive)
REMARK    1  A    between atoms: C_1  and  C_2 
REMARK    2  A    between atoms: C_1  and  N_5 
REMARK       I    between atoms: N_5  and  C_6 
REMARK    3  A    between atoms: C_6  and  C_7 
REMARK    4  A    between atoms: C_7  and  C_15 
REMARK    5  A    between atoms: C_7  and  N_13 
REMARK    6  A    between atoms: C_8  and  C_15 
REMARK    7  A    between atoms: C_8  and  C_10 
ROOT
HETATM    1  C           1     -24.018  -4.152 -10.711  0.00  0.00     0.275 C 
ENDROOT
BRANCH   1   2
HETATM    2  C           1     -22.723  -4.337  -9.956  0.00  0.00     0.249 C 
HETATM    3  N           1     -22.739  -4.484  -8.596  0.00  0.00    -0.345 N 
HETATM    4  H           1     -23.619  -4.469  -8.096  0.00  0.00     0.163 HD
HETATM    5  O           1     -21.674  -4.354 -10.554  0.00  0.00    -0.271 OA
BRANCH   3   6
HETATM    6  C           1     -21.496  -4.661  -7.871  0.00  0.00     0.181 C 
HETATM    7  C           1     -21.101  -3.345  -7.213  0.00  0.00     0.043 C 
BRANCH   6   8
HETATM    8  C           1     -21.678  -5.719  -6.812  0.00  0.00     0.196 C 
HETATM    9  O           1     -21.031  -6.787  -6.876  0.00  0.00    -0.646 OA
HETATM   10  O           1     -22.478  -5.529  -5.870  0.00  0.00    -0.646 OA
ENDBRANCH   6   8
ENDBRANCH   3   6
ENDBRANCH   1   2
BRANCH   1  11
HETATM   11  C           1     -23.835  -3.083 -11.780  0.00  0.00     0.053 C 
BRANCH  11  12
HETATM   12  C           1     -23.872  -3.729 -13.158  0.00  0.00     0.115 C 
BRANCH  12  13
HETATM   13  C           1     -23.552  -2.693 -14.209  0.00  0.00     0.172 C 
HETATM   14  O           1     -24.221  -1.638 -14.269  0.00  0.00    -0.648 OA
HETATM   15  O           1     -22.619  -2.890 -15.017  0.00  0.00    -0.648 OA
ENDBRANCH  12  13
ENDBRANCH  11  12
ENDBRANCH   1  11
BRANCH   1  16
HETATM   16  N           1     -25.095  -3.727  -9.758  0.00  0.00    -0.066 N 
HETATM   17  H           1     -25.124  -2.684  -9.708  0.00  0.00     0.275 HD
HETATM   18  H           1     -26.017  -4.085 -10.093  0.00  0.00     0.275 HD
HETATM   19  H           1     -24.894  -4.116  -8.809  0.00  0.00     0.275 HD
ENDBRANCH   1  16
TORSDOF 7
ENDMDL
MODEL 5
REMARK VINA RESULT:      -5.9     12.065     12.969
REMARK  7 active torsions:
REMARK  status: ('A' for Active; 'I' for Inactive)
REMARK    1  A    between atoms: C_1  and  C_2 
REMARK    2  A    between atoms: C_1  and  N_5 
REMARK       I    between atoms: N_5  and  C_6 
REMARK    3  A    between atoms: C_6  and  C_7 
REMARK    4  A    between atoms: C_7  and  C_15 
REMARK    5  A    between atoms: C_7  and  N_13 
REMARK    6  A    between atoms: C_8  and  C_15 
REMARK    7  A    between atoms: C_8  and  C_10 
ROOT
HETATM    1  C           1     -29.400  -6.877 -17.530  0.00  0.00     0.275 C 
ENDROOT
BRANCH   1   2
HETATM    2  C           1     -28.447  -6.455 -18.623  0.00  0.00     0.249 C 
HETATM    3  N           1     -27.636  -7.381 -19.219  0.00  0.00    -0.345 N 
HETATM    4  H           1     -27.675  -8.350 -18.928  0.00  0.00     0.163 HD
HETATM    5  O           1     -28.402  -5.299 -18.969  0.00  0.00    -0.271 OA
BRANCH   3   6
HETATM    6  C           1     -26.721  -6.975 -20.268  0.00  0.00     0.181 C 
HETATM    7  C           1     -25.379  -6.600 -19.654  0.00  0.00     0.043 C 
BRANCH   6   8
HETATM    8  C           1     -26.530  -8.116 -21.237  0.00  0.00     0.196 C 
HETATM    9  O           1     -27.493  -8.860 -21.525  0.00  0.00    -0.646 OA
HETATM   10  O           1     -25.409  -8.318 -21.752  0.00  0.00    -0.646 OA
ENDBRANCH   6   8
ENDBRANCH   3   6
ENDBRANCH   1   2
BRANCH   1  11
HETATM   11  C           1     -30.728  -6.152 -17.705  0.00  0.00     0.053 C 
BRANCH  11  12
HETATM   12  C           1     -30.983  -5.260 -16.498  0.00  0.00     0.115 C 
BRANCH  12  13
HETATM   13  C           1     -31.860  -4.100 -16.905  0.00  0.00     0.172 C 
HETATM   14  O           1     -33.055  -4.063 -16.539  0.00  0.00    -0.648 OA
HETATM   15  O           1     -31.392  -3.178 -17.607  0.00  0.00    -0.648 OA
ENDBRANCH  12  13
ENDBRANCH  11  12
ENDBRANCH   1  11
BRANCH   1  16
HETATM   16  N           1     -28.813  -6.529 -16.195  0.00  0.00    -0.066 N 
HETATM   17  H           1     -28.533  -7.405 -15.698  0.00  0.00     0.275 HD
HETATM   18  H           1     -27.972  -5.923 -16.331  0.00  0.00     0.275 HD
HETATM   19  H           1     -29.523  -6.016 -15.624  0.00  0.00     0.275 HD
ENDBRANCH   1  16
TORSDOF 7
ENDMDL
MODEL 6
REMARK VINA RESULT:      -5.8      2.727      7.101
REMARK  7 active torsions:
REMARK  status: ('A' for Active; 'I' for Inactive)
REMARK    1  A    between atoms: C_1  and  C_2 
REMARK    2  A    between atoms: C_1  and  N_5 
REMARK       I    between atoms: N_5  and  C_6 
REMARK    3  A    between atoms: C_6  and  C_7 
REMARK    4  A    between atoms: C_7  and  C_15 
REMARK    5  A    between atoms: C_7  and  N_13 
REMARK    6  A    between atoms: C_8  and  C_15 
REMARK    7  A    between atoms: C_8  and  C_10 
ROOT
HETATM    1  C           1     -21.114  -4.362 -10.754  0.00  0.00     0.275 C 
ENDROOT
BRANCH   1   2
HETATM    2  C           1     -22.326  -4.307 -11.652  0.00  0.00     0.249 C 
HETATM    3  N           1     -22.370  -3.414 -12.688  0.00  0.00    -0.345 N 
HETATM    4  H           1     -21.590  -2.791 -12.853  0.00  0.00     0.163 HD
HETATM    5  O           1     -23.257  -5.051 -11.455  0.00  0.00    -0.271 OA
BRANCH   3   6
HETATM    6  C           1     -23.535  -3.361 -13.551  0.00  0.00     0.181 C 
HETATM    7  C           1     -24.727  -2.838 -12.761  0.00  0.00     0.043 C 
BRANCH   6   8
HETATM    8  C           1     -23.257  -2.441 -14.713  0.00  0.00     0.196 C 
HETATM    9  O           1     -23.930  -1.398 -14.860  0.00  0.00    -0.646 OA
HETATM   10  O           1     -22.353  -2.721 -15.530  0.00  0.00    -0.646 OA
ENDBRANCH   6   8
ENDBRANCH   3   6
ENDBRANCH   1   2
BRANCH   1  11
HETATM   11  C           1     -21.508  -3.951  -9.341  0.00  0.00     0.053 C 
BRANCH  11  12
HETATM   12  C           1     -21.067  -5.026  -8.357  0.00  0.00     0.115 C 
BRANCH  12  13
HETATM   13  C           1     -21.541  -4.664  -6.970  0.00  0.00     0.172 C 
HETATM   14  O           1     -22.764  -4.638  -6.716  0.00  0.00    -0.648 OA
HETATM   15  O           1     -20.710  -4.391  -6.077  0.00  0.00    -0.648 OA
ENDBRANCH  12  13
ENDBRANCH  11  12
ENDBRANCH   1  11
BRANCH   1  16
HETATM   16  N           1     -20.066  -3.423 -11.273  0.00  0.00    -0.066 N 
HETATM   17  H           1     -19.174  -3.946 -11.426  0.00  0.00     0.275 HD
HETATM   18  H           1     -20.386  -3.009 -12.177  0.00  0.00     0.275 HD
HETATM   19  H           1     -19.907  -2.659 -10.577  0.00  0.00     0.275 HD
ENDBRANCH   1  16
TORSDOF 7
ENDMDL
MODEL 7
REMARK VINA RESULT:      -5.5      1.484      6.102
REMARK  7 active torsions:
REMARK  status: ('A' for Active; 'I' for Inactive)
REMARK    1  A    between atoms: C_1  and  C_2 
REMARK    2  A    between atoms: C_1  and  N_5 
REMARK       I    between atoms: N_5  and  C_6 
REMARK    3  A    between atoms: C_6  and  C_7 
REMARK    4  A    between atoms: C_7  and  C_15 
REMARK    5  A    between atoms: C_7  and  N_13 
REMARK    6  A    between atoms: C_8  and  C_15 
REMARK    7  A    between atoms: C_8  and  C_10 
ROOT
HETATM    1  C           1     -20.383  -3.848  -7.830  0.00  0.00     0.275 C 
ENDROOT
BRANCH   1   2
HETATM    2  C           1     -20.912  -4.220  -9.194  0.00  0.00     0.249 C 
HETATM    3  N           1     -22.227  -4.003  -9.500  0.00  0.00    -0.345 N 
HETATM    4  H           1     -22.846  -3.593  -8.812  0.00  0.00     0.163 HD
HETATM    5  O           1     -20.172  -4.709 -10.015  0.00  0.00    -0.271 OA
BRANCH   3   6
HETATM    6  C           1     -22.735  -4.360 -10.811  0.00  0.00     0.181 C 
HETATM    7  C           1     -23.896  -5.333 -10.658  0.00  0.00     0.043 C 
BRANCH   6   8
HETATM    8  C           1     -23.210  -3.116 -11.521  0.00  0.00     0.196 C 
HETATM    9  O           1     -24.433  -2.872 -11.604  0.00  0.00    -0.646 OA
HETATM   10  O           1     -22.380  -2.329 -12.027  0.00  0.00    -0.646 OA
ENDBRANCH   6   8
ENDBRANCH   3   6
ENDBRANCH   1   2
BRANCH   1  11
HETATM   11  C           1     -19.855  -5.095  -7.132  0.00  0.00     0.053 C 
BRANCH  11  12
HETATM   12  C           1     -20.358  -5.126  -5.696  0.00  0.00     0.115 C 
BRANCH  12  13
HETATM   13  C           1     -21.427  -6.184  -5.559  0.00  0.00     0.172 C 
HETATM   14  O           1     -22.620  -5.849  -5.395  0.00  0.00    -0.648 OA
HETATM   15  O           1     -21.118  -7.394  -5.610  0.00  0.00    -0.648 OA
ENDBRANCH  12  13
ENDBRANCH  11  12
ENDBRANCH   1  11
BRANCH   1  16
HETATM   16  N           1     -21.489  -3.250  -7.012  0.00  0.00    -0.066 N 
HETATM   17  H           1     -21.697  -2.286  -7.361  0.00  0.00     0.275 HD
HETATM   18  H           1     -22.345  -3.843  -7.098  0.00  0.00     0.275 HD
HETATM   19  H           1     -21.196  -3.202  -6.010  0.00  0.00     0.275 HD
ENDBRANCH   1  16
TORSDOF 7
ENDMDL
MODEL 8
REMARK VINA RESULT:      -5.5      1.623      2.066
REMARK  7 active torsions:
REMARK  status: ('A' for Active; 'I' for Inactive)
REMARK    1  A    between atoms: C_1  and  C_2 
REMARK    2  A    between atoms: C_1  and  N_5 
REMARK       I    between atoms: N_5  and  C_6 
REMARK    3  A    between atoms: C_6  and  C_7 
REMARK    4  A    between atoms: C_7  and  C_15 
REMARK    5  A    between atoms: C_7  and  N_13 
REMARK    6  A    between atoms: C_8  and  C_15 
REMARK    7  A    between atoms: C_8  and  C_10 
ROOT
HETATM    1  C           1     -21.420  -4.046  -9.208  0.00  0.00     0.275 C 
ENDROOT
BRANCH   1   2
HETATM    2  C           1     -21.285  -4.337  -7.733  0.00  0.00     0.249 C 
HETATM    3  N           1     -21.295  -5.631  -7.287  0.00  0.00    -0.345 N 
HETATM    4  H           1     -21.392  -6.392  -7.946  0.00  0.00     0.163 HD
HETATM    5  O           1     -21.169  -3.427  -6.946  0.00  0.00    -0.271 OA
BRANCH   3   6
HETATM    6  C           1     -21.166  -5.910  -5.870  0.00  0.00     0.181 C 
HETATM    7  C           1     -22.524  -6.310  -5.306  0.00  0.00     0.043 C 
BRANCH   6   8
HETATM    8  C           1     -20.185  -7.038  -5.668  0.00  0.00     0.196 C 
HETATM    9  O           1     -19.366  -7.324  -6.569  0.00  0.00    -0.646 OA
HETATM   10  O           1     -20.189  -7.688  -4.600  0.00  0.00    -0.646 OA
ENDBRANCH   6   8
ENDBRANCH   3   6
ENDBRANCH   1   2
BRANCH   1  11
HETATM   11  C           1     -22.693  -4.691  -9.740  0.00  0.00     0.053 C 
BRANCH  11  12
HETATM   12  C           1     -23.902  -4.074  -9.050  0.00  0.00     0.115 C 
BRANCH  12  13
HETATM   13  C           1     -24.750  -3.353 -10.070  0.00  0.00     0.172 C 
HETATM   14  O           1     -25.973  -3.193  -9.864  0.00  0.00    -0.648 OA
HETATM   15  O           1     -24.230  -2.917 -11.119  0.00  0.00    -0.648 OA
ENDBRANCH  12  13
ENDBRANCH  11  12
ENDBRANCH   1  11
BRANCH   1  16
HETATM   16  N           1     -20.234  -4.605  -9.937  0.00  0.00    -0.066 N 
HETATM   17  H           1     -19.370  -4.445  -9.371  0.00  0.00     0.275 HD
HETATM   18  H           1     -20.368  -5.631 -10.083  0.00  0.00     0.275 HD
HETATM   19  H           1     -20.138  -4.130 -10.862  0.00  0.00     0.275 HD
ENDBRANCH   1  16
TORSDOF 7
ENDMDL
MODEL 9
REMARK VINA RESULT:      -5.5     10.522     12.789
REMARK  7 active torsions:
REMARK  status: ('A' for Active; 'I' for Inactive)
REMARK    1  A    between atoms: C_1  and  C_2 
REMARK    2  A    between atoms: C_1  and  N_5 
REMARK       I    between atoms: N_5  and  C_6 
REMARK    3  A    between atoms: C_6  and  C_7 
REMARK    4  A    between atoms: C_7  and  C_15 
REMARK    5  A    between atoms: C_7  and  N_13 
REMARK    6  A    between atoms: C_8  and  C_15 
REMARK    7  A    between atoms: C_8  and  C_10 
ROOT
HETATM    1  C           1     -25.540  -6.317 -18.214  0.00  0.00     0.275 C 
ENDROOT
BRANCH   1   2
HETATM    2  C           1     -26.937  -6.421 -17.652  0.00  0.00     0.249 C 
HETATM    3  N           1     -27.971  -6.813 -18.458  0.00  0.00    -0.345 N 
HETATM    4  H           1     -27.800  -7.033 -19.430  0.00  0.00     0.163 HD
HETATM    5  O           1     -27.142  -6.158 -16.491  0.00  0.00    -0.271 OA
BRANCH   3   6
HETATM    6  C           1     -29.314  -6.913 -17.918  0.00  0.00     0.181 C 
HETATM    7  C           1     -30.000  -5.557 -18.011  0.00  0.00     0.043 C 
BRANCH   6   8
HETATM    8  C           1     -30.099  -7.930 -18.708  0.00  0.00     0.196 C 
HETATM    9  O           1     -31.346  -7.862 -18.751  0.00  0.00    -0.646 OA
HETATM   10  O           1     -29.501  -8.842 -19.321  0.00  0.00    -0.646 OA
ENDBRANCH   6   8
ENDBRANCH   3   6
ENDBRANCH   1   2
BRANCH   1  11
HETATM   11  C           1     -25.590  -6.450 -19.730  0.00  0.00     0.053 C 
BRANCH  11  12
HETATM   12  C           1     -24.618  -7.533 -20.178  0.00  0.00     0.115 C 
BRANCH  12  13
HETATM   13  C           1     -25.107  -8.148 -21.467  0.00  0.00     0.172 C 
HETATM   14  O           1     -26.256  -8.636 -21.529  0.00  0.00    -0.648 OA
HETATM   15  O           1     -24.364  -8.169 -22.472  0.00  0.00    -0.648 OA
ENDBRANCH  12  13
ENDBRANCH  11  12
ENDBRANCH   1  11
BRANCH   1  16
HETATM   16  N           1     -24.690  -7.414 -17.645  0.00  0.00    -0.066 N 
HETATM   17  H           1     -25.119  -8.340 -17.870  0.00  0.00     0.275 HD
HETATM   18  H           1     -23.733  -7.364 -18.060  0.00  0.00     0.275 HD
HETATM   19  H           1     -24.626  -7.303 -16.607  0.00  0.00     0.275 HD
ENDBRANCH   1  16
TORSDOF 7
ENDMDL
