MODEL 1
REMARK VINA RESULT:      -7.8      0.000      0.000
REMARK  10 active torsions:
REMARK  status: ('A' for Active; 'I' for Inactive)
REMARK    1  A    between atoms: C_1  and  C_6 
REMARK    2  A    between atoms: C_1  and  C_2 
REMARK    3  A    between atoms: C_1  and  N_19 
REMARK    4  A    between atoms: C_2  and  C_17 
REMARK       I    between atoms: C_6  and  N_8 
REMARK    5  A    between atoms: N_8  and  C_25 
REMARK    6  A    between atoms: C_11  and  C_25 
REMARK    7  A    between atoms: P_20  and  O_27 
REMARK    8  A    between atoms: P_20  and  O_22 
REMARK    9  A    between atoms: C_25  and  C_26 
REMARK   10  A    between atoms: C_26  and  O_27 
ROOT
HETATM    1  C           1     -21.764  -4.514  -8.085  0.00  0.00     0.249 C 
HETATM    2  O           1     -22.042  -3.451  -7.584  0.00  0.00    -0.271 OA
HETATM    3  N           1     -22.058  -4.748  -9.402  0.00  0.00    -0.343 N 
HETATM    4  H           1     -21.825  -5.639  -9.822  0.00  0.00     0.163 HD
ENDROOT
BRANCH   1   5
HETATM    5  C           1     -21.092  -5.584  -7.260  0.00  0.00     0.278 C 
BRANCH   5   6
HETATM    6  C           1     -20.895  -5.081  -5.836  0.00  0.00     0.081 C 
BRANCH   6   7
HETATM    7  C           1     -21.117  -6.206  -4.874  0.00  0.00    -0.056 A 
HETATM    8  C           1     -21.323  -7.500  -5.351  0.00  0.00     0.007 A 
HETATM    9  C           1     -21.531  -8.548  -4.455  0.00  0.00     0.001 A 
HETATM   10  C           1     -21.534  -8.303  -3.082  0.00  0.00     0.000 A 
HETATM   11  C           1     -21.329  -7.008  -2.605  0.00  0.00     0.001 A 
HETATM   12  C           1     -21.121  -5.959  -3.501  0.00  0.00     0.007 A 
ENDBRANCH   6   7
ENDBRANCH   5   6
BRANCH   5  13
HETATM   13  N           1     -19.758  -5.913  -7.861  0.00  0.00    -0.066 N 
HETATM   14  H           1     -19.447  -5.126  -8.474  0.00  0.00     0.275 HD
HETATM   15  H           1     -19.057  -6.058  -7.099  0.00  0.00     0.275 HD
HETATM   16  H           1     -19.838  -6.786  -8.430  0.00  0.00     0.275 HD
ENDBRANCH   5  13
ENDBRANCH   1   5
BRANCH   3  17
HETATM   17  C           1     -22.705  -3.720 -10.194  0.00  0.00     0.210 C 
BRANCH  17  18
HETATM   18  C           1     -24.202  -3.830 -10.036  0.00  0.00     0.198 C 
HETATM   19  O           1     -24.896  -2.797  -9.920  0.00  0.00    -0.646 OA
HETATM   20  O           1     -24.748  -4.954 -10.022  0.00  0.00    -0.646 OA
ENDBRANCH  17  18
BRANCH  17  21
HETATM   21  C           1     -22.335  -3.901 -11.660  0.00  0.00     0.217 C 
BRANCH  21  22
HETATM   22  O           1     -22.596  -2.715 -12.359  0.00  0.00    -0.287 OA
BRANCH  22  23
HETATM   23  P           1     -23.433  -2.872 -13.730  0.00  0.00     0.406 P 
HETATM   24  O           1     -24.242  -1.653 -13.958  0.00  0.00    -0.624 OA
HETATM   25  O           1     -24.328  -4.046 -13.630  0.00  0.00    -0.624 OA
BRANCH  23  26
HETATM   26  O           1     -22.410  -3.076 -14.964  0.00  0.00    -0.300 OA
HETATM   27  H           1     -22.300  -4.009 -15.036  0.00  0.00     0.223 HD
ENDBRANCH  23  26
ENDBRANCH  22  23
ENDBRANCH  21  22
ENDBRANCH  17  21
ENDBRANCH   3  17
TORSDOF 10
ENDMDL
MODEL 2
REMARK VINA RESULT:      -7.2      2.867      4.423
REMARK  10 active torsions:
REMARK  status: ('A' for Active; 'I' for Inactive)
REMARK    1  A    between atoms: C_1  and  C_6 
REMARK    2  A    between atoms: C_1  and  C_2 
REMARK    3  A    between atoms: C_1  and  N_19 
REMARK    4  A    between atoms: C_2  and  C_17 
REMARK       I    between atoms: C_6  and  N_8 
REMARK    5  A    between atoms: N_8  and  C_25 
REMARK    6  A    between atoms: C_11  and  C_25 
REMARK    7  A    between atoms: P_20  and  O_27 
REMARK    8  A    between atoms: P_20  and  O_22 
REMARK    9  A    between atoms: C_25  and  C_26 
REMARK   10  A    between atoms: C_26  and  O_27 
ROOT
HETATM    1  C           1     -22.661  -3.838 -11.255  0.00  0.00     0.249 C 
HETATM    2  O           1     -21.553  -4.010 -11.706  0.00  0.00    -0.271 OA
HETATM    3  N           1     -23.749  -3.858 -12.087  0.00  0.00    -0.343 N 
HETATM    4  H           1     -24.677  -3.714 -11.710  0.00  0.00     0.163 HD
ENDROOT
BRANCH   1   5
HETATM    5  C           1     -22.846  -3.602  -9.777  0.00  0.00     0.278 C 
BRANCH   5   6
HETATM    6  C           1     -22.711  -4.923  -9.029  0.00  0.00     0.081 C 
BRANCH   6   7
HETATM    7  C           1     -21.576  -4.834  -8.058  0.00  0.00    -0.056 A 
HETATM    8  C           1     -21.772  -5.183  -6.722  0.00  0.00     0.007 A 
HETATM    9  C           1     -20.715  -5.100  -5.817  0.00  0.00     0.001 A 
HETATM   10  C           1     -19.460  -4.667  -6.247  0.00  0.00     0.000 A 
HETATM   11  C           1     -19.265  -4.317  -7.583  0.00  0.00     0.001 A 
HETATM   12  C           1     -20.322  -4.400  -8.489  0.00  0.00     0.007 A 
ENDBRANCH   6   7
ENDBRANCH   5   6
BRANCH   5  13
HETATM   13  N           1     -24.208  -3.026  -9.529  0.00  0.00    -0.066 N 
HETATM   14  H           1     -24.369  -2.942  -8.500  0.00  0.00     0.275 HD
HETATM   15  H           1     -24.273  -2.080  -9.969  0.00  0.00     0.275 HD
HETATM   16  H           1     -24.933  -3.653  -9.946  0.00  0.00     0.275 HD
ENDBRANCH   5  13
ENDBRANCH   1   5
BRANCH   3  17
HETATM   17  C           1     -23.571  -4.084 -13.508  0.00  0.00     0.210 C 
BRANCH  17  18
HETATM   18  C           1     -23.595  -2.761 -14.235  0.00  0.00     0.198 C 
HETATM   19  O           1     -24.453  -1.901 -13.940  0.00  0.00    -0.646 OA
HETATM   20  O           1     -22.758  -2.526 -15.133  0.00  0.00    -0.646 OA
ENDBRANCH  17  18
BRANCH  17  21
HETATM   21  C           1     -24.698  -4.968 -14.026  0.00  0.00     0.217 C 
BRANCH  21  22
HETATM   22  O           1     -24.606  -5.074 -15.421  0.00  0.00    -0.287 OA
BRANCH  22  23
HETATM   23  P           1     -25.368  -6.333 -16.086  0.00  0.00     0.406 P 
HETATM   24  O           1     -26.735  -5.928 -16.486  0.00  0.00    -0.624 OA
HETATM   25  O           1     -25.449  -7.436 -15.103  0.00  0.00    -0.624 OA
BRANCH  23  26
HETATM   26  O           1     -24.552  -6.829 -17.388  0.00  0.00    -0.300 OA
HETATM   27  H           1     -23.794  -7.274 -17.046  0.00  0.00     0.223 HD
ENDBRANCH  23  26
ENDBRANCH  22  23
ENDBRANCH  21  22
ENDBRANCH  17  21
ENDBRANCH   3  17
TORSDOF 10
ENDMDL
MODEL 3
REMARK VINA RESULT:      -7.2     12.333     14.334
REMARK  10 active torsions:
REMARK  status: ('A' for Active; 'I' for Inactive)
REMARK    1  A    between atoms: C_1  and  C_6 
REMARK    2  A    between atoms: C_1  and  C_2 
REMARK    3  A    between atoms: C_1  and  N_19 
REMARK    4  A    between atoms: C_2  and  C_17 
REMARK       I    between atoms: C_6  and  N_8 
REMARK    5  A    between atoms: N_8  and  C_25 
REMARK    6  A    between atoms: C_11  and  C_25 
REMARK    7  A    between atoms: P_20  and  O_27 
REMARK    8  A    between atoms: P_20  and  O_22 
REMARK    9  A    between atoms: C_25  and  C_26 
REMARK   10  A    between atoms: C_26  and  O_27 
ROOT
HETATM    1  C           1     -35.110  -0.091 -13.391  0.00  0.00     0.249 C 
HETATM    2  O           1     -34.758   1.019 -13.713  0.00  0.00    -0.271 OA
HETATM    3  N           1     -35.443  -1.009 -14.351  0.00  0.00    -0.343 N 
HETATM    4  H           1     -35.738  -1.939 -14.082  0.00  0.00     0.163 HD
ENDROOT
BRANCH   1   5
HETATM    5  C           1     -35.184  -0.465 -11.931  0.00  0.00     0.278 C 
BRANCH   5   6
HETATM    6  C           1     -35.996  -1.744 -11.774  0.00  0.00     0.081 C 
BRANCH   6   7
HETATM    7  C           1     -35.076  -2.885 -11.469  0.00  0.00    -0.056 A 
HETATM    8  C           1     -35.595  -4.096 -11.011  0.00  0.00     0.007 A 
HETATM    9  C           1     -34.739  -5.159 -10.726  0.00  0.00     0.001 A 
HETATM   10  C           1     -33.362  -5.011 -10.898  0.00  0.00     0.000 A 
HETATM   11  C           1     -32.843  -3.800 -11.355  0.00  0.00     0.001 A 
HETATM   12  C           1     -33.700  -2.737 -11.640  0.00  0.00     0.007 A 
ENDBRANCH   6   7
ENDBRANCH   5   6
BRANCH   5  13
HETATM   13  N           1     -35.845   0.642 -11.165  0.00  0.00    -0.066 N 
HETATM   14  H           1     -35.664   1.554 -11.643  0.00  0.00     0.275 HD
HETATM   15  H           1     -36.875   0.471 -11.121  0.00  0.00     0.275 HD
HETATM   16  H           1     -35.456   0.674 -10.195  0.00  0.00     0.275 HD
ENDBRANCH   5  13
ENDBRANCH   1   5
BRANCH   3  17
HETATM   17  C           1     -35.372  -0.648 -15.754  0.00  0.00     0.210 C 
BRANCH  17  18
HETATM   18  C           1     -36.737  -0.215 -16.231  0.00  0.00     0.198 C 
HETATM   19  O           1     -37.516  -1.050 -16.739  0.00  0.00    -0.646 OA
HETATM   20  O           1     -37.089   0.979 -16.119  0.00  0.00    -0.646 OA
ENDBRANCH  17  18
BRANCH  17  21
HETATM   21  C           1     -34.911  -1.852 -16.564  0.00  0.00     0.217 C 
BRANCH  21  22
HETATM   22  O           1     -35.056  -3.016 -15.798  0.00  0.00    -0.287 OA
BRANCH  22  23
HETATM   23  P           1     -33.857  -4.092 -15.912  0.00  0.00     0.406 P 
HETATM   24  O           1     -33.078  -4.100 -14.653  0.00  0.00    -0.624 OA
HETATM   25  O           1     -32.970  -3.725 -17.038  0.00  0.00    -0.624 OA
BRANCH  23  26
HETATM   26  O           1     -34.477  -5.562 -16.169  0.00  0.00    -0.300 OA
HETATM   27  H           1     -33.870  -5.983 -16.755  0.00  0.00     0.223 HD
ENDBRANCH  23  26
ENDBRANCH  22  23
ENDBRANCH  21  22
ENDBRANCH  17  21
ENDBRANCH   3  17
TORSDOF 10
ENDMDL
MODEL 4
REMARK VINA RESULT:      -7.1      5.583      9.153
REMARK  10 active torsions:
REMARK  status: ('A' for Active; 'I' for Inactive)
REMARK    1  A    between atoms: C_1  and  C_6 
REMARK    2  A    between atoms: C_1  and  C_2 
REMARK    3  A    between atoms: C_1  and  N_19 
REMARK    4  A    between atoms: C_2  and  C_17 
REMARK       I    between atoms: C_6  and  N_8 
REMARK    5  A    between atoms: N_8  and  C_25 
REMARK    6  A    between atoms: C_11  and  C_25 
REMARK    7  A    between atoms: P_20  and  O_27 
REMARK    8  A    between atoms: P_20  and  O_22 
REMARK    9  A    between atoms: C_25  and  C_26 
REMARK   10  A    between atoms: C_26  and  O_27 
ROOT
HETATM    1  C           1     -21.427  -5.523  -5.657  0.00  0.00     0.249 C 
HETATM    2  O           1     -20.433  -4.910  -5.343  0.00  0.00    -0.271 OA
HETATM    3  N           1     -21.818  -6.613  -4.926  0.00  0.00    -0.343 N 
HETATM    4  H           1     -22.649  -7.126  -5.189  0.00  0.00     0.163 HD
ENDROOT
BRANCH   1   5
HETATM    5  C           1     -22.235  -5.086  -6.853  0.00  0.00     0.278 C 
BRANCH   5   6
HETATM    6  C           1     -21.650  -3.800  -7.422  0.00  0.00     0.081 C 
BRANCH   6   7
HETATM    7  C           1     -21.602  -3.890  -8.915  0.00  0.00    -0.056 A 
HETATM    8  C           1     -22.763  -3.696  -9.663  0.00  0.00     0.007 A 
HETATM    9  C           1     -22.718  -3.781 -11.054  0.00  0.00     0.001 A 
HETATM   10  C           1     -21.513  -4.060 -11.698  0.00  0.00     0.000 A 
HETATM   11  C           1     -20.352  -4.255 -10.950  0.00  0.00     0.001 A 
HETATM   12  C           1     -20.396  -4.170  -9.558  0.00  0.00     0.007 A 
ENDBRANCH   6   7
ENDBRANCH   5   6
BRANCH   5  13
HETATM   13  N           1     -23.655  -4.847  -6.436  0.00  0.00    -0.066 N 
HETATM   14  H           1     -24.226  -4.590  -7.273  0.00  0.00     0.275 HD
HETATM   15  H           1     -24.044  -5.715  -6.003  0.00  0.00     0.275 HD
HETATM   16  H           1     -23.687  -4.067  -5.740  0.00  0.00     0.275 HD
ENDBRANCH   5  13
ENDBRANCH   1   5
BRANCH   3  17
HETATM   17  C           1     -21.040  -7.032  -3.777  0.00  0.00     0.210 C 
BRANCH  17  18
HETATM   18  C           1     -20.726  -8.504  -3.891  0.00  0.00     0.198 C 
HETATM   19  O           1     -19.538  -8.886  -3.965  0.00  0.00    -0.646 OA
HETATM   20  O           1     -21.653  -9.342  -3.912  0.00  0.00    -0.646 OA
ENDBRANCH  17  18
BRANCH  17  21
HETATM   21  C           1     -21.840  -6.782  -2.505  0.00  0.00     0.217 C 
BRANCH  21  22
HETATM   22  O           1     -21.156  -7.325  -1.408  0.00  0.00    -0.287 OA
BRANCH  22  23
HETATM   23  P           1     -22.059  -8.139  -0.345  0.00  0.00     0.406 P 
HETATM   24  O           1     -23.267  -7.349  -0.016  0.00  0.00    -0.624 OA
HETATM   25  O           1     -21.276  -8.377   0.888  0.00  0.00    -0.624 OA
BRANCH  23  26
HETATM   26  O           1     -22.500  -9.554  -0.986  0.00  0.00    -0.300 OA
HETATM   27  H           1     -23.220  -9.849  -0.454  0.00  0.00     0.223 HD
ENDBRANCH  23  26
ENDBRANCH  22  23
ENDBRANCH  21  22
ENDBRANCH  17  21
ENDBRANCH   3  17
TORSDOF 10
ENDMDL
MODEL 5
REMARK VINA RESULT:      -7.1      2.019      3.120
REMARK  10 active torsions:
REMARK  status: ('A' for Active; 'I' for Inactive)
REMARK    1  A    between atoms: C_1  and  C_6 
REMARK    2  A    between atoms: C_1  and  C_2 
REMARK    3  A    between atoms: C_1  and  N_19 
REMARK    4  A    between atoms: C_2  and  C_17 
REMARK       I    between atoms: C_6  and  N_8 
REMARK    5  A    between atoms: N_8  and  C_25 
REMARK    6  A    between atoms: C_11  and  C_25 
REMARK    7  A    between atoms: P_20  and  O_27 
REMARK    8  A    between atoms: P_20  and  O_22 
REMARK    9  A    between atoms: C_25  and  C_26 
REMARK   10  A    between atoms: C_26  and  O_27 
ROOT
HETATM    1  C           1     -20.785  -5.821  -6.618  0.00  0.00     0.249 C 
HETATM    2  O           1     -20.290  -6.680  -7.308  0.00  0.00    -0.271 OA
HETATM    3  N           1     -21.508  -4.811  -7.196  0.00  0.00    -0.343 N 
HETATM    4  H           1     -21.923  -4.092  -6.619  0.00  0.00     0.163 HD
ENDROOT
BRANCH   1   5
HETATM    5  C           1     -20.607  -5.859  -5.121  0.00  0.00     0.278 C 
BRANCH   5   6
HETATM    6  C           1     -21.936  -6.195  -4.458  0.00  0.00     0.081 C 
BRANCH   6   7
HETATM    7  C           1     -21.683  -6.833  -3.127  0.00  0.00    -0.056 A 
HETATM    8  C           1     -22.383  -6.398  -2.002  0.00  0.00     0.007 A 
HETATM    9  C           1     -22.148  -6.992  -0.762  0.00  0.00     0.001 A 
HETATM   10  C           1     -21.213  -8.020  -0.647  0.00  0.00     0.000 A 
HETATM   11  C           1     -20.512  -8.454  -1.773  0.00  0.00     0.001 A 
HETATM   12  C           1     -20.747  -7.860  -3.013  0.00  0.00     0.007 A 
ENDBRANCH   6   7
ENDBRANCH   5   6
BRANCH   5  13
HETATM   13  N           1     -20.134  -4.519  -4.640  0.00  0.00    -0.066 N 
HETATM   14  H           1     -20.943  -3.982  -4.253  0.00  0.00     0.275 HD
HETATM   15  H           1     -19.414  -4.650  -3.893  0.00  0.00     0.275 HD
HETATM   16  H           1     -19.715  -3.991  -5.438  0.00  0.00     0.275 HD
ENDBRANCH   5  13
ENDBRANCH   1   5
BRANCH   3  17
HETATM   17  C           1     -21.679  -4.775  -8.636  0.00  0.00     0.210 C 
BRANCH  17  18
HETATM   18  C           1     -20.401  -4.297  -9.282  0.00  0.00     0.198 C 
HETATM   19  O           1     -20.048  -4.763 -10.387  0.00  0.00    -0.646 OA
HETATM   20  O           1     -19.696  -3.436  -8.713  0.00  0.00    -0.646 OA
ENDBRANCH  17  18
BRANCH  17  21
HETATM   21  C           1     -22.812  -3.820  -8.988  0.00  0.00     0.217 C 
BRANCH  21  22
HETATM   22  O           1     -22.583  -3.268 -10.256  0.00  0.00    -0.287 OA
BRANCH  22  23
HETATM   23  P           1     -23.783  -3.428 -11.324  0.00  0.00     0.406 P 
HETATM   24  O           1     -25.083  -3.263 -10.636  0.00  0.00    -0.624 OA
HETATM   25  O           1     -23.719  -4.772 -11.941  0.00  0.00    -0.624 OA
BRANCH  23  26
HETATM   26  O           1     -23.634  -2.300 -12.471  0.00  0.00    -0.300 OA
HETATM   27  H           1     -23.605  -1.481 -12.005  0.00  0.00     0.223 HD
ENDBRANCH  23  26
ENDBRANCH  22  23
ENDBRANCH  21  22
ENDBRANCH  17  21
ENDBRANCH   3  17
TORSDOF 10
ENDMDL
MODEL 6
REMARK VINA RESULT:      -6.8     12.484     14.959
REMARK  10 active torsions:
REMARK  status: ('A' for Active; 'I' for Inactive)
REMARK    1  A    between atoms: C_1  and  C_6 
REMARK    2  A    between atoms: C_1  and  C_2 
REMARK    3  A    between atoms: C_1  and  N_19 
REMARK    4  A    between atoms: C_2  and  C_17 
REMARK       I    between atoms: C_6  and  N_8 
REMARK    5  A    between atoms: N_8  and  C_25 
REMARK    6  A    between atoms: C_11  and  C_25 
REMARK    7  A    between atoms: P_20  and  O_27 
REMARK    8  A    between atoms: P_20  and  O_22 
REMARK    9  A    between atoms: C_25  and  C_26 
REMARK   10  A    between atoms: C_26  and  O_27 
ROOT
HETATM    1  C           1     -35.587  -0.626 -11.639  0.00  0.00     0.249 C 
HETATM    2  O           1     -34.719   0.089 -12.081  0.00  0.00    -0.271 OA
HETATM    3  N           1     -35.338  -1.958 -11.436  0.00  0.00    -0.343 N 
HETATM    4  H           1     -36.064  -2.557 -11.066  0.00  0.00     0.163 HD
ENDROOT
BRANCH   1   5
HETATM    5  C           1     -36.943  -0.053 -11.312  0.00  0.00     0.278 C 
BRANCH   5   6
HETATM    6  C           1     -37.596  -0.884 -10.215  0.00  0.00     0.081 C 
BRANCH   6   7
HETATM    7  C           1     -37.533  -0.137  -8.919  0.00  0.00    -0.056 A 
HETATM    8  C           1     -37.967  -0.747  -7.742  0.00  0.00     0.007 A 
HETATM    9  C           1     -37.909  -0.051  -6.535  0.00  0.00     0.001 A 
HETATM   10  C           1     -37.417   1.253  -6.503  0.00  0.00     0.000 A 
HETATM   11  C           1     -36.984   1.863  -7.681  0.00  0.00     0.001 A 
HETATM   12  C           1     -37.042   1.168  -8.889  0.00  0.00     0.007 A 
ENDBRANCH   6   7
ENDBRANCH   5   6
BRANCH   5  13
HETATM   13  N           1     -37.806  -0.082 -12.539  0.00  0.00    -0.066 N 
HETATM   14  H           1     -38.772  -0.384 -12.279  0.00  0.00     0.275 HD
HETATM   15  H           1     -37.843   0.873 -12.963  0.00  0.00     0.275 HD
HETATM   16  H           1     -37.406  -0.754 -13.231  0.00  0.00     0.275 HD
ENDBRANCH   5  13
ENDBRANCH   1   5
BRANCH   3  17
HETATM   17  C           1     -34.034  -2.508 -11.751  0.00  0.00     0.210 C 
BRANCH  17  18
HETATM   18  C           1     -34.064  -3.112 -13.134  0.00  0.00     0.198 C 
HETATM   19  O           1     -33.291  -4.051 -13.423  0.00  0.00    -0.646 OA
HETATM   20  O           1     -34.861  -2.674 -13.991  0.00  0.00    -0.646 OA
ENDBRANCH  17  18
BRANCH  17  21
HETATM   21  C           1     -33.679  -3.585 -10.735  0.00  0.00     0.217 C 
BRANCH  21  22
HETATM   22  O           1     -34.750  -4.479 -10.607  0.00  0.00    -0.287 OA
BRANCH  22  23
HETATM   23  P           1     -34.428  -6.023 -10.953  0.00  0.00     0.406 P 
HETATM   24  O           1     -35.015  -6.896  -9.912  0.00  0.00    -0.624 OA
HETATM   25  O           1     -32.962  -6.224 -10.994  0.00  0.00    -0.624 OA
BRANCH  23  26
HETATM   26  O           1     -35.065  -6.396 -12.390  0.00  0.00    -0.300 OA
HETATM   27  H           1     -35.388  -7.276 -12.292  0.00  0.00     0.223 HD
ENDBRANCH  23  26
ENDBRANCH  22  23
ENDBRANCH  21  22
ENDBRANCH  17  21
ENDBRANCH   3  17
TORSDOF 10
ENDMDL
MODEL 7
REMARK VINA RESULT:      -6.7      5.243      8.233
REMARK  10 active torsions:
REMARK  status: ('A' for Active; 'I' for Inactive)
REMARK    1  A    between atoms: C_1  and  C_6 
REMARK    2  A    between atoms: C_1  and  C_2 
REMARK    3  A    between atoms: C_1  and  N_19 
REMARK    4  A    between atoms: C_2  and  C_17 
REMARK       I    between atoms: C_6  and  N_8 
REMARK    5  A    between atoms: N_8  and  C_25 
REMARK    6  A    between atoms: C_11  and  C_25 
REMARK    7  A    between atoms: P_20  and  O_27 
REMARK    8  A    between atoms: P_20  and  O_22 
REMARK    9  A    between atoms: C_25  and  C_26 
REMARK   10  A    between atoms: C_26  and  O_27 
ROOT
HETATM    1  C           1     -21.735  -6.021  -5.141  0.00  0.00     0.249 C 
HETATM    2  O           1     -22.925  -6.216  -5.221  0.00  0.00    -0.271 OA
HETATM    3  N           1     -20.995  -6.681  -4.195  0.00  0.00    -0.343 N 
HETATM    4  H           1     -19.999  -6.518  -4.128  0.00  0.00     0.163 HD
ENDROOT
BRANCH   1   5
HETATM    5  C           1     -21.065  -5.051  -6.081  0.00  0.00     0.278 C 
BRANCH   5   6
HETATM    6  C           1     -20.670  -5.773  -7.363  0.00  0.00     0.081 C 
BRANCH   6   7
HETATM    7  C           1     -21.092  -4.959  -8.546  0.00  0.00    -0.056 A 
HETATM    8  C           1     -22.394  -4.463  -8.622  0.00  0.00     0.007 A 
HETATM    9  C           1     -22.787  -3.705  -9.725  0.00  0.00     0.001 A 
HETATM   10  C           1     -21.879  -3.442 -10.751  0.00  0.00     0.000 A 
HETATM   11  C           1     -20.578  -3.939 -10.674  0.00  0.00     0.001 A 
HETATM   12  C           1     -20.184  -4.697  -9.571  0.00  0.00     0.007 A 
ENDBRANCH   6   7
ENDBRANCH   5   6
BRANCH   5  13
HETATM   13  N           1     -19.837  -4.489  -5.428  0.00  0.00    -0.066 N 
HETATM   14  H           1     -20.074  -3.584  -4.961  0.00  0.00     0.275 HD
HETATM   15  H           1     -19.480  -5.165  -4.715  0.00  0.00     0.275 HD
HETATM   16  H           1     -19.101  -4.326  -6.151  0.00  0.00     0.275 HD
ENDBRANCH   5  13
ENDBRANCH   1   5
BRANCH   3  17
HETATM   17  C           1     -21.640  -7.613  -3.291  0.00  0.00     0.210 C 
BRANCH  17  18
HETATM   18  C           1     -21.840  -6.954  -1.948  0.00  0.00     0.198 C 
HETATM   19  O           1     -22.452  -5.866  -1.869  0.00  0.00    -0.646 OA
HETATM   20  O           1     -21.395  -7.496  -0.913  0.00  0.00    -0.646 OA
ENDBRANCH  17  18
BRANCH  17  21
HETATM   21  C           1     -20.764  -8.847  -3.125  0.00  0.00     0.217 C 
BRANCH  21  22
HETATM   22  O           1     -21.227  -9.867  -3.967  0.00  0.00    -0.287 OA
BRANCH  22  23
HETATM   23  P           1     -20.256 -10.267  -5.194  0.00  0.00     0.406 P 
HETATM   24  O           1     -19.328 -11.336  -4.762  0.00  0.00    -0.624 OA
HETATM   25  O           1     -19.479  -9.081  -5.614  0.00  0.00    -0.624 OA
BRANCH  23  26
HETATM   26  O           1     -21.147 -10.797  -6.433  0.00  0.00    -0.300 OA
HETATM   27  H           1     -21.003 -10.170  -7.122  0.00  0.00     0.223 HD
ENDBRANCH  23  26
ENDBRANCH  22  23
ENDBRANCH  21  22
ENDBRANCH  17  21
ENDBRANCH   3  17
TORSDOF 10
ENDMDL
MODEL 8
REMARK VINA RESULT:      -6.6      2.556      4.069
REMARK  10 active torsions:
REMARK  status: ('A' for Active; 'I' for Inactive)
REMARK    1  A    between atoms: C_1  and  C_6 
REMARK    2  A    between atoms: C_1  and  C_2 
REMARK    3  A    between atoms: C_1  and  N_19 
REMARK    4  A    between atoms: C_2  and  C_17 
REMARK       I    between atoms: C_6  and  N_8 
REMARK    5  A    between atoms: N_8  and  C_25 
REMARK    6  A    between atoms: C_11  and  C_25 
REMARK    7  A    between atoms: P_20  and  O_27 
REMARK    8  A    between atoms: P_20  and  O_22 
REMARK    9  A    between atoms: C_25  and  C_26 
REMARK   10  A    between atoms: C_26  and  O_27 
ROOT
HETATM    1  C           1     -22.095  -4.042 -11.624  0.00  0.00     0.249 C 
HETATM    2  O           1     -21.677  -3.037 -12.150  0.00  0.00    -0.271 OA
HETATM    3  N           1     -23.172  -4.697 -12.159  0.00  0.00    -0.343 N 
HETATM    4  H           1     -23.521  -5.538 -11.719  0.00  0.00     0.163 HD
ENDROOT
BRANCH   1   5
HETATM    5  C           1     -21.431  -4.573 -10.378  0.00  0.00     0.278 C 
BRANCH   5   6
HETATM    6  C           1     -21.635  -3.590  -9.233  0.00  0.00     0.081 C 
BRANCH   6   7
HETATM    7  C           1     -21.266  -4.246  -7.939  0.00  0.00    -0.056 A 
HETATM    8  C           1     -19.956  -4.163  -7.465  0.00  0.00     0.007 A 
HETATM    9  C           1     -19.612  -4.775  -6.260  0.00  0.00     0.001 A 
HETATM   10  C           1     -20.576  -5.470  -5.529  0.00  0.00     0.000 A 
HETATM   11  C           1     -21.884  -5.553  -6.005  0.00  0.00     0.001 A 
HETATM   12  C           1     -22.230  -4.941  -7.210  0.00  0.00     0.007 A 
ENDBRANCH   6   7
ENDBRANCH   5   6
BRANCH   5  13
HETATM   13  N           1     -19.962  -4.747 -10.630  0.00  0.00    -0.066 N 
HETATM   14  H           1     -19.751  -4.518 -11.628  0.00  0.00     0.275 HD
HETATM   15  H           1     -19.422  -4.106 -10.005  0.00  0.00     0.275 HD
HETATM   16  H           1     -19.690  -5.736 -10.434  0.00  0.00     0.275 HD
ENDBRANCH   5  13
ENDBRANCH   1   5
BRANCH   3  17
HETATM   17  C           1     -23.810  -4.186 -13.356  0.00  0.00     0.210 C 
BRANCH  17  18
HETATM   18  C           1     -24.634  -2.971 -13.007  0.00  0.00     0.198 C 
HETATM   19  O           1     -24.635  -1.976 -13.765  0.00  0.00    -0.646 OA
HETATM   20  O           1     -25.317  -2.958 -11.960  0.00  0.00    -0.646 OA
ENDBRANCH  17  18
BRANCH  17  21
HETATM   21  C           1     -24.714  -5.259 -13.947  0.00  0.00     0.217 C 
BRANCH  21  22
HETATM   22  O           1     -24.677  -5.184 -15.346  0.00  0.00    -0.287 OA
BRANCH  22  23
HETATM   23  P           1     -25.456  -6.356 -16.138  0.00  0.00     0.406 P 
HETATM   24  O           1     -25.352  -7.622 -15.377  0.00  0.00    -0.624 OA
HETATM   25  O           1     -24.851  -6.535 -17.476  0.00  0.00    -0.624 OA
BRANCH  23  26
HETATM   26  O           1     -27.012  -5.953 -16.299  0.00  0.00    -0.300 OA
HETATM   27  H           1     -27.487  -6.756 -16.167  0.00  0.00     0.223 HD
ENDBRANCH  23  26
ENDBRANCH  22  23
ENDBRANCH  21  22
ENDBRANCH  17  21
ENDBRANCH   3  17
TORSDOF 10
ENDMDL
MODEL 9
REMARK VINA RESULT:      -6.6      5.211      8.903
REMARK  10 active torsions:
REMARK  status: ('A' for Active; 'I' for Inactive)
REMARK    1  A    between atoms: C_1  and  C_6 
REMARK    2  A    between atoms: C_1  and  C_2 
REMARK    3  A    between atoms: C_1  and  N_19 
REMARK    4  A    between atoms: C_2  and  C_17 
REMARK       I    between atoms: C_6  and  N_8 
REMARK    5  A    between atoms: N_8  and  C_25 
REMARK    6  A    between atoms: C_11  and  C_25 
REMARK    7  A    between atoms: P_20  and  O_27 
REMARK    8  A    between atoms: P_20  and  O_22 
REMARK    9  A    between atoms: C_25  and  C_26 
REMARK   10  A    between atoms: C_26  and  O_27 
ROOT
HETATM    1  C           1     -20.897  -5.115  -6.520  0.00  0.00     0.249 C 
HETATM    2  O           1     -19.689  -5.097  -6.545  0.00  0.00    -0.271 OA
HETATM    3  N           1     -21.551  -5.804  -5.533  0.00  0.00    -0.343 N 
HETATM    4  H           1     -22.563  -5.819  -5.512  0.00  0.00     0.163 HD
ENDROOT
BRANCH   1   5
HETATM    5  C           1     -21.684  -4.378  -7.575  0.00  0.00     0.278 C 
BRANCH   5   6
HETATM    6  C           1     -21.037  -4.595  -8.937  0.00  0.00     0.081 C 
BRANCH   6   7
HETATM    7  C           1     -21.932  -4.051 -10.007  0.00  0.00    -0.056 A 
HETATM    8  C           1     -23.314  -4.206  -9.904  0.00  0.00     0.007 A 
HETATM    9  C           1     -24.148  -3.700 -10.901  0.00  0.00     0.001 A 
HETATM   10  C           1     -23.600  -3.040 -12.001  0.00  0.00     0.000 A 
HETATM   11  C           1     -22.218  -2.886 -12.103  0.00  0.00     0.001 A 
HETATM   12  C           1     -21.383  -3.392 -11.106  0.00  0.00     0.007 A 
ENDBRANCH   6   7
ENDBRANCH   5   6
BRANCH   5  13
HETATM   13  N           1     -21.697  -2.913  -7.256  0.00  0.00    -0.066 N 
HETATM   14  H           1     -20.792  -2.646  -6.805  0.00  0.00     0.275 HD
HETATM   15  H           1     -21.821  -2.364  -8.137  0.00  0.00     0.275 HD
HETATM   16  H           1     -22.486  -2.705  -6.603  0.00  0.00     0.275 HD
ENDBRANCH   5  13
ENDBRANCH   1   5
BRANCH   3  17
HETATM   17  C           1     -20.794  -6.512  -4.519  0.00  0.00     0.210 C 
BRANCH  17  18
HETATM   18  C           1     -20.467  -7.901  -5.013  0.00  0.00     0.198 C 
HETATM   19  O           1     -21.274  -8.508  -5.750  0.00  0.00    -0.646 OA
HETATM   20  O           1     -19.390  -8.444  -4.686  0.00  0.00    -0.646 OA
ENDBRANCH  17  18
BRANCH  17  21
HETATM   21  C           1     -21.621  -6.610  -3.244  0.00  0.00     0.217 C 
BRANCH  21  22
HETATM   22  O           1     -21.542  -7.913  -2.734  0.00  0.00    -0.287 OA
BRANCH  22  23
HETATM   23  P           1     -21.907  -8.083  -1.170  0.00  0.00     0.406 P 
HETATM   24  O           1     -22.765  -6.958  -0.737  0.00  0.00    -0.624 OA
HETATM   25  O           1     -20.661  -8.088  -0.371  0.00  0.00    -0.624 OA
BRANCH  23  26
HETATM   26  O           1     -22.695  -9.476  -0.951  0.00  0.00    -0.300 OA
HETATM   27  H           1     -22.062 -10.055  -0.560  0.00  0.00     0.223 HD
ENDBRANCH  23  26
ENDBRANCH  22  23
ENDBRANCH  21  22
ENDBRANCH  17  21
ENDBRANCH   3  17
TORSDOF 10
ENDMDL
