MODEL 1
REMARK VINA RESULT:      -7.8      0.000      0.000
REMARK  9 active torsions:
REMARK  status: ('A' for Active; 'I' for Inactive)
REMARK    1  A    between atoms: O_1  and  C_18 
REMARK    2  A    between atoms: N_2  and  C_6 
REMARK    3  A    between atoms: O_3  and  C_4 
REMARK    4  A    between atoms: C_4  and  C_6 
REMARK    5  A    between atoms: C_6  and  C_17 
REMARK    6  A    between atoms: C_9  and  C_14 
REMARK    7  A    between atoms: C_12  and  C_23 
REMARK    8  A    between atoms: C_14  and  C_23 
REMARK    9  A    between atoms: N_16  and  C_23 
REMARK       I    between atoms: N_16  and  C_17 
ROOT
HETATM    1  C           1     -36.000  -1.131 -12.212  0.00  0.00     0.189 C 
ENDROOT
BRANCH   1   2
HETATM    2  C           1     -36.869  -0.420 -11.205  0.00  0.00     0.197 C 
HETATM    3  O           1     -38.075  -0.731 -11.090  0.00  0.00    -0.646 OA
HETATM    4  O           1     -36.384   0.479 -10.485  0.00  0.00    -0.646 OA
ENDBRANCH   1   2
BRANCH   1   5
HETATM    5  C           1     -34.599  -1.309 -11.640  0.00  0.00     0.074 C 
BRANCH   5   6
HETATM    6  C           1     -34.326  -2.766 -11.432  0.00  0.00    -0.056 A 
HETATM    7  C           1     -33.086  -3.299 -11.784  0.00  0.00     0.010 A 
HETATM    8  C           1     -32.830  -4.657 -11.591  0.00  0.00     0.037 A 
HETATM    9  C           1     -33.815  -5.481 -11.045  0.00  0.00     0.065 A 
HETATM   10  C           1     -35.055  -4.947 -10.693  0.00  0.00     0.037 A 
HETATM   11  C           1     -35.310  -3.589 -10.886  0.00  0.00     0.010 A 
BRANCH   9  12
HETATM   12  O           1     -33.567  -6.800 -10.856  0.00  0.00    -0.361 OA
HETATM   13  H           1     -32.844  -7.057 -11.452  0.00  0.00     0.217 HD
ENDBRANCH   9  12
ENDBRANCH   5   6
ENDBRANCH   1   5
BRANCH   1  14
HETATM   14  N           1     -35.928  -0.343 -13.428  0.00  0.00    -0.344 N 
HETATM   15  H           1     -36.223   0.625 -13.422  0.00  0.00     0.163 HD
HETATM   16  C           1     -35.462  -0.908 -14.584  0.00  0.00     0.251 C 
HETATM   17  O           1     -35.110  -2.065 -14.591  0.00  0.00    -0.271 OA
BRANCH  16  18
HETATM   18  C           1     -35.387  -0.089 -15.848  0.00  0.00     0.297 C 
BRANCH  18  19
HETATM   19  N           1     -36.267  -0.705 -16.895  0.00  0.00    -0.064 N 
HETATM   20  H           1     -36.339  -1.734 -16.730  0.00  0.00     0.275 HD
HETATM   21  H           1     -37.219  -0.277 -16.845  0.00  0.00     0.275 HD
HETATM   22  H           1     -35.857  -0.533 -17.841  0.00  0.00     0.275 HD
ENDBRANCH  18  19
BRANCH  18  23
HETATM   23  C           1     -35.858   1.331 -15.563  0.00  0.00     0.206 C 
BRANCH  23  24
HETATM   24  O           1     -37.216   1.450 -15.890  0.00  0.00    -0.398 OA
HETATM   25  H           1     -37.633   0.647 -15.625  0.00  0.00     0.209 HD
ENDBRANCH  23  24
ENDBRANCH  18  23
ENDBRANCH  16  18
ENDBRANCH   1  14
TORSDOF 9
ENDMDL
MODEL 2
REMARK VINA RESULT:      -6.9      2.794      5.036
REMARK  9 active torsions:
REMARK  status: ('A' for Active; 'I' for Inactive)
REMARK    1  A    between atoms: O_1  and  C_18 
REMARK    2  A    between atoms: N_2  and  C_6 
REMARK    3  A    between atoms: O_3  and  C_4 
REMARK    4  A    between atoms: C_4  and  C_6 
REMARK    5  A    between atoms: C_6  and  C_17 
REMARK    6  A    between atoms: C_9  and  C_14 
REMARK    7  A    between atoms: C_12  and  C_23 
REMARK    8  A    between atoms: C_14  and  C_23 
REMARK    9  A    between atoms: N_16  and  C_23 
REMARK       I    between atoms: N_16  and  C_17 
ROOT
HETATM    1  C           1     -36.679  -0.233 -11.498  0.00  0.00     0.189 C 
ENDROOT
BRANCH   1   2
HETATM    2  C           1     -35.772  -1.405 -11.212  0.00  0.00     0.197 C 
HETATM    3  O           1     -35.802  -2.413 -11.951  0.00  0.00    -0.646 OA
HETATM    4  O           1     -34.991  -1.367 -10.237  0.00  0.00    -0.646 OA
ENDBRANCH   1   2
BRANCH   1   5
HETATM    5  C           1     -37.965  -0.378 -10.695  0.00  0.00     0.074 C 
BRANCH   5   6
HETATM    6  C           1     -37.740   0.112  -9.298  0.00  0.00    -0.056 A 
HETATM    7  C           1     -38.057  -0.705  -8.213  0.00  0.00     0.010 A 
HETATM    8  C           1     -37.848  -0.249  -6.912  0.00  0.00     0.037 A 
HETATM    9  C           1     -37.319   1.024  -6.696  0.00  0.00     0.065 A 
HETATM   10  C           1     -37.001   1.841  -7.780  0.00  0.00     0.037 A 
HETATM   11  C           1     -37.211   1.385  -9.083  0.00  0.00     0.010 A 
BRANCH   9  12
HETATM   12  O           1     -37.114   1.467  -5.431  0.00  0.00    -0.361 OA
HETATM   13  H           1     -36.819   2.391  -5.481  0.00  0.00     0.217 HD
ENDBRANCH   9  12
ENDBRANCH   5   6
ENDBRANCH   1   5
BRANCH   1  14
HETATM   14  N           1     -36.994  -0.202 -12.913  0.00  0.00    -0.344 N 
HETATM   15  H           1     -37.854  -0.617 -13.249  0.00  0.00     0.163 HD
HETATM   16  C           1     -36.130   0.389 -13.794  0.00  0.00     0.251 C 
HETATM   17  O           1     -35.103   0.885 -13.393  0.00  0.00    -0.271 OA
BRANCH  16  18
HETATM   18  C           1     -36.458   0.422 -15.266  0.00  0.00     0.297 C 
BRANCH  18  19
HETATM   19  N           1     -36.035   1.741 -15.843  0.00  0.00    -0.064 N 
HETATM   20  H           1     -35.007   1.725 -16.032  0.00  0.00     0.275 HD
HETATM   21  H           1     -36.550   1.912 -16.735  0.00  0.00     0.275 HD
HETATM   22  H           1     -36.251   2.504 -15.163  0.00  0.00     0.275 HD
ENDBRANCH  18  19
BRANCH  18  23
HETATM   23  C           1     -35.718  -0.703 -15.978  0.00  0.00     0.206 C 
BRANCH  23  24
HETATM   24  O           1     -35.221  -1.609 -15.031  0.00  0.00    -0.398 OA
HETATM   25  H           1     -34.313  -1.752 -15.238  0.00  0.00     0.209 HD
ENDBRANCH  23  24
ENDBRANCH  18  23
ENDBRANCH  16  18
ENDBRANCH   1  14
TORSDOF 9
ENDMDL
MODEL 3
REMARK VINA RESULT:      -6.8      2.974      5.019
REMARK  9 active torsions:
REMARK  status: ('A' for Active; 'I' for Inactive)
REMARK    1  A    between atoms: O_1  and  C_18 
REMARK    2  A    between atoms: N_2  and  C_6 
REMARK    3  A    between atoms: O_3  and  C_4 
REMARK    4  A    between atoms: C_4  and  C_6 
REMARK    5  A    between atoms: C_6  and  C_17 
REMARK    6  A    between atoms: C_9  and  C_14 
REMARK    7  A    between atoms: C_12  and  C_23 
REMARK    8  A    between atoms: C_14  and  C_23 
REMARK    9  A    between atoms: N_16  and  C_23 
REMARK       I    between atoms: N_16  and  C_17 
ROOT
HETATM    1  C           1     -36.192  -1.158 -10.395  0.00  0.00     0.189 C 
ENDROOT
BRANCH   1   2
HETATM    2  C           1     -36.402  -0.475 -11.723  0.00  0.00     0.197 C 
HETATM    3  O           1     -35.515   0.273 -12.189  0.00  0.00    -0.646 OA
HETATM    4  O           1     -37.464  -0.656 -12.358  0.00  0.00    -0.646 OA
ENDBRANCH   1   2
BRANCH   1   5
HETATM    5  C           1     -36.438  -2.654 -10.547  0.00  0.00     0.074 C 
BRANCH   5   6
HETATM    6  C           1     -35.178  -3.324 -10.998  0.00  0.00    -0.056 A 
HETATM    7  C           1     -35.211  -4.651 -11.428  0.00  0.00     0.010 A 
HETATM    8  C           1     -34.037  -5.277 -11.849  0.00  0.00     0.037 A 
HETATM    9  C           1     -32.831  -4.575 -11.841  0.00  0.00     0.065 A 
HETATM   10  C           1     -32.799  -3.248 -11.412  0.00  0.00     0.037 A 
HETATM   11  C           1     -33.974  -2.622 -10.991  0.00  0.00     0.010 A 
BRANCH   9  12
HETATM   12  O           1     -31.691  -5.182 -12.251  0.00  0.00    -0.361 OA
HETATM   13  H           1     -31.602  -5.039 -13.208  0.00  0.00     0.217 HD
ENDBRANCH   9  12
ENDBRANCH   5   6
ENDBRANCH   1   5
BRANCH   1  14
HETATM   14  N           1     -37.117  -0.613  -9.420  0.00  0.00    -0.344 N 
HETATM   15  H           1     -38.114  -0.671  -9.581  0.00  0.00     0.163 HD
HETATM   16  C           1     -36.642  -0.020  -8.281  0.00  0.00     0.251 C 
HETATM   17  O           1     -35.451   0.049  -8.088  0.00  0.00    -0.271 OA
BRANCH  16  18
HETATM   18  C           1     -37.604   0.546  -7.268  0.00  0.00     0.297 C 
BRANCH  18  19
HETATM   19  N           1     -36.917   0.670  -5.941  0.00  0.00    -0.064 N 
HETATM   20  H           1     -37.573   0.385  -5.179  0.00  0.00     0.275 HD
HETATM   21  H           1     -36.076   0.050  -5.925  0.00  0.00     0.275 HD
HETATM   22  H           1     -36.622   1.662  -5.792  0.00  0.00     0.275 HD
ENDBRANCH  18  19
BRANCH  18  23
HETATM   23  C           1     -38.074   1.921  -7.725  0.00  0.00     0.206 C 
BRANCH  23  24
HETATM   24  O           1     -37.572   2.185  -9.006  0.00  0.00    -0.398 OA
HETATM   25  H           1     -37.117   1.410  -9.288  0.00  0.00     0.209 HD
ENDBRANCH  23  24
ENDBRANCH  18  23
ENDBRANCH  16  18
ENDBRANCH   1  14
TORSDOF 9
ENDMDL
MODEL 4
REMARK VINA RESULT:      -6.7      1.810      2.385
REMARK  9 active torsions:
REMARK  status: ('A' for Active; 'I' for Inactive)
REMARK    1  A    between atoms: O_1  and  C_18 
REMARK    2  A    between atoms: N_2  and  C_6 
REMARK    3  A    between atoms: O_3  and  C_4 
REMARK    4  A    between atoms: C_4  and  C_6 
REMARK    5  A    between atoms: C_6  and  C_17 
REMARK    6  A    between atoms: C_9  and  C_14 
REMARK    7  A    between atoms: C_12  and  C_23 
REMARK    8  A    between atoms: C_14  and  C_23 
REMARK    9  A    between atoms: N_16  and  C_23 
REMARK       I    between atoms: N_16  and  C_17 
ROOT
HETATM    1  C           1     -34.757  -2.286 -11.902  0.00  0.00     0.189 C 
ENDROOT
BRANCH   1   2
HETATM    2  C           1     -34.507  -1.609 -10.578  0.00  0.00     0.197 C 
HETATM    3  O           1     -35.456  -1.084  -9.955  0.00  0.00    -0.646 OA
HETATM    4  O           1     -33.352  -1.573 -10.102  0.00  0.00    -0.646 OA
ENDBRANCH   1   2
BRANCH   1   5
HETATM    5  C           1     -33.677  -3.331 -12.151  0.00  0.00     0.074 C 
BRANCH   5   6
HETATM    6  C           1     -34.034  -4.598 -11.438  0.00  0.00    -0.056 A 
HETATM    7  C           1     -33.112  -5.642 -11.369  0.00  0.00     0.010 A 
HETATM    8  C           1     -33.443  -6.823 -10.704  0.00  0.00     0.037 A 
HETATM    9  C           1     -34.697  -6.958 -10.107  0.00  0.00     0.065 A 
HETATM   10  C           1     -35.619  -5.914 -10.176  0.00  0.00     0.037 A 
HETATM   11  C           1     -35.287  -4.732 -10.840  0.00  0.00     0.010 A 
BRANCH   9  12
HETATM   12  O           1     -35.019  -8.104  -9.460  0.00  0.00    -0.361 OA
HETATM   13  H           1     -34.309  -8.302  -8.827  0.00  0.00     0.217 HD
ENDBRANCH   9  12
ENDBRANCH   5   6
ENDBRANCH   1   5
BRANCH   1  14
HETATM   14  N           1     -34.725  -1.296 -12.963  0.00  0.00    -0.344 N 
HETATM   15  H           1     -33.838  -0.992 -13.344  0.00  0.00     0.163 HD
HETATM   16  C           1     -35.893  -0.775 -13.448  0.00  0.00     0.251 C 
HETATM   17  O           1     -36.952  -1.139 -12.992  0.00  0.00    -0.271 OA
BRANCH  16  18
HETATM   18  C           1     -35.860   0.254 -14.550  0.00  0.00     0.297 C 
BRANCH  18  19
HETATM   19  N           1     -34.776   1.252 -14.270  0.00  0.00    -0.064 N 
HETATM   20  H           1     -34.657   1.880 -15.097  0.00  0.00     0.275 HD
HETATM   21  H           1     -35.036   1.822 -13.434  0.00  0.00     0.275 HD
HETATM   22  H           1     -33.879   0.749 -14.085  0.00  0.00     0.275 HD
ENDBRANCH  18  19
BRANCH  18  23
HETATM   23  C           1     -35.583  -0.435 -15.881  0.00  0.00     0.206 C 
BRANCH  23  24
HETATM   24  O           1     -35.322  -1.794 -15.659  0.00  0.00    -0.398 OA
HETATM   25  H           1     -35.331  -1.927 -14.726  0.00  0.00     0.209 HD
ENDBRANCH  23  24
ENDBRANCH  18  23
ENDBRANCH  16  18
ENDBRANCH   1  14
TORSDOF 9
ENDMDL
MODEL 5
REMARK VINA RESULT:      -6.7     11.495     13.291
REMARK  9 active torsions:
REMARK  status: ('A' for Active; 'I' for Inactive)
REMARK    1  A    between atoms: O_1  and  C_18 
REMARK    2  A    between atoms: N_2  and  C_6 
REMARK    3  A    between atoms: O_3  and  C_4 
REMARK    4  A    between atoms: C_4  and  C_6 
REMARK    5  A    between atoms: C_6  and  C_17 
REMARK    6  A    between atoms: C_9  and  C_14 
REMARK    7  A    between atoms: C_12  and  C_23 
REMARK    8  A    between atoms: C_14  and  C_23 
REMARK    9  A    between atoms: N_16  and  C_23 
REMARK       I    between atoms: N_16  and  C_17 
ROOT
HETATM    1  C           1     -22.987  -3.771 -10.023  0.00  0.00     0.189 C 
ENDROOT
BRANCH   1   2
HETATM    2  C           1     -24.467  -3.882  -9.756  0.00  0.00     0.197 C 
HETATM    3  O           1     -25.008  -5.007  -9.689  0.00  0.00    -0.646 OA
HETATM    4  O           1     -25.153  -2.848  -9.600  0.00  0.00    -0.646 OA
ENDBRANCH   1   2
BRANCH   1   5
HETATM    5  C           1     -22.292  -3.181  -8.803  0.00  0.00     0.074 C 
BRANCH   5   6
HETATM    6  C           1     -21.666  -4.281  -8.003  0.00  0.00    -0.056 A 
HETATM    7  C           1     -20.425  -4.795  -8.377  0.00  0.00     0.010 A 
HETATM    8  C           1     -19.841  -5.820  -7.633  0.00  0.00     0.037 A 
HETATM    9  C           1     -20.499  -6.331  -6.513  0.00  0.00     0.065 A 
HETATM   10  C           1     -21.741  -5.817  -6.139  0.00  0.00     0.037 A 
HETATM   11  C           1     -22.324  -4.791  -6.884  0.00  0.00     0.010 A 
BRANCH   9  12
HETATM   12  O           1     -19.932  -7.326  -5.789  0.00  0.00    -0.361 OA
HETATM   13  H           1     -19.363  -6.920  -5.114  0.00  0.00     0.217 HD
ENDBRANCH   9  12
ENDBRANCH   5   6
ENDBRANCH   1   5
BRANCH   1  14
HETATM   14  N           1     -22.767  -2.909 -11.168  0.00  0.00    -0.344 N 
HETATM   15  H           1     -22.407  -1.972 -11.035  0.00  0.00     0.163 HD
HETATM   16  C           1     -23.045  -3.361 -12.430  0.00  0.00     0.251 C 
HETATM   17  O           1     -23.475  -4.479 -12.589  0.00  0.00    -0.271 OA
BRANCH  16  18
HETATM   18  C           1     -22.816  -2.464 -13.620  0.00  0.00     0.297 C 
BRANCH  18  19
HETATM   19  N           1     -22.315  -3.282 -14.773  0.00  0.00    -0.064 N 
HETATM   20  H           1     -22.818  -3.002 -15.645  0.00  0.00     0.275 HD
HETATM   21  H           1     -21.290  -3.121 -14.895  0.00  0.00     0.275 HD
HETATM   22  H           1     -22.489  -4.295 -14.583  0.00  0.00     0.275 HD
ENDBRANCH  18  19
BRANCH  18  23
HETATM   23  C           1     -24.125  -1.789 -14.009  0.00  0.00     0.206 C 
BRANCH  23  24
HETATM   24  O           1     -25.148  -2.225 -13.155  0.00  0.00    -0.398 OA
HETATM   25  H           1     -24.957  -1.881 -12.299  0.00  0.00     0.209 HD
ENDBRANCH  23  24
ENDBRANCH  18  23
ENDBRANCH  16  18
ENDBRANCH   1  14
TORSDOF 9
ENDMDL
MODEL 6
REMARK VINA RESULT:      -6.6      2.393      5.311
REMARK  9 active torsions:
REMARK  status: ('A' for Active; 'I' for Inactive)
REMARK    1  A    between atoms: O_1  and  C_18 
REMARK    2  A    between atoms: N_2  and  C_6 
REMARK    3  A    between atoms: O_3  and  C_4 
REMARK    4  A    between atoms: C_4  and  C_6 
REMARK    5  A    between atoms: C_6  and  C_17 
REMARK    6  A    between atoms: C_9  and  C_14 
REMARK    7  A    between atoms: C_12  and  C_23 
REMARK    8  A    between atoms: C_14  and  C_23 
REMARK    9  A    between atoms: N_16  and  C_23 
REMARK       I    between atoms: N_16  and  C_17 
ROOT
HETATM    1  C           1     -36.335  -0.437 -10.594  0.00  0.00     0.189 C 
ENDROOT
BRANCH   1   2
HETATM    2  C           1     -36.659  -0.201  -9.140  0.00  0.00     0.197 C 
HETATM    3  O           1     -37.829  -0.354  -8.727  0.00  0.00    -0.646 OA
HETATM    4  O           1     -35.757   0.148  -8.348  0.00  0.00    -0.646 OA
ENDBRANCH   1   2
BRANCH   1   5
HETATM    5  C           1     -37.539  -0.066 -11.451  0.00  0.00     0.074 C 
BRANCH   5   6
HETATM    6  C           1     -37.133  -0.024 -12.891  0.00  0.00    -0.056 A 
HETATM    7  C           1     -35.813   0.266 -13.235  0.00  0.00     0.010 A 
HETATM    8  C           1     -35.434   0.305 -14.577  0.00  0.00     0.037 A 
HETATM    9  C           1     -36.376   0.052 -15.575  0.00  0.00     0.065 A 
HETATM   10  C           1     -37.696  -0.238 -15.231  0.00  0.00     0.037 A 
HETATM   11  C           1     -38.075  -0.277 -13.888  0.00  0.00     0.010 A 
BRANCH   9  12
HETATM   12  O           1     -36.009   0.090 -16.879  0.00  0.00    -0.361 OA
HETATM   13  H           1     -36.728  -0.297 -17.405  0.00  0.00     0.217 HD
ENDBRANCH   9  12
ENDBRANCH   5   6
ENDBRANCH   1   5
BRANCH   1  14
HETATM   14  N           1     -36.013  -1.837 -10.795  0.00  0.00    -0.344 N 
HETATM   15  H           1     -36.755  -2.523 -10.855  0.00  0.00     0.163 HD
HETATM   16  C           1     -34.707  -2.231 -10.904  0.00  0.00     0.251 C 
HETATM   17  O           1     -33.821  -1.411 -10.833  0.00  0.00    -0.271 OA
BRANCH  16  18
HETATM   18  C           1     -34.372  -3.686 -11.113  0.00  0.00     0.297 C 
BRANCH  18  19
HETATM   19  N           1     -35.587  -4.523 -10.841  0.00  0.00    -0.064 N 
HETATM   20  H           1     -35.396  -5.166 -10.040  0.00  0.00     0.275 HD
HETATM   21  H           1     -36.392  -3.900 -10.603  0.00  0.00     0.275 HD
HETATM   22  H           1     -35.820  -5.085 -11.690  0.00  0.00     0.275 HD
ENDBRANCH  18  19
BRANCH  18  23
HETATM   23  C           1     -33.919  -3.903 -12.551  0.00  0.00     0.206 C 
BRANCH  23  24
HETATM   24  O           1     -34.515  -2.942 -13.379  0.00  0.00    -0.398 OA
HETATM   25  H           1     -35.098  -3.402 -13.959  0.00  0.00     0.209 HD
ENDBRANCH  23  24
ENDBRANCH  18  23
ENDBRANCH  16  18
ENDBRANCH   1  14
TORSDOF 9
ENDMDL
MODEL 7
REMARK VINA RESULT:      -6.5     13.388     16.655
REMARK  9 active torsions:
REMARK  status: ('A' for Active; 'I' for Inactive)
REMARK    1  A    between atoms: O_1  and  C_18 
REMARK    2  A    between atoms: N_2  and  C_6 
REMARK    3  A    between atoms: O_3  and  C_4 
REMARK    4  A    between atoms: C_4  and  C_6 
REMARK    5  A    between atoms: C_6  and  C_17 
REMARK    6  A    between atoms: C_9  and  C_14 
REMARK    7  A    between atoms: C_12  and  C_23 
REMARK    8  A    between atoms: C_14  and  C_23 
REMARK    9  A    between atoms: N_16  and  C_23 
REMARK       I    between atoms: N_16  and  C_17 
ROOT
HETATM    1  C           1     -21.021  -5.220  -6.603  0.00  0.00     0.189 C 
ENDROOT
BRANCH   1   2
HETATM    2  C           1     -19.637  -5.524  -7.120  0.00  0.00     0.197 C 
HETATM    3  O           1     -18.810  -4.600  -7.273  0.00  0.00    -0.646 OA
HETATM    4  O           1     -19.318  -6.701  -7.395  0.00  0.00    -0.646 OA
ENDBRANCH   1   2
BRANCH   1   5
HETATM    5  C           1     -21.494  -3.886  -7.167  0.00  0.00     0.074 C 
BRANCH   5   6
HETATM    6  C           1     -22.055  -4.096  -8.539  0.00  0.00    -0.056 A 
HETATM    7  C           1     -21.207  -4.095  -9.646  0.00  0.00     0.010 A 
HETATM    8  C           1     -21.728  -4.290 -10.925  0.00  0.00     0.037 A 
HETATM    9  C           1     -23.099  -4.487 -11.096  0.00  0.00     0.065 A 
HETATM   10  C           1     -23.947  -4.488  -9.989  0.00  0.00     0.037 A 
HETATM   11  C           1     -23.425  -4.293  -8.710  0.00  0.00     0.010 A 
BRANCH   9  12
HETATM   12  O           1     -23.607  -4.678 -12.338  0.00  0.00    -0.361 OA
HETATM   13  H           1     -22.902  -5.044 -12.898  0.00  0.00     0.217 HD
ENDBRANCH   9  12
ENDBRANCH   5   6
ENDBRANCH   1   5
BRANCH   1  14
HETATM   14  N           1     -20.989  -5.147  -5.154  0.00  0.00    -0.344 N 
HETATM   15  H           1     -20.751  -4.276  -4.697  0.00  0.00     0.163 HD
HETATM   16  C           1     -21.281  -6.255  -4.406  0.00  0.00     0.251 C 
HETATM   17  O           1     -21.566  -7.295  -4.953  0.00  0.00    -0.271 OA
BRANCH  16  18
HETATM   18  C           1     -21.248  -6.179  -2.900  0.00  0.00     0.297 C 
BRANCH  18  19
HETATM   19  N           1     -22.630  -5.910  -2.383  0.00  0.00    -0.064 N 
HETATM   20  H           1     -23.108  -6.816  -2.178  0.00  0.00     0.275 HD
HETATM   21  H           1     -22.570  -5.342  -1.508  0.00  0.00     0.275 HD
HETATM   22  H           1     -23.176  -5.385  -3.103  0.00  0.00     0.275 HD
ENDBRANCH  18  19
BRANCH  18  23
HETATM   23  C           1     -20.743  -7.500  -2.335  0.00  0.00     0.206 C 
BRANCH  23  24
HETATM   24  O           1     -21.824  -8.375  -2.154  0.00  0.00    -0.398 OA
HETATM   25  H           1     -21.528  -9.061  -1.580  0.00  0.00     0.209 HD
ENDBRANCH  23  24
ENDBRANCH  18  23
ENDBRANCH  16  18
ENDBRANCH   1  14
TORSDOF 9
ENDMDL
MODEL 8
REMARK VINA RESULT:      -6.4     11.967     14.477
REMARK  9 active torsions:
REMARK  status: ('A' for Active; 'I' for Inactive)
REMARK    1  A    between atoms: O_1  and  C_18 
REMARK    2  A    between atoms: N_2  and  C_6 
REMARK    3  A    between atoms: O_3  and  C_4 
REMARK    4  A    between atoms: C_4  and  C_6 
REMARK    5  A    between atoms: C_6  and  C_17 
REMARK    6  A    between atoms: C_9  and  C_14 
REMARK    7  A    between atoms: C_12  and  C_23 
REMARK    8  A    between atoms: C_14  and  C_23 
REMARK    9  A    between atoms: N_16  and  C_23 
REMARK       I    between atoms: N_16  and  C_17 
ROOT
HETATM    1  C           1     -22.899  -3.935  -9.137  0.00  0.00     0.189 C 
ENDROOT
BRANCH   1   2
HETATM    2  C           1     -24.388  -3.872  -9.366  0.00  0.00     0.197 C 
HETATM    3  O           1     -25.041  -4.925  -9.533  0.00  0.00    -0.646 OA
HETATM    4  O           1     -24.970  -2.766  -9.388  0.00  0.00    -0.646 OA
ENDBRANCH   1   2
BRANCH   1   5
HETATM    5  C           1     -22.227  -4.595 -10.334  0.00  0.00     0.074 C 
BRANCH   5   6
HETATM    6  C           1     -22.672  -3.917 -11.592  0.00  0.00    -0.056 A 
HETATM    7  C           1     -22.225  -2.629 -11.885  0.00  0.00     0.010 A 
HETATM    8  C           1     -22.638  -1.996 -13.057  0.00  0.00     0.037 A 
HETATM    9  C           1     -23.498  -2.653 -13.938  0.00  0.00     0.065 A 
HETATM   10  C           1     -23.946  -3.942 -13.645  0.00  0.00     0.037 A 
HETATM   11  C           1     -23.531  -4.575 -12.472  0.00  0.00     0.010 A 
BRANCH   9  12
HETATM   12  O           1     -23.901  -2.040 -15.078  0.00  0.00    -0.361 OA
HETATM   13  H           1     -23.615  -1.112 -15.036  0.00  0.00     0.217 HD
ENDBRANCH   9  12
ENDBRANCH   5   6
ENDBRANCH   1   5
BRANCH   1  14
HETATM   14  N           1     -22.628  -4.713  -7.942  0.00  0.00    -0.344 N 
HETATM   15  H           1     -23.204  -5.514  -7.718  0.00  0.00     0.163 HD
HETATM   16  C           1     -21.592  -4.364  -7.118  0.00  0.00     0.251 C 
HETATM   17  O           1     -20.903  -3.407  -7.386  0.00  0.00    -0.271 OA
BRANCH  16  18
HETATM   18  C           1     -21.311  -5.172  -5.876  0.00  0.00     0.297 C 
BRANCH  18  19
HETATM   19  N           1     -22.570  -5.849  -5.424  0.00  0.00    -0.064 N 
HETATM   20  H           1     -23.206  -5.145  -4.985  0.00  0.00     0.275 HD
HETATM   21  H           1     -23.046  -6.283  -6.247  0.00  0.00     0.275 HD
HETATM   22  H           1     -22.337  -6.589  -4.725  0.00  0.00     0.275 HD
ENDBRANCH  18  19
BRANCH  18  23
HETATM   23  C           1     -20.252  -6.224  -6.183  0.00  0.00     0.206 C 
BRANCH  23  24
HETATM   24  O           1     -20.022  -6.267  -7.565  0.00  0.00    -0.398 OA
HETATM   25  H           1     -20.762  -5.857  -7.980  0.00  0.00     0.209 HD
ENDBRANCH  23  24
ENDBRANCH  18  23
ENDBRANCH  16  18
ENDBRANCH   1  14
TORSDOF 9
ENDMDL
MODEL 9
REMARK VINA RESULT:      -6.1     15.005     17.779
REMARK  9 active torsions:
REMARK  status: ('A' for Active; 'I' for Inactive)
REMARK    1  A    between atoms: O_1  and  C_18 
REMARK    2  A    between atoms: N_2  and  C_6 
REMARK    3  A    between atoms: O_3  and  C_4 
REMARK    4  A    between atoms: C_4  and  C_6 
REMARK    5  A    between atoms: C_6  and  C_17 
REMARK    6  A    between atoms: C_9  and  C_14 
REMARK    7  A    between atoms: C_12  and  C_23 
REMARK    8  A    between atoms: C_14  and  C_23 
REMARK    9  A    between atoms: N_16  and  C_23 
REMARK       I    between atoms: N_16  and  C_17 
ROOT
HETATM    1  C           1     -20.155  -7.518  -4.966  0.00  0.00     0.189 C 
ENDROOT
BRANCH   1   2
HETATM    2  C           1     -19.092  -8.556  -5.226  0.00  0.00     0.197 C 
HETATM    3  O           1     -18.743  -9.335  -4.313  0.00  0.00    -0.646 OA
HETATM    4  O           1     -18.560  -8.638  -6.354  0.00  0.00    -0.646 OA
ENDBRANCH   1   2
BRANCH   1   5
HETATM    5  C           1     -21.458  -8.208  -4.583  0.00  0.00     0.074 C 
BRANCH   5   6
HETATM    6  C           1     -21.682  -8.069  -3.110  0.00  0.00    -0.056 A 
HETATM    7  C           1     -21.955  -6.816  -2.561  0.00  0.00     0.010 A 
HETATM    8  C           1     -22.164  -6.686  -1.188  0.00  0.00     0.037 A 
HETATM    9  C           1     -22.102  -7.810  -0.364  0.00  0.00     0.065 A 
HETATM   10  C           1     -21.829  -9.063  -0.913  0.00  0.00     0.037 A 
HETATM   11  C           1     -21.620  -9.193  -2.287  0.00  0.00     0.010 A 
BRANCH   9  12
HETATM   12  O           1     -22.305  -7.685   0.970  0.00  0.00    -0.361 OA
HETATM   13  H           1     -22.498  -6.751   1.158  0.00  0.00     0.217 HD
ENDBRANCH   9  12
ENDBRANCH   5   6
ENDBRANCH   1   5
BRANCH   1  14
HETATM   14  N           1     -20.360  -6.729  -6.166  0.00  0.00    -0.344 N 
HETATM   15  H           1     -20.438  -7.186  -7.065  0.00  0.00     0.163 HD
HETATM   16  C           1     -20.450  -5.366  -6.082  0.00  0.00     0.251 C 
HETATM   17  O           1     -20.357  -4.819  -5.008  0.00  0.00    -0.271 OA
BRANCH  16  18
HETATM   18  C           1     -20.664  -4.545  -7.330  0.00  0.00     0.297 C 
BRANCH  18  19
HETATM   19  N           1     -20.015  -5.230  -8.495  0.00  0.00    -0.064 N 
HETATM   20  H           1     -20.049  -4.604  -9.331  0.00  0.00     0.275 HD
HETATM   21  H           1     -19.019  -5.445  -8.262  0.00  0.00     0.275 HD
HETATM   22  H           1     -20.524  -6.118  -8.706  0.00  0.00     0.275 HD
ENDBRANCH  18  19
BRANCH  18  23
HETATM   23  C           1     -22.157  -4.401  -7.594  0.00  0.00     0.206 C 
BRANCH  23  24
HETATM   24  O           1     -22.876  -4.850  -6.477  0.00  0.00    -0.398 OA
HETATM   25  H           1     -22.509  -5.683  -6.232  0.00  0.00     0.209 HD
ENDBRANCH  23  24
ENDBRANCH  18  23
ENDBRANCH  16  18
ENDBRANCH   1  14
TORSDOF 9
ENDMDL
