MODEL 1
REMARK VINA RESULT:      -7.4      0.000      0.000
REMARK  9 active torsions:
REMARK  status: ('A' for Active; 'I' for Inactive)
REMARK    1  A    between atoms: N_2  and  C_14 
REMARK    2  A    between atoms: C_4  and  O_5 
REMARK    3  A    between atoms: C_4  and  C_7 
REMARK    4  A    between atoms: C_7  and  C_24 
REMARK    5  A    between atoms: C_7  and  N_17 
REMARK       I    between atoms: C_13  and  N_17 
REMARK    6  A    between atoms: C_13  and  C_14 
REMARK    7  A    between atoms: C_14  and  C_15 
REMARK    8  A    between atoms: C_15  and  C_16 
REMARK    9  A    between atoms: C_25  and  O_26 
ROOT
HETATM    1  C           1     -35.885  -0.729 -11.275  0.00  0.00     0.278 C 
ENDROOT
BRANCH   1   2
HETATM    2  N           1     -36.178   0.392 -10.322  0.00  0.00    -0.066 N 
HETATM    3  H           1     -35.710   0.203  -9.407  0.00  0.00     0.275 HD
HETATM    4  H           1     -37.210   0.465 -10.176  0.00  0.00     0.275 HD
HETATM    5  H           1     -35.818   1.289 -10.718  0.00  0.00     0.275 HD
ENDBRANCH   1   2
BRANCH   1   6
HETATM    6  C           1     -36.701  -0.547 -12.531  0.00  0.00     0.249 C 
HETATM    7  O           1     -37.901  -0.420 -12.458  0.00  0.00    -0.271 OA
HETATM    8  N           1     -36.083  -0.526 -13.751  0.00  0.00    -0.343 N 
HETATM    9  H           1     -35.078  -0.632 -13.812  0.00  0.00     0.163 HD
BRANCH   8  10
HETATM   10  C           1     -36.868  -0.352 -14.958  0.00  0.00     0.214 C 
BRANCH  10  11
HETATM   11  C           1     -37.043   1.135 -15.241  0.00  0.00     0.147 C 
HETATM   12  C           1     -35.747   1.701 -15.805  0.00  0.00     0.042 C 
BRANCH  11  13
HETATM   13  O           1     -38.075   1.313 -16.173  0.00  0.00    -0.393 OA
HETATM   14  H           1     -37.688   1.237 -17.028  0.00  0.00     0.210 HD
ENDBRANCH  11  13
ENDBRANCH  10  11
BRANCH  10  15
HETATM   15  C           1     -36.155  -1.002 -16.119  0.00  0.00     0.199 C 
HETATM   16  O           1     -36.607  -0.880 -17.277  0.00  0.00    -0.646 OA
HETATM   17  O           1     -35.113  -1.664 -15.920  0.00  0.00    -0.646 OA
ENDBRANCH  10  15
ENDBRANCH   8  10
ENDBRANCH   1   6
BRANCH   1  18
HETATM   18  C           1     -36.244  -2.057 -10.622  0.00  0.00     0.081 C 
BRANCH  18  19
HETATM   19  C           1     -35.168  -3.060 -10.904  0.00  0.00    -0.056 A 
HETATM   20  C           1     -35.454  -4.423 -10.843  0.00  0.00     0.010 A 
HETATM   21  C           1     -34.453  -5.358 -11.105  0.00  0.00     0.037 A 
HETATM   22  C           1     -33.166  -4.929 -11.429  0.00  0.00     0.065 A 
HETATM   23  C           1     -32.880  -3.564 -11.489  0.00  0.00     0.037 A 
HETATM   24  C           1     -33.881  -2.630 -11.227  0.00  0.00     0.010 A 
BRANCH  22  25
HETATM   25  O           1     -32.193  -5.836 -11.683  0.00  0.00    -0.361 OA
HETATM   26  H           1     -32.473  -6.690 -11.314  0.00  0.00     0.217 HD
ENDBRANCH  22  25
ENDBRANCH  18  19
ENDBRANCH   1  18
TORSDOF 9
ENDMDL
MODEL 2
REMARK VINA RESULT:      -7.3     12.762     15.557
REMARK  9 active torsions:
REMARK  status: ('A' for Active; 'I' for Inactive)
REMARK    1  A    between atoms: N_2  and  C_14 
REMARK    2  A    between atoms: C_4  and  O_5 
REMARK    3  A    between atoms: C_4  and  C_7 
REMARK    4  A    between atoms: C_7  and  C_24 
REMARK    5  A    between atoms: C_7  and  N_17 
REMARK       I    between atoms: C_13  and  N_17 
REMARK    6  A    between atoms: C_13  and  C_14 
REMARK    7  A    between atoms: C_14  and  C_15 
REMARK    8  A    between atoms: C_15  and  C_16 
REMARK    9  A    between atoms: C_25  and  O_26 
ROOT
HETATM    1  C           1     -21.152  -5.654  -7.055  0.00  0.00     0.278 C 
ENDROOT
BRANCH   1   2
HETATM    2  N           1     -19.839  -6.060  -7.654  0.00  0.00    -0.066 N 
HETATM    3  H           1     -19.454  -6.877  -7.128  0.00  0.00     0.275 HD
HETATM    4  H           1     -19.167  -5.261  -7.597  0.00  0.00     0.275 HD
HETATM    5  H           1     -19.980  -6.325  -8.655  0.00  0.00     0.275 HD
ENDBRANCH   1   2
BRANCH   1   6
HETATM    6  C           1     -21.753  -4.536  -7.872  0.00  0.00     0.249 C 
HETATM    7  O           1     -21.877  -3.435  -7.389  0.00  0.00    -0.271 OA
HETATM    8  N           1     -22.156  -4.770  -9.159  0.00  0.00    -0.343 N 
HETATM    9  H           1     -22.051  -5.692  -9.563  0.00  0.00     0.163 HD
BRANCH   8  10
HETATM   10  C           1     -22.733  -3.696  -9.943  0.00  0.00     0.214 C 
BRANCH  10  11
HETATM   11  C           1     -22.021  -3.608 -11.287  0.00  0.00     0.147 C 
HETATM   12  C           1     -20.574  -4.052 -11.126  0.00  0.00     0.042 C 
BRANCH  11  13
HETATM   13  O           1     -22.665  -4.443 -12.212  0.00  0.00    -0.393 OA
HETATM   14  H           1     -23.588  -4.387 -12.034  0.00  0.00     0.210 HD
ENDBRANCH  11  13
ENDBRANCH  10  11
BRANCH  10  15
HETATM   15  C           1     -24.200  -3.972 -10.170  0.00  0.00     0.199 C 
HETATM   16  O           1     -24.933  -3.090 -10.665  0.00  0.00    -0.646 OA
HETATM   17  O           1     -24.681  -5.085  -9.862  0.00  0.00    -0.646 OA
ENDBRANCH  10  15
ENDBRANCH   8  10
ENDBRANCH   1   6
BRANCH   1  18
HETATM   18  C           1     -20.932  -5.177  -5.625  0.00  0.00     0.081 C 
BRANCH  18  19
HETATM   19  C           1     -21.172  -6.311  -4.677  0.00  0.00    -0.056 A 
HETATM   20  C           1     -21.264  -6.067  -3.308  0.00  0.00     0.010 A 
HETATM   21  C           1     -21.488  -7.122  -2.425  0.00  0.00     0.037 A 
HETATM   22  C           1     -21.620  -8.423  -2.911  0.00  0.00     0.065 A 
HETATM   23  C           1     -21.527  -8.667  -4.282  0.00  0.00     0.037 A 
HETATM   24  C           1     -21.303  -7.611  -5.165  0.00  0.00     0.010 A 
BRANCH  22  25
HETATM   25  O           1     -21.837  -9.449  -2.054  0.00  0.00    -0.361 OA
HETATM   26  H           1     -22.395 -10.105  -2.505  0.00  0.00     0.217 HD
ENDBRANCH  22  25
ENDBRANCH  18  19
ENDBRANCH   1  18
TORSDOF 9
ENDMDL
MODEL 3
REMARK VINA RESULT:      -7.3      1.678      2.207
REMARK  9 active torsions:
REMARK  status: ('A' for Active; 'I' for Inactive)
REMARK    1  A    between atoms: N_2  and  C_14 
REMARK    2  A    between atoms: C_4  and  O_5 
REMARK    3  A    between atoms: C_4  and  C_7 
REMARK    4  A    between atoms: C_7  and  C_24 
REMARK    5  A    between atoms: C_7  and  N_17 
REMARK       I    between atoms: C_13  and  N_17 
REMARK    6  A    between atoms: C_13  and  C_14 
REMARK    7  A    between atoms: C_14  and  C_15 
REMARK    8  A    between atoms: C_15  and  C_16 
REMARK    9  A    between atoms: C_25  and  O_26 
ROOT
HETATM    1  C           1     -34.559  -2.485 -11.759  0.00  0.00     0.278 C 
ENDROOT
BRANCH   1   2
HETATM    2  N           1     -33.657  -1.529 -11.036  0.00  0.00    -0.066 N 
HETATM    3  H           1     -34.063  -1.308 -10.099  0.00  0.00     0.275 HD
HETATM    4  H           1     -33.563  -0.650 -11.591  0.00  0.00     0.275 HD
HETATM    5  H           1     -32.715  -1.966 -10.913  0.00  0.00     0.275 HD
ENDBRANCH   1   2
BRANCH   1   6
HETATM    6  C           1     -35.516  -1.711 -12.632  0.00  0.00     0.249 C 
HETATM    7  O           1     -36.635  -1.478 -12.242  0.00  0.00    -0.271 OA
HETATM    8  N           1     -35.114  -1.271 -13.864  0.00  0.00    -0.343 N 
HETATM    9  H           1     -34.176  -1.466 -14.190  0.00  0.00     0.163 HD
BRANCH   8  10
HETATM   10  C           1     -36.034  -0.527 -14.703  0.00  0.00     0.214 C 
BRANCH  10  11
HETATM   11  C           1     -35.803   0.966 -14.511  0.00  0.00     0.147 C 
HETATM   12  C           1     -34.429   1.193 -13.894  0.00  0.00     0.042 C 
BRANCH  11  13
HETATM   13  O           1     -35.869   1.612 -15.753  0.00  0.00    -0.393 OA
HETATM   14  H           1     -36.776   1.812 -15.910  0.00  0.00     0.210 HD
ENDBRANCH  11  13
ENDBRANCH  10  11
BRANCH  10  15
HETATM   15  C           1     -35.799  -0.888 -16.150  0.00  0.00     0.199 C 
HETATM   16  O           1     -36.714  -0.743 -16.987  0.00  0.00    -0.646 OA
HETATM   17  O           1     -34.687  -1.335 -16.509  0.00  0.00    -0.646 OA
ENDBRANCH  10  15
ENDBRANCH   8  10
ENDBRANCH   1   6
BRANCH   1  18
HETATM   18  C           1     -35.346  -3.305 -10.745  0.00  0.00     0.081 C 
BRANCH  18  19
HETATM   19  C           1     -34.769  -4.685 -10.662  0.00  0.00    -0.056 A 
HETATM   20  C           1     -33.529  -4.957 -11.239  0.00  0.00     0.010 A 
HETATM   21  C           1     -32.991  -6.242 -11.162  0.00  0.00     0.037 A 
HETATM   22  C           1     -33.693  -7.254 -10.507  0.00  0.00     0.065 A 
HETATM   23  C           1     -34.934  -6.981  -9.930  0.00  0.00     0.037 A 
HETATM   24  C           1     -35.472  -5.696 -10.008  0.00  0.00     0.010 A 
BRANCH  22  25
HETATM   25  O           1     -33.172  -8.501 -10.433  0.00  0.00    -0.361 OA
HETATM   26  H           1     -32.385  -8.534 -11.003  0.00  0.00     0.217 HD
ENDBRANCH  22  25
ENDBRANCH  18  19
ENDBRANCH   1  18
TORSDOF 9
ENDMDL
MODEL 4
REMARK VINA RESULT:      -7.3     13.813     17.243
REMARK  9 active torsions:
REMARK  status: ('A' for Active; 'I' for Inactive)
REMARK    1  A    between atoms: N_2  and  C_14 
REMARK    2  A    between atoms: C_4  and  O_5 
REMARK    3  A    between atoms: C_4  and  C_7 
REMARK    4  A    between atoms: C_7  and  C_24 
REMARK    5  A    between atoms: C_7  and  N_17 
REMARK       I    between atoms: C_13  and  N_17 
REMARK    6  A    between atoms: C_13  and  C_14 
REMARK    7  A    between atoms: C_14  and  C_15 
REMARK    8  A    between atoms: C_15  and  C_16 
REMARK    9  A    between atoms: C_25  and  O_26 
ROOT
HETATM    1  C           1     -22.250  -5.130  -6.821  0.00  0.00     0.278 C 
ENDROOT
BRANCH   1   2
HETATM    2  N           1     -23.650  -4.844  -6.363  0.00  0.00    -0.066 N 
HETATM    3  H           1     -23.944  -5.568  -5.670  0.00  0.00     0.275 HD
HETATM    4  H           1     -24.296  -4.865  -7.184  0.00  0.00     0.275 HD
HETATM    5  H           1     -23.684  -3.900  -5.917  0.00  0.00     0.275 HD
ENDBRANCH   1   2
BRANCH   1   6
HETATM    6  C           1     -21.445  -5.674  -5.666  0.00  0.00     0.249 C 
HETATM    7  O           1     -20.249  -5.506  -5.633  0.00  0.00    -0.271 OA
HETATM    8  N           1     -22.070  -6.355  -4.657  0.00  0.00    -0.343 N 
HETATM    9  H           1     -23.071  -6.494  -4.685  0.00  0.00     0.163 HD
BRANCH   8  10
HETATM   10  C           1     -21.295  -6.877  -3.548  0.00  0.00     0.214 C 
BRANCH  10  11
HETATM   11  C           1     -22.151  -6.880  -2.287  0.00  0.00     0.147 C 
HETATM   12  C           1     -21.400  -7.585  -1.165  0.00  0.00     0.042 C 
BRANCH  11  13
HETATM   13  O           1     -22.426  -5.559  -1.907  0.00  0.00    -0.393 OA
HETATM   14  H           1     -23.178  -5.283  -2.402  0.00  0.00     0.210 HD
ENDBRANCH  11  13
ENDBRANCH  10  11
BRANCH  10  15
HETATM   15  C           1     -20.858  -8.287  -3.861  0.00  0.00     0.199 C 
HETATM   16  O           1     -19.643  -8.579  -3.861  0.00  0.00    -0.646 OA
HETATM   17  O           1     -21.712  -9.163  -4.121  0.00  0.00    -0.646 OA
ENDBRANCH  10  15
ENDBRANCH   8  10
ENDBRANCH   1   6
BRANCH   1  18
HETATM   18  C           1     -21.610  -3.844  -7.327  0.00  0.00     0.081 C 
BRANCH  18  19
HETATM   19  C           1     -21.627  -3.833  -8.825  0.00  0.00    -0.056 A 
HETATM   20  C           1     -22.805  -3.530  -9.506  0.00  0.00     0.010 A 
HETATM   21  C           1     -22.821  -3.519 -10.900  0.00  0.00     0.037 A 
HETATM   22  C           1     -21.658  -3.813 -11.614  0.00  0.00     0.065 A 
HETATM   23  C           1     -20.480  -4.117 -10.932  0.00  0.00     0.037 A 
HETATM   24  C           1     -20.464  -4.127  -9.537  0.00  0.00     0.010 A 
BRANCH  22  25
HETATM   25  O           1     -21.673  -3.804 -12.968  0.00  0.00    -0.361 OA
HETATM   26  H           1     -22.537  -4.139 -13.262  0.00  0.00     0.217 HD
ENDBRANCH  22  25
ENDBRANCH  18  19
ENDBRANCH   1  18
TORSDOF 9
ENDMDL
MODEL 5
REMARK VINA RESULT:      -6.9      2.221      3.459
REMARK  9 active torsions:
REMARK  status: ('A' for Active; 'I' for Inactive)
REMARK    1  A    between atoms: N_2  and  C_14 
REMARK    2  A    between atoms: C_4  and  O_5 
REMARK    3  A    between atoms: C_4  and  C_7 
REMARK    4  A    between atoms: C_7  and  C_24 
REMARK    5  A    between atoms: C_7  and  N_17 
REMARK       I    between atoms: C_13  and  N_17 
REMARK    6  A    between atoms: C_13  and  C_14 
REMARK    7  A    between atoms: C_14  and  C_15 
REMARK    8  A    between atoms: C_15  and  C_16 
REMARK    9  A    between atoms: C_25  and  O_26 
ROOT
HETATM    1  C           1     -34.295  -3.770 -12.714  0.00  0.00     0.278 C 
ENDROOT
BRANCH   1   2
HETATM    2  N           1     -33.660  -4.032 -14.047  0.00  0.00    -0.066 N 
HETATM    3  H           1     -34.404  -4.177 -14.766  0.00  0.00     0.275 HD
HETATM    4  H           1     -33.063  -4.888 -13.987  0.00  0.00     0.275 HD
HETATM    5  H           1     -33.069  -3.214 -14.318  0.00  0.00     0.275 HD
ENDBRANCH   1   2
BRANCH   1   6
HETATM    6  C           1     -34.713  -2.322 -12.632  0.00  0.00     0.249 C 
HETATM    7  O           1     -34.626  -1.727 -11.584  0.00  0.00    -0.271 OA
HETATM    8  N           1     -35.188  -1.683 -13.746  0.00  0.00    -0.343 N 
HETATM    9  H           1     -35.260  -2.181 -14.623  0.00  0.00     0.163 HD
BRANCH   8  10
HETATM   10  C           1     -35.589  -0.292 -13.667  0.00  0.00     0.214 C 
BRANCH  10  11
HETATM   11  C           1     -35.480   0.348 -15.045  0.00  0.00     0.147 C 
HETATM   12  C           1     -35.520  -0.736 -16.114  0.00  0.00     0.042 C 
BRANCH  11  13
HETATM   13  O           1     -36.553   1.230 -15.235  0.00  0.00    -0.393 OA
HETATM   14  H           1     -37.342   0.718 -15.184  0.00  0.00     0.210 HD
ENDBRANCH  11  13
ENDBRANCH  10  11
BRANCH  10  15
HETATM   15  C           1     -37.017  -0.208 -13.186  0.00  0.00     0.199 C 
HETATM   16  O           1     -37.284   0.385 -12.119  0.00  0.00    -0.646 OA
HETATM   17  O           1     -37.934  -0.733 -13.856  0.00  0.00    -0.646 OA
ENDBRANCH  10  15
ENDBRANCH   8  10
ENDBRANCH   1   6
BRANCH   1  18
HETATM   18  C           1     -33.295  -4.074 -11.607  0.00  0.00     0.081 C 
BRANCH  18  19
HETATM   19  C           1     -33.611  -5.406 -10.999  0.00  0.00    -0.056 A 
HETATM   20  C           1     -34.824  -5.601 -10.340  0.00  0.00     0.010 A 
HETATM   21  C           1     -35.119  -6.841  -9.775  0.00  0.00     0.037 A 
HETATM   22  C           1     -34.200  -7.886  -9.868  0.00  0.00     0.065 A 
HETATM   23  C           1     -32.986  -7.691 -10.527  0.00  0.00     0.037 A 
HETATM   24  C           1     -32.691  -6.450 -11.093  0.00  0.00     0.010 A 
BRANCH  22  25
HETATM   25  O           1     -34.485  -9.090  -9.318  0.00  0.00    -0.361 OA
HETATM   26  H           1     -34.884  -8.936  -8.445  0.00  0.00     0.217 HD
ENDBRANCH  22  25
ENDBRANCH  18  19
ENDBRANCH   1  18
TORSDOF 9
ENDMDL
MODEL 6
REMARK VINA RESULT:      -6.8      1.987      5.571
REMARK  9 active torsions:
REMARK  status: ('A' for Active; 'I' for Inactive)
REMARK    1  A    between atoms: N_2  and  C_14 
REMARK    2  A    between atoms: C_4  and  O_5 
REMARK    3  A    between atoms: C_4  and  C_7 
REMARK    4  A    between atoms: C_7  and  C_24 
REMARK    5  A    between atoms: C_7  and  N_17 
REMARK       I    between atoms: C_13  and  N_17 
REMARK    6  A    between atoms: C_13  and  C_14 
REMARK    7  A    between atoms: C_14  and  C_15 
REMARK    8  A    between atoms: C_15  and  C_16 
REMARK    9  A    between atoms: C_25  and  O_26 
ROOT
HETATM    1  C           1     -36.144  -0.961 -10.907  0.00  0.00     0.278 C 
ENDROOT
BRANCH   1   2
HETATM    2  N           1     -36.126  -0.702  -9.430  0.00  0.00    -0.066 N 
HETATM    3  H           1     -35.150  -0.801  -9.070  0.00  0.00     0.275 HD
HETATM    4  H           1     -36.746  -1.390  -8.948  0.00  0.00     0.275 HD
HETATM    5  H           1     -36.470   0.267  -9.243  0.00  0.00     0.275 HD
ENDBRANCH   1   2
BRANCH   1   6
HETATM    6  C           1     -34.959  -1.817 -11.282  0.00  0.00     0.249 C 
HETATM    7  O           1     -33.839  -1.439 -11.033  0.00  0.00    -0.271 OA
HETATM    8  N           1     -35.154  -3.022 -11.901  0.00  0.00    -0.343 N 
HETATM    9  H           1     -36.093  -3.338 -12.108  0.00  0.00     0.163 HD
BRANCH   8  10
HETATM   10  C           1     -34.016  -3.844 -12.261  0.00  0.00     0.214 C 
BRANCH  10  11
HETATM   11  C           1     -34.264  -5.280 -11.815  0.00  0.00     0.147 C 
HETATM   12  C           1     -34.992  -5.279 -10.478  0.00  0.00     0.042 C 
BRANCH  11  13
HETATM   13  O           1     -35.049  -5.936 -12.774  0.00  0.00    -0.393 OA
HETATM   14  H           1     -34.550  -6.674 -13.078  0.00  0.00     0.210 HD
ENDBRANCH  11  13
ENDBRANCH  10  11
BRANCH  10  15
HETATM   15  C           1     -33.824  -3.810 -13.758  0.00  0.00     0.199 C 
HETATM   16  O           1     -32.853  -4.399 -14.277  0.00  0.00    -0.646 OA
HETATM   17  O           1     -34.638  -3.190 -14.477  0.00  0.00    -0.646 OA
ENDBRANCH  10  15
ENDBRANCH   8  10
ENDBRANCH   1   6
BRANCH   1  18
HETATM   18  C           1     -36.071   0.364 -11.655  0.00  0.00     0.081 C 
BRANCH  18  19
HETATM   19  C           1     -36.243   0.120 -13.123  0.00  0.00    -0.056 A 
HETATM   20  C           1     -37.492  -0.237 -13.628  0.00  0.00     0.010 A 
HETATM   21  C           1     -37.652  -0.464 -14.995  0.00  0.00     0.037 A 
HETATM   22  C           1     -36.563  -0.335 -15.856  0.00  0.00     0.065 A 
HETATM   23  C           1     -35.313   0.022 -15.350  0.00  0.00     0.037 A 
HETATM   24  C           1     -35.152   0.249 -13.983  0.00  0.00     0.010 A 
BRANCH  22  25
HETATM   25  O           1     -36.718  -0.556 -17.183  0.00  0.00    -0.361 OA
HETATM   26  H           1     -37.188  -1.399 -17.295  0.00  0.00     0.217 HD
ENDBRANCH  22  25
ENDBRANCH  18  19
ENDBRANCH   1  18
TORSDOF 9
ENDMDL
MODEL 7
REMARK VINA RESULT:      -6.6     12.777     16.895
REMARK  9 active torsions:
REMARK  status: ('A' for Active; 'I' for Inactive)
REMARK    1  A    between atoms: N_2  and  C_14 
REMARK    2  A    between atoms: C_4  and  O_5 
REMARK    3  A    between atoms: C_4  and  C_7 
REMARK    4  A    between atoms: C_7  and  C_24 
REMARK    5  A    between atoms: C_7  and  N_17 
REMARK       I    between atoms: C_13  and  N_17 
REMARK    6  A    between atoms: C_13  and  C_14 
REMARK    7  A    between atoms: C_14  and  C_15 
REMARK    8  A    between atoms: C_15  and  C_16 
REMARK    9  A    between atoms: C_25  and  O_26 
ROOT
HETATM    1  C           1     -21.632  -4.515  -7.611  0.00  0.00     0.278 C 
ENDROOT
BRANCH   1   2
HETATM    2  N           1     -21.704  -3.061  -7.252  0.00  0.00    -0.066 N 
HETATM    3  H           1     -22.472  -2.911  -6.559  0.00  0.00     0.275 HD
HETATM    4  H           1     -21.897  -2.499  -8.111  0.00  0.00     0.275 HD
HETATM    5  H           1     -20.795  -2.759  -6.835  0.00  0.00     0.275 HD
ENDBRANCH   1   2
BRANCH   1   6
HETATM    6  C           1     -20.741  -5.232  -6.626  0.00  0.00     0.249 C 
HETATM    7  O           1     -19.694  -4.735  -6.285  0.00  0.00    -0.271 OA
HETATM    8  N           1     -21.121  -6.445  -6.117  0.00  0.00    -0.343 N 
HETATM    9  H           1     -21.999  -6.861  -6.402  0.00  0.00     0.163 HD
BRANCH   8  10
HETATM   10  C           1     -20.266  -7.134  -5.170  0.00  0.00     0.214 C 
BRANCH  10  11
HETATM   11  C           1     -20.877  -7.050  -3.777  0.00  0.00     0.147 C 
HETATM   12  C           1     -22.336  -6.628  -3.887  0.00  0.00     0.042 C 
BRANCH  11  13
HETATM   13  O           1     -20.800  -8.305  -3.158  0.00  0.00    -0.393 OA
HETATM   14  H           1     -21.007  -8.948  -3.814  0.00  0.00     0.210 HD
ENDBRANCH  11  13
ENDBRANCH  10  11
BRANCH  10  15
HETATM   15  C           1     -20.135  -8.582  -5.574  0.00  0.00     0.199 C 
HETATM   16  O           1     -19.013  -9.132  -5.574  0.00  0.00    -0.646 OA
HETATM   17  O           1     -21.150  -9.232  -5.908  0.00  0.00    -0.646 OA
ENDBRANCH  10  15
ENDBRANCH   8  10
ENDBRANCH   1   6
BRANCH   1  18
HETATM   18  C           1     -21.060  -4.664  -9.014  0.00  0.00     0.081 C 
BRANCH  18  19
HETATM   19  C           1     -22.024  -4.096 -10.010  0.00  0.00    -0.056 A 
HETATM   20  C           1     -21.554  -3.331 -11.077  0.00  0.00     0.010 A 
HETATM   21  C           1     -22.452  -2.802 -12.004  0.00  0.00     0.037 A 
HETATM   22  C           1     -23.819  -3.038 -11.864  0.00  0.00     0.065 A 
HETATM   23  C           1     -24.289  -3.803 -10.796  0.00  0.00     0.037 A 
HETATM   24  C           1     -23.391  -4.332  -9.869  0.00  0.00     0.010 A 
BRANCH  22  25
HETATM   25  O           1     -24.691  -2.524 -12.764  0.00  0.00    -0.361 OA
HETATM   26  H           1     -24.274  -1.752 -13.181  0.00  0.00     0.217 HD
ENDBRANCH  22  25
ENDBRANCH  18  19
ENDBRANCH   1  18
TORSDOF 9
ENDMDL
MODEL 8
REMARK VINA RESULT:      -6.5     13.532     16.549
REMARK  9 active torsions:
REMARK  status: ('A' for Active; 'I' for Inactive)
REMARK    1  A    between atoms: N_2  and  C_14 
REMARK    2  A    between atoms: C_4  and  O_5 
REMARK    3  A    between atoms: C_4  and  C_7 
REMARK    4  A    between atoms: C_7  and  C_24 
REMARK    5  A    between atoms: C_7  and  N_17 
REMARK       I    between atoms: C_13  and  N_17 
REMARK    6  A    between atoms: C_13  and  C_14 
REMARK    7  A    between atoms: C_14  and  C_15 
REMARK    8  A    between atoms: C_15  and  C_16 
REMARK    9  A    between atoms: C_25  and  O_26 
ROOT
HETATM    1  C           1     -21.775  -5.945  -5.090  0.00  0.00     0.278 C 
ENDROOT
BRANCH   1   2
HETATM    2  N           1     -23.220  -6.228  -4.805  0.00  0.00    -0.066 N 
HETATM    3  H           1     -23.414  -7.243  -4.965  0.00  0.00     0.275 HD
HETATM    4  H           1     -23.820  -5.655  -5.440  0.00  0.00     0.275 HD
HETATM    5  H           1     -23.432  -5.985  -3.812  0.00  0.00     0.275 HD
ENDBRANCH   1   2
BRANCH   1   6
HETATM    6  C           1     -21.559  -5.885  -6.583  0.00  0.00     0.249 C 
HETATM    7  O           1     -20.923  -6.750  -7.136  0.00  0.00    -0.271 OA
HETATM    8  N           1     -22.085  -4.850  -7.308  0.00  0.00    -0.343 N 
HETATM    9  H           1     -22.618  -4.126  -6.844  0.00  0.00     0.163 HD
BRANCH   8  10
HETATM   10  C           1     -21.877  -4.792  -8.742  0.00  0.00     0.214 C 
BRANCH  10  11
HETATM   11  C           1     -23.041  -4.058  -9.395  0.00  0.00     0.147 C 
HETATM   12  C           1     -23.669  -4.947 -10.461  0.00  0.00     0.042 C 
BRANCH  11  13
HETATM   13  O           1     -24.001  -3.747  -8.422  0.00  0.00    -0.393 OA
HETATM   14  H           1     -23.928  -2.824  -8.251  0.00  0.00     0.210 HD
ENDBRANCH  11  13
ENDBRANCH  10  11
BRANCH  10  15
HETATM   15  C           1     -20.592  -4.055  -9.034  0.00  0.00     0.199 C 
HETATM   16  O           1     -20.254  -3.834 -10.216  0.00  0.00    -0.646 OA
HETATM   17  O           1     -19.867  -3.668  -8.092  0.00  0.00    -0.646 OA
ENDBRANCH  10  15
ENDBRANCH   8  10
ENDBRANCH   1   6
BRANCH   1  18
HETATM   18  C           1     -20.914  -7.053  -4.497  0.00  0.00     0.081 C 
BRANCH  18  19
HETATM   19  C           1     -21.393  -7.371  -3.113  0.00  0.00    -0.056 A 
HETATM   20  C           1     -21.808  -6.344  -2.267  0.00  0.00     0.010 A 
HETATM   21  C           1     -22.254  -6.640  -0.979  0.00  0.00     0.037 A 
HETATM   22  C           1     -22.283  -7.963  -0.538  0.00  0.00     0.065 A 
HETATM   23  C           1     -21.867  -8.990  -1.385  0.00  0.00     0.037 A 
HETATM   24  C           1     -21.421  -8.694  -2.673  0.00  0.00     0.010 A 
BRANCH  22  25
HETATM   25  O           1     -22.715  -8.251   0.713  0.00  0.00    -0.361 OA
HETATM   26  H           1     -23.639  -7.958   0.788  0.00  0.00     0.217 HD
ENDBRANCH  22  25
ENDBRANCH  18  19
ENDBRANCH   1  18
TORSDOF 9
ENDMDL
MODEL 9
REMARK VINA RESULT:      -6.5     14.158     17.688
REMARK  9 active torsions:
REMARK  status: ('A' for Active; 'I' for Inactive)
REMARK    1  A    between atoms: N_2  and  C_14 
REMARK    2  A    between atoms: C_4  and  O_5 
REMARK    3  A    between atoms: C_4  and  C_7 
REMARK    4  A    between atoms: C_7  and  C_24 
REMARK    5  A    between atoms: C_7  and  N_17 
REMARK       I    between atoms: C_13  and  N_17 
REMARK    6  A    between atoms: C_13  and  C_14 
REMARK    7  A    between atoms: C_14  and  C_15 
REMARK    8  A    between atoms: C_15  and  C_16 
REMARK    9  A    between atoms: C_25  and  O_26 
ROOT
HETATM    1  C           1     -21.086  -5.054  -6.179  0.00  0.00     0.278 C 
ENDROOT
BRANCH   1   2
HETATM    2  N           1     -19.795  -4.566  -5.591  0.00  0.00    -0.066 N 
HETATM    3  H           1     -18.999  -5.100  -6.006  0.00  0.00     0.275 HD
HETATM    4  H           1     -19.807  -4.709  -4.556  0.00  0.00     0.275 HD
HETATM    5  H           1     -19.680  -3.549  -5.800  0.00  0.00     0.275 HD
ENDBRANCH   1   2
BRANCH   1   6
HETATM    6  C           1     -21.764  -5.984  -5.203  0.00  0.00     0.249 C 
HETATM    7  O           1     -22.959  -6.155  -5.263  0.00  0.00    -0.271 OA
HETATM    8  N           1     -21.025  -6.634  -4.252  0.00  0.00    -0.343 N 
HETATM    9  H           1     -20.025  -6.492  -4.203  0.00  0.00     0.163 HD
BRANCH   8  10
HETATM   10  C           1     -21.677  -7.528  -3.315  0.00  0.00     0.214 C 
BRANCH  10  11
HETATM   11  C           1     -20.793  -8.745  -3.073  0.00  0.00     0.147 C 
HETATM   12  C           1     -21.563 -10.011  -3.426  0.00  0.00     0.042 C 
BRANCH  11  13
HETATM   13  O           1     -19.648  -8.657  -3.877  0.00  0.00    -0.393 OA
HETATM   14  H           1     -19.335  -9.535  -4.006  0.00  0.00     0.210 HD
ENDBRANCH  11  13
ENDBRANCH  10  11
BRANCH  10  15
HETATM   15  C           1     -21.904  -6.807  -2.008  0.00  0.00     0.199 C 
HETATM   16  O           1     -22.058  -5.567  -1.997  0.00  0.00    -0.646 OA
HETATM   17  O           1     -21.937  -7.451  -0.937  0.00  0.00    -0.646 OA
ENDBRANCH  10  15
ENDBRANCH   8  10
ENDBRANCH   1   6
BRANCH   1  18
HETATM   18  C           1     -20.803  -5.798  -7.477  0.00  0.00     0.081 C 
BRANCH  18  19
HETATM   19  C           1     -21.213  -4.948  -8.640  0.00  0.00    -0.056 A 
HETATM   20  C           1     -20.298  -4.666  -9.654  0.00  0.00     0.010 A 
HETATM   21  C           1     -20.680  -3.875 -10.737  0.00  0.00     0.037 A 
HETATM   22  C           1     -21.977  -3.366 -10.807  0.00  0.00     0.065 A 
HETATM   23  C           1     -22.892  -3.648  -9.791  0.00  0.00     0.037 A 
HETATM   24  C           1     -22.510  -4.439  -8.708  0.00  0.00     0.010 A 
BRANCH  22  25
HETATM   25  O           1     -22.348  -2.598 -11.858  0.00  0.00    -0.361 OA
HETATM   26  H           1     -23.288  -2.770 -12.041  0.00  0.00     0.217 HD
ENDBRANCH  22  25
ENDBRANCH  18  19
ENDBRANCH   1  18
TORSDOF 9
ENDMDL
