MODEL 1
REMARK VINA RESULT:      -6.6      0.000      0.000
REMARK  9 active torsions:
REMARK  status: ('A' for Active; 'I' for Inactive)
REMARK    1  A    between atoms: N_2  and  C_18 
REMARK    2  A    between atoms: N_9  and  C_10 
REMARK       I    between atoms: N_9  and  C_22 
REMARK    3  A    between atoms: C_10  and  C_17 
REMARK    4  A    between atoms: C_10  and  C_11 
REMARK    5  A    between atoms: C_15  and  C_21 
REMARK    6  A    between atoms: O_16  and  C_17 
REMARK    7  A    between atoms: C_18  and  C_22 
REMARK    8  A    between atoms: C_18  and  C_19 
REMARK    9  A    between atoms: C_19  and  C_21 
ROOT
HETATM    1  O           1     -36.532  -1.524 -12.281  0.00  0.00    -0.271 OA
HETATM    2  H           1     -34.129  -1.362 -14.291  0.00  0.00     0.163 HD
HETATM    3  N           1     -35.070  -1.227 -13.942  0.00  0.00    -0.343 N 
HETATM    4  C           1     -35.410  -1.686 -12.697  0.00  0.00     0.249 C 
ENDROOT
BRANCH   4   5
HETATM    5  C           1     -34.384  -2.392 -11.846  0.00  0.00     0.275 C 
BRANCH   5   6
HETATM    6  N           1     -33.724  -1.401 -10.934  0.00  0.00    -0.066 N 
HETATM    7  H           1     -32.790  -1.766 -10.640  0.00  0.00     0.275 HD
HETATM    8  H           1     -33.601  -0.493 -11.436  0.00  0.00     0.275 HD
HETATM    9  H           1     -34.322  -1.255 -10.088  0.00  0.00     0.275 HD
ENDBRANCH   5   6
BRANCH   5  10
HETATM   10  C           1     -35.068  -3.470 -11.015  0.00  0.00     0.053 C 
BRANCH  10  11
HETATM   11  C           1     -34.083  -4.598 -10.738  0.00  0.00     0.115 C 
BRANCH  11  12
HETATM   12  C           1     -34.587  -5.873 -11.366  0.00  0.00     0.172 C 
HETATM   13  O           1     -34.496  -6.955 -10.745  0.00  0.00    -0.648 OA
HETATM   14  O           1     -35.097  -5.849 -12.507  0.00  0.00    -0.648 OA
ENDBRANCH  11  12
ENDBRANCH  10  11
ENDBRANCH   5  10
ENDBRANCH   4   5
BRANCH   3  15
HETATM   15  C           1     -36.056  -0.548 -14.759  0.00  0.00     0.214 C 
BRANCH  15  16
HETATM   16  C           1     -35.888   0.958 -14.609  0.00  0.00     0.147 C 
HETATM   17  C           1     -34.514   1.260 -14.026  0.00  0.00     0.042 C 
BRANCH  16  18
HETATM   18  O           1     -36.007   1.569 -15.866  0.00  0.00    -0.393 OA
HETATM   19  H           1     -36.537   2.338 -15.747  0.00  0.00     0.210 HD
ENDBRANCH  16  18
ENDBRANCH  15  16
BRANCH  15  20
HETATM   20  C           1     -35.862  -0.935 -16.205  0.00  0.00     0.199 C 
HETATM   21  O           1     -36.797  -0.789 -17.021  0.00  0.00    -0.646 OA
HETATM   22  O           1     -34.766  -1.398 -16.586  0.00  0.00    -0.646 OA
ENDBRANCH  15  20
ENDBRANCH   3  15
TORSDOF 9
ENDMDL
MODEL 2
REMARK VINA RESULT:      -6.4     12.999     14.733
REMARK  9 active torsions:
REMARK  status: ('A' for Active; 'I' for Inactive)
REMARK    1  A    between atoms: N_2  and  C_18 
REMARK    2  A    between atoms: N_9  and  C_10 
REMARK       I    between atoms: N_9  and  C_22 
REMARK    3  A    between atoms: C_10  and  C_17 
REMARK    4  A    between atoms: C_10  and  C_11 
REMARK    5  A    between atoms: C_15  and  C_21 
REMARK    6  A    between atoms: O_16  and  C_17 
REMARK    7  A    between atoms: C_18  and  C_22 
REMARK    8  A    between atoms: C_18  and  C_19 
REMARK    9  A    between atoms: C_19  and  C_21 
ROOT
HETATM    1  O           1     -21.867  -3.642  -7.253  0.00  0.00    -0.271 OA
HETATM    2  H           1     -22.056  -5.770  -9.550  0.00  0.00     0.163 HD
HETATM    3  N           1     -22.135  -4.866  -9.101  0.00  0.00    -0.343 N 
HETATM    4  C           1     -21.773  -4.720  -7.788  0.00  0.00     0.249 C 
ENDROOT
BRANCH   4   5
HETATM    5  C           1     -21.256  -5.905  -7.012  0.00  0.00     0.275 C 
BRANCH   5   6
HETATM    6  N           1     -19.859  -6.224  -7.458  0.00  0.00    -0.066 N 
HETATM    7  H           1     -19.795  -6.133  -8.497  0.00  0.00     0.275 HD
HETATM    8  H           1     -19.190  -5.558  -7.008  0.00  0.00     0.275 HD
HETATM    9  H           1     -19.619  -7.202  -7.178  0.00  0.00     0.275 HD
ENDBRANCH   5   6
BRANCH   5  10
HETATM   10  C           1     -21.251  -5.577  -5.525  0.00  0.00     0.053 C 
BRANCH  10  11
HETATM   11  C           1     -22.216  -6.504  -4.797  0.00  0.00     0.115 C 
BRANCH  11  12
HETATM   12  C           1     -21.825  -6.597  -3.343  0.00  0.00     0.172 C 
HETATM   13  O           1     -22.448  -5.936  -2.484  0.00  0.00    -0.648 OA
HETATM   14  O           1     -20.877  -7.336  -2.997  0.00  0.00    -0.648 OA
ENDBRANCH  11  12
ENDBRANCH  10  11
ENDBRANCH   5  10
ENDBRANCH   4   5
BRANCH   3  15
HETATM   15  C           1     -22.632  -3.726  -9.847  0.00  0.00     0.214 C 
BRANCH  15  16
HETATM   16  C           1     -21.898  -3.632 -11.178  0.00  0.00     0.147 C 
HETATM   17  C           1     -20.475  -4.147 -11.009  0.00  0.00     0.042 C 
BRANCH  16  18
HETATM   18  O           1     -22.567  -4.409 -12.135  0.00  0.00    -0.393 OA
HETATM   19  H           1     -23.341  -3.933 -12.381  0.00  0.00     0.210 HD
ENDBRANCH  16  18
ENDBRANCH  15  16
BRANCH  15  20
HETATM   20  C           1     -24.111  -3.897 -10.098  0.00  0.00     0.199 C 
HETATM   21  O           1     -24.790  -2.931 -10.508  0.00  0.00    -0.646 OA
HETATM   22  O           1     -24.655  -5.004  -9.898  0.00  0.00    -0.646 OA
ENDBRANCH  15  20
ENDBRANCH   3  15
TORSDOF 9
ENDMDL
MODEL 3
REMARK VINA RESULT:      -6.3      2.098      3.441
REMARK  9 active torsions:
REMARK  status: ('A' for Active; 'I' for Inactive)
REMARK    1  A    between atoms: N_2  and  C_18 
REMARK    2  A    between atoms: N_9  and  C_10 
REMARK       I    between atoms: N_9  and  C_22 
REMARK    3  A    between atoms: C_10  and  C_17 
REMARK    4  A    between atoms: C_10  and  C_11 
REMARK    5  A    between atoms: C_15  and  C_21 
REMARK    6  A    between atoms: O_16  and  C_17 
REMARK    7  A    between atoms: C_18  and  C_22 
REMARK    8  A    between atoms: C_18  and  C_19 
REMARK    9  A    between atoms: C_19  and  C_21 
ROOT
HETATM    1  O           1     -33.630  -2.098 -10.979  0.00  0.00    -0.271 OA
HETATM    2  H           1     -36.101  -2.523 -12.865  0.00  0.00     0.163 HD
HETATM    3  N           1     -35.459  -2.028 -12.258  0.00  0.00    -0.343 N 
HETATM    4  C           1     -34.395  -2.688 -11.703  0.00  0.00     0.249 C 
ENDROOT
BRANCH   4   5
HETATM    5  C           1     -34.179  -4.152 -11.997  0.00  0.00     0.275 C 
BRANCH   5   6
HETATM    6  N           1     -32.791  -4.356 -12.527  0.00  0.00    -0.066 N 
HETATM    7  H           1     -32.625  -5.375 -12.689  0.00  0.00     0.275 HD
HETATM    8  H           1     -32.683  -3.838 -13.428  0.00  0.00     0.275 HD
HETATM    9  H           1     -32.097  -3.997 -11.832  0.00  0.00     0.275 HD
ENDBRANCH   5   6
BRANCH   5  10
HETATM   10  C           1     -34.357  -4.960 -10.717  0.00  0.00     0.053 C 
BRANCH  10  11
HETATM   11  C           1     -33.646  -6.298 -10.859  0.00  0.00     0.115 C 
BRANCH  11  12
HETATM   12  C           1     -34.420  -7.361 -10.120  0.00  0.00     0.172 C 
HETATM   13  O           1     -34.014  -8.543 -10.116  0.00  0.00    -0.648 OA
HETATM   14  O           1     -35.470  -7.060  -9.510  0.00  0.00    -0.648 OA
ENDBRANCH  11  12
ENDBRANCH  10  11
ENDBRANCH   5  10
ENDBRANCH   4   5
BRANCH   3  15
HETATM   15  C           1     -35.667  -0.621 -11.975  0.00  0.00     0.214 C 
BRANCH  15  16
HETATM   16  C           1     -36.199   0.073 -13.222  0.00  0.00     0.147 C 
HETATM   17  C           1     -35.035   0.451 -14.128  0.00  0.00     0.042 C 
BRANCH  16  18
HETATM   18  O           1     -37.062  -0.795 -13.907  0.00  0.00    -0.393 OA
HETATM   19  H           1     -37.288  -0.373 -14.717  0.00  0.00     0.210 HD
ENDBRANCH  16  18
ENDBRANCH  15  16
BRANCH  15  20
HETATM   20  C           1     -36.665  -0.476 -10.853  0.00  0.00     0.199 C 
HETATM   21  O           1     -36.386   0.221  -9.854  0.00  0.00    -0.646 OA
HETATM   22  O           1     -37.772  -1.053 -10.923  0.00  0.00    -0.646 OA
ENDBRANCH  15  20
ENDBRANCH   3  15
TORSDOF 9
ENDMDL
MODEL 4
REMARK VINA RESULT:      -5.8     12.508     13.980
REMARK  9 active torsions:
REMARK  status: ('A' for Active; 'I' for Inactive)
REMARK    1  A    between atoms: N_2  and  C_18 
REMARK    2  A    between atoms: N_9  and  C_10 
REMARK       I    between atoms: N_9  and  C_22 
REMARK    3  A    between atoms: C_10  and  C_17 
REMARK    4  A    between atoms: C_10  and  C_11 
REMARK    5  A    between atoms: C_15  and  C_21 
REMARK    6  A    between atoms: O_16  and  C_17 
REMARK    7  A    between atoms: C_18  and  C_22 
REMARK    8  A    between atoms: C_18  and  C_19 
REMARK    9  A    between atoms: C_19  and  C_21 
ROOT
HETATM    1  O           1     -24.184  -3.231  -8.711  0.00  0.00    -0.271 OA
HETATM    2  H           1     -21.360  -4.178  -9.696  0.00  0.00     0.163 HD
HETATM    3  N           1     -22.277  -3.752  -9.750  0.00  0.00    -0.343 N 
HETATM    4  C           1     -23.090  -3.738  -8.648  0.00  0.00     0.249 C 
ENDROOT
BRANCH   4   5
HETATM    5  C           1     -22.619  -4.356  -7.355  0.00  0.00     0.275 C 
BRANCH   5   6
HETATM    6  N           1     -23.793  -4.922  -6.613  0.00  0.00    -0.066 N 
HETATM    7  H           1     -23.633  -5.938  -6.429  0.00  0.00     0.275 HD
HETATM    8  H           1     -23.908  -4.418  -5.705  0.00  0.00     0.275 HD
HETATM    9  H           1     -24.658  -4.806  -7.189  0.00  0.00     0.275 HD
ENDBRANCH   5   6
BRANCH   5  10
HETATM   10  C           1     -21.624  -5.470  -7.656  0.00  0.00     0.053 C 
BRANCH  10  11
HETATM   11  C           1     -20.545  -5.490  -6.582  0.00  0.00     0.115 C 
BRANCH  11  12
HETATM   12  C           1     -20.829  -6.602  -5.603  0.00  0.00     0.172 C 
HETATM   13  O           1     -20.909  -7.784  -6.004  0.00  0.00    -0.648 OA
HETATM   14  O           1     -20.985  -6.342  -4.390  0.00  0.00    -0.648 OA
ENDBRANCH  11  12
ENDBRANCH  10  11
ENDBRANCH   5  10
ENDBRANCH   4   5
BRANCH   3  15
HETATM   15  C           1     -22.730  -3.158 -10.992  0.00  0.00     0.214 C 
BRANCH  15  16
HETATM   16  C           1     -21.551  -3.017 -11.946  0.00  0.00     0.147 C 
HETATM   17  C           1     -20.345  -3.750 -11.373  0.00  0.00     0.042 C 
BRANCH  16  18
HETATM   18  O           1     -21.889  -3.571 -13.189  0.00  0.00    -0.393 OA
HETATM   19  H           1     -21.579  -2.973 -13.848  0.00  0.00     0.210 HD
ENDBRANCH  16  18
ENDBRANCH  15  16
BRANCH  15  20
HETATM   20  C           1     -23.781  -4.043 -11.618  0.00  0.00     0.199 C 
HETATM   21  O           1     -24.793  -3.533 -12.146  0.00  0.00    -0.646 OA
HETATM   22  O           1     -23.639  -5.284 -11.609  0.00  0.00    -0.646 OA
ENDBRANCH  15  20
ENDBRANCH   3  15
TORSDOF 9
ENDMDL
MODEL 5
REMARK VINA RESULT:      -5.8     12.781     15.424
REMARK  9 active torsions:
REMARK  status: ('A' for Active; 'I' for Inactive)
REMARK    1  A    between atoms: N_2  and  C_18 
REMARK    2  A    between atoms: N_9  and  C_10 
REMARK       I    between atoms: N_9  and  C_22 
REMARK    3  A    between atoms: C_10  and  C_17 
REMARK    4  A    between atoms: C_10  and  C_11 
REMARK    5  A    between atoms: C_15  and  C_21 
REMARK    6  A    between atoms: O_16  and  C_17 
REMARK    7  A    between atoms: C_18  and  C_22 
REMARK    8  A    between atoms: C_18  and  C_19 
REMARK    9  A    between atoms: C_19  and  C_21 
ROOT
HETATM    1  O           1     -21.907  -3.302  -7.730  0.00  0.00    -0.271 OA
HETATM    2  H           1     -22.318  -6.408  -7.873  0.00  0.00     0.163 HD
HETATM    3  N           1     -21.943  -5.527  -7.546  0.00  0.00    -0.343 N 
HETATM    4  C           1     -22.354  -4.353  -8.119  0.00  0.00     0.249 C 
ENDROOT
BRANCH   4   5
HETATM    5  C           1     -23.368  -4.374  -9.236  0.00  0.00     0.275 C 
BRANCH   5   6
HETATM    6  N           1     -24.453  -3.380  -8.946  0.00  0.00    -0.066 N 
HETATM    7  H           1     -24.987  -3.683  -8.100  0.00  0.00     0.275 HD
HETATM    8  H           1     -24.028  -2.442  -8.770  0.00  0.00     0.275 HD
HETATM    9  H           1     -25.102  -3.323  -9.764  0.00  0.00     0.275 HD
ENDBRANCH   5   6
BRANCH   5  10
HETATM   10  C           1     -22.686  -4.011 -10.549  0.00  0.00     0.053 C 
BRANCH  10  11
HETATM   11  C           1     -23.427  -4.669 -11.705  0.00  0.00     0.115 C 
BRANCH  11  12
HETATM   12  C           1     -24.161  -3.616 -12.497  0.00  0.00     0.172 C 
HETATM   13  O           1     -23.834  -3.382 -13.682  0.00  0.00    -0.648 OA
HETATM   14  O           1     -25.098  -2.977 -11.970  0.00  0.00    -0.648 OA
ENDBRANCH  11  12
ENDBRANCH  10  11
ENDBRANCH   5  10
ENDBRANCH   4   5
BRANCH   3  15
HETATM   15  C           1     -20.969  -5.507  -6.472  0.00  0.00     0.214 C 
BRANCH  15  16
HETATM   16  C           1     -21.230  -6.673  -5.529  0.00  0.00     0.147 C 
HETATM   17  C           1     -22.530  -6.433  -4.773  0.00  0.00     0.042 C 
BRANCH  16  18
HETATM   18  O           1     -21.332  -7.859  -6.271  0.00  0.00    -0.393 OA
HETATM   19  H           1     -20.579  -8.383  -6.054  0.00  0.00     0.210 HD
ENDBRANCH  16  18
ENDBRANCH  15  16
BRANCH  15  20
HETATM   20  C           1     -19.580  -5.628  -7.052  0.00  0.00     0.199 C 
HETATM   21  O           1     -19.128  -6.752  -7.359  0.00  0.00    -0.646 OA
HETATM   22  O           1     -18.884  -4.605  -7.226  0.00  0.00    -0.646 OA
ENDBRANCH  15  20
ENDBRANCH   3  15
TORSDOF 9
ENDMDL
MODEL 6
REMARK VINA RESULT:      -5.6     13.538     16.461
REMARK  9 active torsions:
REMARK  status: ('A' for Active; 'I' for Inactive)
REMARK    1  A    between atoms: N_2  and  C_18 
REMARK    2  A    between atoms: N_9  and  C_10 
REMARK       I    between atoms: N_9  and  C_22 
REMARK    3  A    between atoms: C_10  and  C_17 
REMARK    4  A    between atoms: C_10  and  C_11 
REMARK    5  A    between atoms: C_15  and  C_21 
REMARK    6  A    between atoms: O_16  and  C_17 
REMARK    7  A    between atoms: C_18  and  C_22 
REMARK    8  A    between atoms: C_18  and  C_19 
REMARK    9  A    between atoms: C_19  and  C_21 
ROOT
HETATM    1  O           1     -19.518  -4.468  -5.919  0.00  0.00    -0.271 OA
HETATM    2  H           1     -22.008  -6.183  -6.757  0.00  0.00     0.163 HD
HETATM    3  N           1     -21.197  -5.910  -6.215  0.00  0.00    -0.343 N 
HETATM    4  C           1     -20.485  -4.793  -6.564  0.00  0.00     0.249 C 
ENDROOT
BRANCH   4   5
HETATM    5  C           1     -20.910  -3.970  -7.755  0.00  0.00     0.275 C 
BRANCH   5   6
HETATM    6  N           1     -20.119  -4.386  -8.959  0.00  0.00    -0.066 N 
HETATM    7  H           1     -19.239  -4.859  -8.653  0.00  0.00     0.275 HD
HETATM    8  H           1     -20.686  -5.048  -9.536  0.00  0.00     0.275 HD
HETATM    9  H           1     -19.880  -3.542  -9.528  0.00  0.00     0.275 HD
ENDBRANCH   5   6
BRANCH   5  10
HETATM   10  C           1     -22.393  -4.189  -8.021  0.00  0.00     0.053 C 
BRANCH  10  11
HETATM   11  C           1     -22.745  -3.655  -9.403  0.00  0.00     0.115 C 
BRANCH  11  12
HETATM   12  C           1     -24.229  -3.799  -9.636  0.00  0.00     0.172 C 
HETATM   13  O           1     -24.980  -2.807  -9.513  0.00  0.00    -0.648 OA
HETATM   14  O           1     -24.707  -4.910  -9.952  0.00  0.00    -0.648 OA
ENDBRANCH  11  12
ENDBRANCH  10  11
ENDBRANCH   5  10
ENDBRANCH   4   5
BRANCH   3  15
HETATM   15  C           1     -20.789  -6.702  -5.071  0.00  0.00     0.214 C 
BRANCH  15  16
HETATM   16  C           1     -21.960  -6.841  -4.108  0.00  0.00     0.147 C 
HETATM   17  C           1     -21.600  -6.197  -2.775  0.00  0.00     0.042 C 
BRANCH  16  18
HETATM   18  O           1     -23.087  -6.204  -4.647  0.00  0.00    -0.393 OA
HETATM   19  H           1     -22.851  -5.920  -5.514  0.00  0.00     0.210 HD
ENDBRANCH  16  18
ENDBRANCH  15  16
BRANCH  15  20
HETATM   20  C           1     -20.354  -8.070  -5.536  0.00  0.00     0.199 C 
HETATM   21  O           1     -21.180  -9.007  -5.581  0.00  0.00    -0.646 OA
HETATM   22  O           1     -19.168  -8.265  -5.879  0.00  0.00    -0.646 OA
ENDBRANCH  15  20
ENDBRANCH   3  15
TORSDOF 9
ENDMDL
MODEL 7
REMARK VINA RESULT:      -5.5     11.608     12.771
REMARK  9 active torsions:
REMARK  status: ('A' for Active; 'I' for Inactive)
REMARK    1  A    between atoms: N_2  and  C_18 
REMARK    2  A    between atoms: N_9  and  C_10 
REMARK       I    between atoms: N_9  and  C_22 
REMARK    3  A    between atoms: C_10  and  C_17 
REMARK    4  A    between atoms: C_10  and  C_11 
REMARK    5  A    between atoms: C_15  and  C_21 
REMARK    6  A    between atoms: O_16  and  C_17 
REMARK    7  A    between atoms: C_18  and  C_22 
REMARK    8  A    between atoms: C_18  and  C_19 
REMARK    9  A    between atoms: C_19  and  C_21 
ROOT
HETATM    1  O           1     -25.182  -3.357  -9.960  0.00  0.00    -0.271 OA
HETATM    2  H           1     -22.401  -3.415 -11.410  0.00  0.00     0.163 HD
HETATM    3  N           1     -23.408  -3.362 -11.315  0.00  0.00    -0.343 N 
HETATM    4  C           1     -23.982  -3.420 -10.073  0.00  0.00     0.249 C 
ENDROOT
BRANCH   4   5
HETATM    5  C           1     -23.114  -3.562  -8.847  0.00  0.00     0.275 C 
BRANCH   5   6
HETATM    6  N           1     -23.924  -4.141  -7.726  0.00  0.00    -0.066 N 
HETATM    7  H           1     -24.873  -3.705  -7.718  0.00  0.00     0.275 HD
HETATM    8  H           1     -24.017  -5.174  -7.861  0.00  0.00     0.275 HD
HETATM    9  H           1     -23.446  -3.950  -6.816  0.00  0.00     0.275 HD
ENDBRANCH   5   6
BRANCH   5  10
HETATM   10  C           1     -21.943  -4.486  -9.157  0.00  0.00     0.053 C 
BRANCH  10  11
HETATM   11  C           1     -20.846  -4.280  -8.121  0.00  0.00     0.115 C 
BRANCH  11  12
HETATM   12  C           1     -20.771  -5.488  -7.220  0.00  0.00     0.172 C 
HETATM   13  O           1     -19.858  -6.328  -7.375  0.00  0.00    -0.648 OA
HETATM   14  O           1     -21.623  -5.649  -6.319  0.00  0.00    -0.648 OA
ENDBRANCH  11  12
ENDBRANCH  10  11
ENDBRANCH   5  10
ENDBRANCH   4   5
BRANCH   3  15
HETATM   15  C           1     -24.241  -3.226 -12.493  0.00  0.00     0.214 C 
BRANCH  15  16
HETATM   16  C           1     -23.647  -2.170 -13.415  0.00  0.00     0.147 C 
HETATM   17  C           1     -22.706  -2.837 -14.410  0.00  0.00     0.042 C 
BRANCH  16  18
HETATM   18  O           1     -24.679  -1.522 -14.109  0.00  0.00    -0.393 OA
HETATM   19  H           1     -24.464  -1.569 -15.025  0.00  0.00     0.210 HD
ENDBRANCH  16  18
ENDBRANCH  15  16
BRANCH  15  20
HETATM   20  C           1     -24.307  -4.548 -13.218  0.00  0.00     0.199 C 
HETATM   21  O           1     -24.766  -4.602 -14.380  0.00  0.00    -0.646 OA
HETATM   22  O           1     -23.900  -5.588 -12.658  0.00  0.00    -0.646 OA
ENDBRANCH  15  20
ENDBRANCH   3  15
TORSDOF 9
ENDMDL
MODEL 8
REMARK VINA RESULT:      -5.5     24.587     26.315
REMARK  9 active torsions:
REMARK  status: ('A' for Active; 'I' for Inactive)
REMARK    1  A    between atoms: N_2  and  C_18 
REMARK    2  A    between atoms: N_9  and  C_10 
REMARK       I    between atoms: N_9  and  C_22 
REMARK    3  A    between atoms: C_10  and  C_17 
REMARK    4  A    between atoms: C_10  and  C_11 
REMARK    5  A    between atoms: C_15  and  C_21 
REMARK    6  A    between atoms: O_16  and  C_17 
REMARK    7  A    between atoms: C_18  and  C_22 
REMARK    8  A    between atoms: C_18  and  C_19 
REMARK    9  A    between atoms: C_19  and  C_21 
ROOT
HETATM    1  O           1     -12.123   5.017 -18.998  0.00  0.00    -0.271 OA
HETATM    2  H           1     -11.565   6.235 -21.834  0.00  0.00     0.163 HD
HETATM    3  N           1     -12.041   5.692 -21.124  0.00  0.00    -0.343 N 
HETATM    4  C           1     -11.555   5.664 -19.844  0.00  0.00     0.249 C 
ENDROOT
BRANCH   4   5
HETATM    5  C           1     -10.313   6.443 -19.491  0.00  0.00     0.275 C 
BRANCH   5   6
HETATM    6  N           1      -9.533   5.696 -18.450  0.00  0.00    -0.066 N 
HETATM    7  H           1      -8.572   6.101 -18.376  0.00  0.00     0.275 HD
HETATM    8  H           1     -10.016   5.778 -17.528  0.00  0.00     0.275 HD
HETATM    9  H           1      -9.466   4.688 -18.722  0.00  0.00     0.275 HD
ENDBRANCH   5   6
BRANCH   5  10
HETATM   10  C           1      -9.454   6.622 -20.737  0.00  0.00     0.053 C 
BRANCH  10  11
HETATM   11  C           1      -9.163   8.102 -20.945  0.00  0.00     0.115 C 
BRANCH  11  12
HETATM   12  C           1     -10.423   8.806 -21.383  0.00  0.00     0.172 C 
HETATM   13  O           1     -10.739   9.901 -20.869  0.00  0.00    -0.648 OA
HETATM   14  O           1     -11.153   8.295 -22.260  0.00  0.00    -0.648 OA
ENDBRANCH  11  12
ENDBRANCH  10  11
ENDBRANCH   5  10
ENDBRANCH   4   5
BRANCH   3  15
HETATM   15  C           1     -13.236   4.945 -21.463  0.00  0.00     0.214 C 
BRANCH  15  16
HETATM   16  C           1     -14.008   5.686 -22.546  0.00  0.00     0.147 C 
HETATM   17  C           1     -15.466   5.246 -22.521  0.00  0.00     0.042 C 
BRANCH  16  18
HETATM   18  O           1     -13.931   7.066 -22.312  0.00  0.00    -0.393 OA
HETATM   19  H           1     -13.278   7.407 -22.900  0.00  0.00     0.210 HD
ENDBRANCH  16  18
ENDBRANCH  15  16
BRANCH  15  20
HETATM   20  C           1     -12.846   3.577 -21.969  0.00  0.00     0.199 C 
HETATM   21  O           1     -12.017   3.468 -22.898  0.00  0.00    -0.646 OA
HETATM   22  O           1     -13.349   2.555 -21.457  0.00  0.00    -0.646 OA
ENDBRANCH  15  20
ENDBRANCH   3  15
TORSDOF 9
ENDMDL
MODEL 9
REMARK VINA RESULT:      -5.5     14.531     16.934
REMARK  9 active torsions:
REMARK  status: ('A' for Active; 'I' for Inactive)
REMARK    1  A    between atoms: N_2  and  C_18 
REMARK    2  A    between atoms: N_9  and  C_10 
REMARK       I    between atoms: N_9  and  C_22 
REMARK    3  A    between atoms: C_10  and  C_17 
REMARK    4  A    between atoms: C_10  and  C_11 
REMARK    5  A    between atoms: C_15  and  C_21 
REMARK    6  A    between atoms: O_16  and  C_17 
REMARK    7  A    between atoms: C_18  and  C_22 
REMARK    8  A    between atoms: C_18  and  C_19 
REMARK    9  A    between atoms: C_19  and  C_21 
ROOT
HETATM    1  O           1     -21.491  -7.694  -5.044  0.00  0.00    -0.271 OA
HETATM    2  H           1     -21.526  -4.580  -4.668  0.00  0.00     0.163 HD
HETATM    3  N           1     -21.543  -5.465  -5.159  0.00  0.00    -0.343 N 
HETATM    4  C           1     -21.470  -6.639  -4.458  0.00  0.00     0.249 C 
ENDROOT
BRANCH   4   5
HETATM    5  C           1     -21.364  -6.613  -2.954  0.00  0.00     0.275 C 
BRANCH   5   6
HETATM    6  N           1     -22.483  -5.791  -2.387  0.00  0.00    -0.066 N 
HETATM    7  H           1     -22.101  -4.897  -2.005  0.00  0.00     0.275 HD
HETATM    8  H           1     -23.176  -5.580  -3.141  0.00  0.00     0.275 HD
HETATM    9  H           1     -22.953  -6.324  -1.620  0.00  0.00     0.275 HD
ENDBRANCH   5   6
BRANCH   5  10
HETATM   10  C           1     -21.454  -8.034  -2.413  0.00  0.00     0.053 C 
BRANCH  10  11
HETATM   11  C           1     -21.232  -8.020  -0.907  0.00  0.00     0.115 C 
BRANCH  11  12
HETATM   12  C           1     -22.515  -8.392  -0.205  0.00  0.00     0.172 C 
HETATM   13  O           1     -23.354  -7.508   0.075  0.00  0.00    -0.648 OA
HETATM   14  O           1     -22.739  -9.584   0.097  0.00  0.00    -0.648 OA
ENDBRANCH  11  12
ENDBRANCH  10  11
ENDBRANCH   5  10
ENDBRANCH   4   5
BRANCH   3  15
HETATM   15  C           1     -21.646  -5.489  -6.606  0.00  0.00     0.214 C 
BRANCH  15  16
HETATM   16  C           1     -22.546  -4.352  -7.069  0.00  0.00     0.147 C 
HETATM   17  C           1     -22.590  -4.328  -8.591  0.00  0.00     0.042 C 
BRANCH  16  18
HETATM   18  O           1     -23.841  -4.548  -6.567  0.00  0.00    -0.393 OA
HETATM   19  H           1     -23.794  -5.268  -5.962  0.00  0.00     0.210 HD
ENDBRANCH  16  18
ENDBRANCH  15  16
BRANCH  15  20
HETATM   20  C           1     -20.273  -5.322  -7.209  0.00  0.00     0.199 C 
HETATM   21  O           1     -19.535  -4.386  -6.833  0.00  0.00    -0.646 OA
HETATM   22  O           1     -19.873  -6.121  -8.083  0.00  0.00    -0.646 OA
ENDBRANCH  15  20
ENDBRANCH   3  15
TORSDOF 9
ENDMDL
