MODEL 1
REMARK VINA RESULT:      -8.4      0.000      0.000
REMARK  11 active torsions:
REMARK  status: ('A' for Active; 'I' for Inactive)
REMARK    1  A    between atoms: C_1  and  C_2 
REMARK    2  A    between atoms: C_2  and  C_3 
REMARK    3  A    between atoms: C_3  and  C_27 
REMARK    4  A    between atoms: C_3  and  N_4 
REMARK       I    between atoms: N_4  and  C_22 
REMARK    5  A    between atoms: O_8  and  P_9 
REMARK    6  A    between atoms: P_9  and  O_10 
REMARK    7  A    between atoms: O_10  and  C_23 
REMARK    8  A    between atoms: N_14  and  C_30 
REMARK    9  A    between atoms: C_22  and  C_30 
REMARK   10  A    between atoms: C_30  and  C_31 
REMARK   11  A    between atoms: C_31  and  C_32 
ROOT
HETATM    1  C           1     -21.577  -5.508  -6.627  0.00  0.00     0.189 C 
ENDROOT
BRANCH   1   2
HETATM    2  C           1     -21.927  -4.112  -7.125  0.00  0.00     0.074 C 
BRANCH   2   3
HETATM    3  C           1     -22.390  -4.191  -8.547  0.00  0.00    -0.056 A 
HETATM    4  C           1     -21.462  -4.356  -9.574  0.00  0.00     0.010 A 
HETATM    5  C           1     -21.893  -4.428 -10.899  0.00  0.00     0.038 A 
HETATM    6  C           1     -23.253  -4.337 -11.195  0.00  0.00     0.081 A 
HETATM    7  C           1     -24.182  -4.172 -10.168  0.00  0.00     0.038 A 
HETATM    8  C           1     -23.750  -4.099  -8.843  0.00  0.00     0.010 A 
BRANCH   6   9
HETATM    9  O           1     -23.672  -4.408 -12.482  0.00  0.00    -0.247 OA
BRANCH   9  10
HETATM   10  P           1     -24.005  -3.025 -13.247  0.00  0.00     0.411 P 
HETATM   11  O           1     -23.754  -3.190 -14.696  0.00  0.00    -0.624 OA
HETATM   12  O           1     -25.426  -2.670 -13.031  0.00  0.00    -0.624 OA
BRANCH  10  13
HETATM   13  O           1     -23.063  -1.849 -12.666  0.00  0.00    -0.300 OA
HETATM   14  H           1     -22.258  -2.277 -12.428  0.00  0.00     0.223 HD
ENDBRANCH  10  13
ENDBRANCH   9  10
ENDBRANCH   6   9
ENDBRANCH   2   3
ENDBRANCH   1   2
BRANCH   1  15
HETATM   15  C           1     -20.083  -5.617  -6.443  0.00  0.00     0.197 C 
HETATM   16  O           1     -19.437  -4.647  -5.992  0.00  0.00    -0.646 OA
HETATM   17  O           1     -19.491  -6.677  -6.743  0.00  0.00    -0.646 OA
ENDBRANCH   1  15
BRANCH   1  18
HETATM   18  N           1     -22.238  -5.748  -5.359  0.00  0.00    -0.344 N 
HETATM   19  C           1     -21.584  -6.422  -4.363  0.00  0.00     0.249 C 
HETATM   20  O           1     -20.919  -5.816  -3.557  0.00  0.00    -0.271 OA
HETATM   21  H           1     -23.182  -5.415  -5.210  0.00  0.00     0.163 HD
BRANCH  19  22
HETATM   22  C           1     -21.695  -7.925  -4.272  0.00  0.00     0.280 C 
BRANCH  22  23
HETATM   23  N           1     -21.227  -8.539  -5.559  0.00  0.00    -0.066 N 
HETATM   24  H           1     -21.393  -9.570  -5.532  0.00  0.00     0.275 HD
HETATM   25  H           1     -20.206  -8.354  -5.681  0.00  0.00     0.275 HD
HETATM   26  H           1     -21.755  -8.120  -6.357  0.00  0.00     0.275 HD
ENDBRANCH  22  23
BRANCH  22  27
HETATM   27  C           1     -20.828  -8.429  -3.126  0.00  0.00     0.101 C 
BRANCH  27  28
HETATM   28  C           1     -21.650  -8.509  -1.877  0.00  0.00     0.028 A 
HETATM   29  N           1     -21.983  -7.436  -1.093  0.00  0.00    -0.355 N 
HETATM   30  C           1     -22.699  -7.932  -0.111  0.00  0.00     0.180 A 
ATOM     31  HN          1     -21.729  -6.459  -1.241  1.00  0.00     0.166 HD
HETATM   32  N           1     -22.842  -9.286  -0.230  0.00  0.00    -0.360 N 
HETATM   33  H           1     -23.367  -9.916   0.426  0.00  0.00     0.166 HD
HETATM   34  C           1     -22.173  -9.671  -1.359  0.00  0.00     0.114 A 
ENDBRANCH  27  28
ENDBRANCH  22  27
ENDBRANCH  19  22
ENDBRANCH   1  18
TORSDOF 11
ENDMDL
MODEL 2
REMARK VINA RESULT:      -8.0      1.561      2.410
REMARK  11 active torsions:
REMARK  status: ('A' for Active; 'I' for Inactive)
REMARK    1  A    between atoms: C_1  and  C_2 
REMARK    2  A    between atoms: C_2  and  C_3 
REMARK    3  A    between atoms: C_3  and  C_27 
REMARK    4  A    between atoms: C_3  and  N_4 
REMARK       I    between atoms: N_4  and  C_22 
REMARK    5  A    between atoms: O_8  and  P_9 
REMARK    6  A    between atoms: P_9  and  O_10 
REMARK    7  A    between atoms: O_10  and  C_23 
REMARK    8  A    between atoms: N_14  and  C_30 
REMARK    9  A    between atoms: C_22  and  C_30 
REMARK   10  A    between atoms: C_30  and  C_31 
REMARK   11  A    between atoms: C_31  and  C_32 
ROOT
HETATM    1  C           1     -21.804  -6.508  -5.685  0.00  0.00     0.189 C 
ENDROOT
BRANCH   1   2
HETATM    2  C           1     -20.947  -5.285  -5.987  0.00  0.00     0.074 C 
BRANCH   2   3
HETATM    3  C           1     -21.311  -4.740  -7.333  0.00  0.00    -0.056 A 
HETATM    4  C           1     -22.577  -4.195  -7.546  0.00  0.00     0.010 A 
HETATM    5  C           1     -22.917  -3.689  -8.801  0.00  0.00     0.038 A 
HETATM    6  C           1     -21.989  -3.727  -9.842  0.00  0.00     0.081 A 
HETATM    7  C           1     -20.723  -4.272  -9.630  0.00  0.00     0.038 A 
HETATM    8  C           1     -20.384  -4.779  -8.374  0.00  0.00     0.010 A 
BRANCH   6   9
HETATM    9  O           1     -22.319  -3.235 -11.061  0.00  0.00    -0.247 OA
BRANCH   9  10
HETATM   10  P           1     -23.599  -3.870 -11.813  0.00  0.00     0.411 P 
HETATM   11  O           1     -23.728  -5.298 -11.448  0.00  0.00    -0.624 OA
HETATM   12  O           1     -24.823  -3.144 -11.406  0.00  0.00    -0.624 OA
BRANCH  10  13
HETATM   13  O           1     -23.403  -3.737 -13.411  0.00  0.00    -0.300 OA
HETATM   14  H           1     -22.791  -3.030 -13.524  0.00  0.00     0.223 HD
ENDBRANCH  10  13
ENDBRANCH   9  10
ENDBRANCH   6   9
ENDBRANCH   2   3
ENDBRANCH   1   2
BRANCH   1  15
HETATM   15  C           1     -20.945  -7.748  -5.734  0.00  0.00     0.197 C 
HETATM   16  O           1     -19.700  -7.647  -5.690  0.00  0.00    -0.646 OA
HETATM   17  O           1     -21.479  -8.875  -5.817  0.00  0.00    -0.646 OA
ENDBRANCH   1  15
BRANCH   1  18
HETATM   18  N           1     -22.385  -6.375  -4.364  0.00  0.00    -0.344 N 
HETATM   19  C           1     -21.601  -6.529  -3.252  0.00  0.00     0.249 C 
HETATM   20  O           1     -21.039  -5.574  -2.770  0.00  0.00    -0.271 OA
HETATM   21  H           1     -23.370  -6.166  -4.263  0.00  0.00     0.163 HD
BRANCH  19  22
HETATM   22  C           1     -21.438  -7.894  -2.628  0.00  0.00     0.280 C 
BRANCH  22  23
HETATM   23  N           1     -19.986  -8.272  -2.627  0.00  0.00    -0.066 N 
HETATM   24  H           1     -19.691  -8.514  -1.655  0.00  0.00     0.275 HD
HETATM   25  H           1     -19.417  -7.466  -2.973  0.00  0.00     0.275 HD
HETATM   26  H           1     -19.840  -9.096  -3.253  0.00  0.00     0.275 HD
ENDBRANCH  22  23
BRANCH  22  27
HETATM   27  C           1     -21.954  -7.862  -1.196  0.00  0.00     0.101 C 
BRANCH  27  28
HETATM   28  C           1     -21.958  -9.251  -0.636  0.00  0.00     0.028 A 
HETATM   29  N           1     -22.696 -10.291  -1.137  0.00  0.00    -0.355 N 
HETATM   30  C           1     -22.415 -11.318  -0.368  0.00  0.00     0.180 A 
ATOM     31  HN          1     -23.328 -10.272  -1.937  1.00  0.00     0.166 HD
HETATM   32  N           1     -21.523 -10.980   0.611  0.00  0.00    -0.360 N 
HETATM   33  H           1     -21.142 -11.620   1.351  0.00  0.00     0.166 HD
HETATM   34  C           1     -21.221  -9.656   0.452  0.00  0.00     0.114 A 
ENDBRANCH  27  28
ENDBRANCH  22  27
ENDBRANCH  19  22
ENDBRANCH   1  18
TORSDOF 11
ENDMDL
MODEL 3
REMARK VINA RESULT:      -7.9      4.582      9.270
REMARK  11 active torsions:
REMARK  status: ('A' for Active; 'I' for Inactive)
REMARK    1  A    between atoms: C_1  and  C_2 
REMARK    2  A    between atoms: C_2  and  C_3 
REMARK    3  A    between atoms: C_3  and  C_27 
REMARK    4  A    between atoms: C_3  and  N_4 
REMARK       I    between atoms: N_4  and  C_22 
REMARK    5  A    between atoms: O_8  and  P_9 
REMARK    6  A    between atoms: P_9  and  O_10 
REMARK    7  A    between atoms: O_10  and  C_23 
REMARK    8  A    between atoms: N_14  and  C_30 
REMARK    9  A    between atoms: C_22  and  C_30 
REMARK   10  A    between atoms: C_30  and  C_31 
REMARK   11  A    between atoms: C_31  and  C_32 
ROOT
HETATM    1  C           1     -20.644  -4.840  -6.613  0.00  0.00     0.189 C 
ENDROOT
BRANCH   1   2
HETATM    2  C           1     -21.219  -6.248  -6.525  0.00  0.00     0.074 C 
BRANCH   2   3
HETATM    3  C           1     -21.076  -6.757  -5.124  0.00  0.00    -0.056 A 
HETATM    4  C           1     -20.652  -8.066  -4.898  0.00  0.00     0.010 A 
HETATM    5  C           1     -20.520  -8.541  -3.593  0.00  0.00     0.038 A 
HETATM    6  C           1     -20.809  -7.706  -2.514  0.00  0.00     0.081 A 
HETATM    7  C           1     -21.233  -6.397  -2.740  0.00  0.00     0.038 A 
HETATM    8  C           1     -21.367  -5.922  -4.046  0.00  0.00     0.010 A 
BRANCH   6   9
HETATM    9  O           1     -20.681  -8.167  -1.247  0.00  0.00    -0.247 OA
BRANCH   9  10
HETATM   10  P           1     -22.023  -8.353  -0.368  0.00  0.00     0.411 P 
HETATM   11  O           1     -22.863  -7.141  -0.488  0.00  0.00    -0.624 OA
HETATM   12  O           1     -22.778  -9.527  -0.860  0.00  0.00    -0.624 OA
BRANCH  10  13
HETATM   13  O           1     -21.624  -8.581   1.181  0.00  0.00    -0.300 OA
HETATM   14  H           1     -20.725  -8.304   1.244  0.00  0.00     0.223 HD
ENDBRANCH  10  13
ENDBRANCH   9  10
ENDBRANCH   6   9
ENDBRANCH   2   3
ENDBRANCH   1   2
BRANCH   1  15
HETATM   15  C           1     -19.638  -4.778  -7.737  0.00  0.00     0.197 C 
HETATM   16  O           1     -18.540  -4.208  -7.562  0.00  0.00    -0.646 OA
HETATM   17  O           1     -19.904  -5.296  -8.843  0.00  0.00    -0.646 OA
ENDBRANCH   1  15
BRANCH   1  18
HETATM   18  N           1     -21.715  -3.897  -6.871  0.00  0.00    -0.344 N 
HETATM   19  C           1     -22.896  -4.333  -7.408  0.00  0.00     0.249 C 
HETATM   20  O           1     -23.794  -4.691  -6.685  0.00  0.00    -0.271 OA
HETATM   21  H           1     -21.589  -2.917  -6.653  0.00  0.00     0.163 HD
BRANCH  19  22
HETATM   22  C           1     -23.076  -4.365  -8.907  0.00  0.00     0.280 C 
BRANCH  22  23
HETATM   23  N           1     -24.541  -4.386  -9.232  0.00  0.00    -0.066 N 
HETATM   24  H           1     -25.075  -3.928  -8.460  0.00  0.00     0.275 HD
HETATM   25  H           1     -24.860  -5.375  -9.336  0.00  0.00     0.275 HD
HETATM   26  H           1     -24.707  -3.870 -10.126  0.00  0.00     0.275 HD
ENDBRANCH  22  23
BRANCH  22  27
HETATM   27  C           1     -22.438  -3.126  -9.522  0.00  0.00     0.101 C 
BRANCH  27  28
HETATM   28  C           1     -22.491  -3.228 -11.015  0.00  0.00     0.028 A 
HETATM   29  N           1     -23.428  -2.615 -11.805  0.00  0.00    -0.355 N 
HETATM   30  C           1     -23.120  -2.956 -13.035  0.00  0.00     0.180 A 
ATOM     31  HN          1     -24.200  -2.021 -11.502  1.00  0.00     0.166 HD
HETATM   32  N           1     -22.020  -3.765 -13.070  0.00  0.00    -0.360 N 
HETATM   33  H           1     -21.575  -4.173 -13.929  0.00  0.00     0.166 HD
HETATM   34  C           1     -21.605  -3.949 -11.780  0.00  0.00     0.114 A 
ENDBRANCH  27  28
ENDBRANCH  22  27
ENDBRANCH  19  22
ENDBRANCH   1  18
TORSDOF 11
ENDMDL
MODEL 4
REMARK VINA RESULT:      -7.3      5.040      9.697
REMARK  11 active torsions:
REMARK  status: ('A' for Active; 'I' for Inactive)
REMARK    1  A    between atoms: C_1  and  C_2 
REMARK    2  A    between atoms: C_2  and  C_3 
REMARK    3  A    between atoms: C_3  and  C_27 
REMARK    4  A    between atoms: C_3  and  N_4 
REMARK       I    between atoms: N_4  and  C_22 
REMARK    5  A    between atoms: O_8  and  P_9 
REMARK    6  A    between atoms: P_9  and  O_10 
REMARK    7  A    between atoms: O_10  and  C_23 
REMARK    8  A    between atoms: N_14  and  C_30 
REMARK    9  A    between atoms: C_22  and  C_30 
REMARK   10  A    between atoms: C_30  and  C_31 
REMARK   11  A    between atoms: C_31  and  C_32 
ROOT
HETATM    1  C           1     -19.946  -7.851  -5.251  0.00  0.00     0.189 C 
ENDROOT
BRANCH   1   2
HETATM    2  C           1     -21.297  -8.551  -5.334  0.00  0.00     0.074 C 
BRANCH   2   3
HETATM    3  C           1     -21.616  -9.175  -4.011  0.00  0.00    -0.056 A 
HETATM    4  C           1     -21.431  -8.450  -2.834  0.00  0.00     0.010 A 
HETATM    5  C           1     -21.727  -9.032  -1.602  0.00  0.00     0.038 A 
HETATM    6  C           1     -22.213 -10.339  -1.547  0.00  0.00     0.081 A 
HETATM    7  C           1     -22.399 -11.064  -2.723  0.00  0.00     0.038 A 
HETATM    8  C           1     -22.101 -10.482  -3.956  0.00  0.00     0.010 A 
BRANCH   6   9
HETATM    9  O           1     -22.501 -10.904  -0.349  0.00  0.00    -0.247 OA
BRANCH   9  10
HETATM   10  P           1     -21.291 -11.577   0.482  0.00  0.00     0.411 P 
HETATM   11  O           1     -20.275 -12.097  -0.459  0.00  0.00    -0.624 OA
HETATM   12  O           1     -20.672 -10.561   1.364  0.00  0.00    -0.624 OA
BRANCH  10  13
HETATM   13  O           1     -21.866 -12.790   1.381  0.00  0.00    -0.300 OA
HETATM   14  H           1     -21.110 -13.162   1.802  0.00  0.00     0.223 HD
ENDBRANCH  10  13
ENDBRANCH   9  10
ENDBRANCH   6   9
ENDBRANCH   2   3
ENDBRANCH   1   2
BRANCH   1  15
HETATM   15  C           1     -18.844  -8.883  -5.267  0.00  0.00     0.197 C 
HETATM   16  O           1     -18.533  -9.448  -6.337  0.00  0.00    -0.646 OA
HETATM   17  O           1     -18.242  -9.171  -4.210  0.00  0.00    -0.646 OA
ENDBRANCH   1  15
BRANCH   1  18
HETATM   18  N           1     -19.792  -6.964  -6.388  0.00  0.00    -0.344 N 
HETATM   19  C           1     -20.300  -5.694  -6.338  0.00  0.00     0.249 C 
HETATM   20  O           1     -19.620  -4.786  -5.923  0.00  0.00    -0.271 OA
HETATM   21  H           1     -19.309  -7.284  -7.218  0.00  0.00     0.163 HD
BRANCH  19  22
HETATM   22  C           1     -21.711  -5.428  -6.804  0.00  0.00     0.280 C 
BRANCH  22  23
HETATM   23  N           1     -22.645  -5.498  -5.630  0.00  0.00    -0.066 N 
HETATM   24  H           1     -22.939  -4.532  -5.363  0.00  0.00     0.275 HD
HETATM   25  H           1     -22.156  -5.948  -4.824  0.00  0.00     0.275 HD
HETATM   26  H           1     -23.486  -6.062  -5.888  0.00  0.00     0.275 HD
ENDBRANCH  22  23
BRANCH  22  27
HETATM   27  C           1     -21.787  -4.041  -7.428  0.00  0.00     0.101 C 
BRANCH  27  28
HETATM   28  C           1     -22.729  -4.068  -8.591  0.00  0.00     0.028 A 
HETATM   29  N           1     -24.061  -3.751  -8.523  0.00  0.00    -0.355 N 
HETATM   30  C           1     -24.517  -3.902  -9.745  0.00  0.00     0.180 A 
ATOM     31  HN          1     -24.586  -3.460  -7.698  1.00  0.00     0.166 HD
HETATM   32  N           1     -23.530  -4.303 -10.600  0.00  0.00    -0.360 N 
HETATM   33  H           1     -23.638  -4.494 -11.628  0.00  0.00     0.166 HD
HETATM   34  C           1     -22.377  -4.415  -9.874  0.00  0.00     0.114 A 
ENDBRANCH  27  28
ENDBRANCH  22  27
ENDBRANCH  19  22
ENDBRANCH   1  18
TORSDOF 11
ENDMDL
MODEL 5
REMARK VINA RESULT:      -7.2      4.941      9.855
REMARK  11 active torsions:
REMARK  status: ('A' for Active; 'I' for Inactive)
REMARK    1  A    between atoms: C_1  and  C_2 
REMARK    2  A    between atoms: C_2  and  C_3 
REMARK    3  A    between atoms: C_3  and  C_27 
REMARK    4  A    between atoms: C_3  and  N_4 
REMARK       I    between atoms: N_4  and  C_22 
REMARK    5  A    between atoms: O_8  and  P_9 
REMARK    6  A    between atoms: P_9  and  O_10 
REMARK    7  A    between atoms: O_10  and  C_23 
REMARK    8  A    between atoms: N_14  and  C_30 
REMARK    9  A    between atoms: C_22  and  C_30 
REMARK   10  A    between atoms: C_30  and  C_31 
REMARK   11  A    between atoms: C_31  and  C_32 
ROOT
HETATM    1  C           1     -21.289  -7.253  -5.815  0.00  0.00     0.189 C 
ENDROOT
BRANCH   1   2
HETATM    2  C           1     -20.141  -7.790  -4.970  0.00  0.00     0.074 C 
BRANCH   2   3
HETATM    3  C           1     -20.692  -8.516  -3.783  0.00  0.00    -0.056 A 
HETATM    4  C           1     -20.381  -8.085  -2.494  0.00  0.00     0.010 A 
HETATM    5  C           1     -20.894  -8.762  -1.388  0.00  0.00     0.038 A 
HETATM    6  C           1     -21.720  -9.871  -1.572  0.00  0.00     0.081 A 
HETATM    7  C           1     -22.032 -10.303  -2.860  0.00  0.00     0.038 A 
HETATM    8  C           1     -21.518  -9.626  -3.967  0.00  0.00     0.010 A 
BRANCH   6   9
HETATM    9  O           1     -22.219 -10.529  -0.497  0.00  0.00    -0.247 OA
BRANCH   9  10
HETATM   10  P           1     -21.205 -11.435   0.374  0.00  0.00     0.411 P 
HETATM   11  O           1     -20.191 -12.039  -0.519  0.00  0.00    -0.624 OA
HETATM   12  O           1     -20.531 -10.591   1.386  0.00  0.00    -0.624 OA
BRANCH  10  13
HETATM   13  O           1     -22.034 -12.606   1.117  0.00  0.00    -0.300 OA
HETATM   14  H           1     -22.196 -12.277   1.985  0.00  0.00     0.223 HD
ENDBRANCH  10  13
ENDBRANCH   9  10
ENDBRANCH   6   9
ENDBRANCH   2   3
ENDBRANCH   1   2
BRANCH   1  15
HETATM   15  C           1     -21.980  -6.135  -5.071  0.00  0.00     0.197 C 
HETATM   16  O           1     -21.308  -5.326  -4.395  0.00  0.00    -0.646 OA
HETATM   17  O           1     -23.223  -6.019  -5.132  0.00  0.00    -0.646 OA
ENDBRANCH   1  15
BRANCH   1  18
HETATM   18  N           1     -20.769  -6.747  -7.070  0.00  0.00    -0.344 N 
HETATM   19  C           1     -20.532  -5.408  -7.223  0.00  0.00     0.249 C 
HETATM   20  O           1     -19.452  -4.948  -6.939  0.00  0.00    -0.271 OA
HETATM   21  H           1     -20.580  -7.385  -7.833  0.00  0.00     0.163 HD
BRANCH  19  22
HETATM   22  C           1     -21.622  -4.505  -7.749  0.00  0.00     0.280 C 
BRANCH  22  23
HETATM   23  N           1     -21.598  -3.206  -6.996  0.00  0.00    -0.066 N 
HETATM   24  H           1     -22.266  -3.258  -6.194  0.00  0.00     0.275 HD
HETATM   25  H           1     -21.882  -2.430  -7.635  0.00  0.00     0.275 HD
HETATM   26  H           1     -20.633  -3.028  -6.638  0.00  0.00     0.275 HD
ENDBRANCH  22  23
BRANCH  22  27
HETATM   27  C           1     -21.389  -4.236  -9.229  0.00  0.00     0.101 C 
BRANCH  27  28
HETATM   28  C           1     -22.695  -3.918  -9.890  0.00  0.00     0.028 A 
HETATM   29  N           1     -22.823  -3.290 -11.101  0.00  0.00    -0.355 N 
HETATM   30  C           1     -24.116  -3.205 -11.313  0.00  0.00     0.180 A 
ATOM     31  HN          1     -22.073  -2.959 -11.709  1.00  0.00     0.166 HD
HETATM   32  N           1     -24.828  -3.755 -10.285  0.00  0.00    -0.360 N 
HETATM   33  H           1     -25.874  -3.811 -10.214  0.00  0.00     0.166 HD
HETATM   34  C           1     -23.929  -4.216  -9.363  0.00  0.00     0.114 A 
ENDBRANCH  27  28
ENDBRANCH  22  27
ENDBRANCH  19  22
ENDBRANCH   1  18
TORSDOF 11
ENDMDL
MODEL 6
REMARK VINA RESULT:      -7.1      4.781      8.682
REMARK  11 active torsions:
REMARK  status: ('A' for Active; 'I' for Inactive)
REMARK    1  A    between atoms: C_1  and  C_2 
REMARK    2  A    between atoms: C_2  and  C_3 
REMARK    3  A    between atoms: C_3  and  C_27 
REMARK    4  A    between atoms: C_3  and  N_4 
REMARK       I    between atoms: N_4  and  C_22 
REMARK    5  A    between atoms: O_8  and  P_9 
REMARK    6  A    between atoms: P_9  and  O_10 
REMARK    7  A    between atoms: O_10  and  C_23 
REMARK    8  A    between atoms: N_14  and  C_30 
REMARK    9  A    between atoms: C_22  and  C_30 
REMARK   10  A    between atoms: C_30  and  C_31 
REMARK   11  A    between atoms: C_31  and  C_32 
ROOT
HETATM    1  C           1     -21.401  -7.713  -2.404  0.00  0.00     0.189 C 
ENDROOT
BRANCH   1   2
HETATM    2  C           1     -19.949  -8.009  -2.050  0.00  0.00     0.074 C 
BRANCH   2   3
HETATM    3  C           1     -19.476  -9.194  -2.833  0.00  0.00    -0.056 A 
HETATM    4  C           1     -20.395 -10.131  -3.303  0.00  0.00     0.010 A 
HETATM    5  C           1     -19.955 -11.236  -4.031  0.00  0.00     0.038 A 
HETATM    6  C           1     -18.594 -11.402  -4.292  0.00  0.00     0.081 A 
HETATM    7  C           1     -17.675 -10.465  -3.822  0.00  0.00     0.038 A 
HETATM    8  C           1     -18.116  -9.360  -3.092  0.00  0.00     0.010 A 
BRANCH   6   9
HETATM    9  O           1     -18.166 -12.475  -5.000  0.00  0.00    -0.247 OA
BRANCH   9  10
HETATM   10  P           1     -17.772 -12.252  -6.550  0.00  0.00     0.411 P 
HETATM   11  O           1     -16.343 -11.880  -6.648  0.00  0.00    -0.624 OA
HETATM   12  O           1     -18.008 -13.503  -7.306  0.00  0.00    -0.624 OA
BRANCH  10  13
HETATM   13  O           1     -18.681 -11.070  -7.171  0.00  0.00    -0.300 OA
HETATM   14  H           1     -19.307 -10.864  -6.497  0.00  0.00     0.223 HD
ENDBRANCH  10  13
ENDBRANCH   9  10
ENDBRANCH   6   9
ENDBRANCH   2   3
ENDBRANCH   1   2
BRANCH   1  15
HETATM   15  C           1     -22.241  -7.745  -1.150  0.00  0.00     0.197 C 
HETATM   16  O           1     -22.495  -8.837  -0.598  0.00  0.00    -0.646 OA
HETATM   17  O           1     -22.682  -6.681  -0.665  0.00  0.00    -0.646 OA
ENDBRANCH   1  15
BRANCH   1  18
HETATM   18  N           1     -21.490  -6.399  -3.010  0.00  0.00    -0.344 N 
HETATM   19  C           1     -21.708  -6.280  -4.357  0.00  0.00     0.249 C 
HETATM   20  O           1     -22.836  -6.222  -4.785  0.00  0.00    -0.271 OA
HETATM   21  H           1     -21.393  -5.569  -2.439  0.00  0.00     0.163 HD
BRANCH  19  22
HETATM   22  C           1     -20.537  -6.221  -5.307  0.00  0.00     0.280 C 
BRANCH  22  23
HETATM   23  N           1     -20.864  -6.996  -6.550  0.00  0.00    -0.066 N 
HETATM   24  H           1     -21.867  -6.844  -6.800  0.00  0.00     0.275 HD
HETATM   25  H           1     -20.699  -8.013  -6.379  0.00  0.00     0.275 HD
HETATM   26  H           1     -20.255  -6.671  -7.334  0.00  0.00     0.275 HD
ENDBRANCH  22  23
BRANCH  22  27
HETATM   27  C           1     -20.254  -4.771  -5.675  0.00  0.00     0.101 C 
BRANCH  27  28
HETATM   28  C           1     -20.936  -4.441  -6.966  0.00  0.00     0.028 A 
HETATM   29  N           1     -22.272  -4.161  -7.092  0.00  0.00    -0.355 N 
HETATM   30  C           1     -22.459  -3.931  -8.371  0.00  0.00     0.180 A 
ATOM     31  HN          1     -22.972  -4.136  -6.350  1.00  0.00     0.166 HD
HETATM   32  N           1     -21.295  -4.052  -9.076  0.00  0.00    -0.360 N 
HETATM   33  H           1     -21.179  -3.919 -10.112  0.00  0.00     0.166 HD
HETATM   34  C           1     -20.309  -4.380  -8.188  0.00  0.00     0.114 A 
ENDBRANCH  27  28
ENDBRANCH  22  27
ENDBRANCH  19  22
ENDBRANCH   1  18
TORSDOF 11
ENDMDL
MODEL 7
REMARK VINA RESULT:      -7.0      3.344      5.409
REMARK  11 active torsions:
REMARK  status: ('A' for Active; 'I' for Inactive)
REMARK    1  A    between atoms: C_1  and  C_2 
REMARK    2  A    between atoms: C_2  and  C_3 
REMARK    3  A    between atoms: C_3  and  C_27 
REMARK    4  A    between atoms: C_3  and  N_4 
REMARK       I    between atoms: N_4  and  C_22 
REMARK    5  A    between atoms: O_8  and  P_9 
REMARK    6  A    between atoms: P_9  and  O_10 
REMARK    7  A    between atoms: O_10  and  C_23 
REMARK    8  A    between atoms: N_14  and  C_30 
REMARK    9  A    between atoms: C_22  and  C_30 
REMARK   10  A    between atoms: C_30  and  C_31 
REMARK   11  A    between atoms: C_31  and  C_32 
ROOT
HETATM    1  C           1     -21.316  -7.600  -1.917  0.00  0.00     0.189 C 
ENDROOT
BRANCH   1   2
HETATM    2  C           1     -21.998  -6.337  -2.427  0.00  0.00     0.074 C 
BRANCH   2   3
HETATM    3  C           1     -21.671  -6.144  -3.875  0.00  0.00    -0.056 A 
HETATM    4  C           1     -20.447  -5.590  -4.246  0.00  0.00     0.010 A 
HETATM    5  C           1     -20.142  -5.409  -5.596  0.00  0.00     0.038 A 
HETATM    6  C           1     -21.062  -5.785  -6.574  0.00  0.00     0.081 A 
HETATM    7  C           1     -22.287  -6.340  -6.204  0.00  0.00     0.038 A 
HETATM    8  C           1     -22.591  -6.520  -4.854  0.00  0.00     0.010 A 
BRANCH   6   9
HETATM    9  O           1     -20.766  -5.609  -7.885  0.00  0.00    -0.247 OA
BRANCH   9  10
HETATM   10  P           1     -21.483  -4.391  -8.667  0.00  0.00     0.411 P 
HETATM   11  O           1     -20.512  -3.757  -9.586  0.00  0.00    -0.624 OA
HETATM   12  O           1     -22.631  -4.909  -9.444  0.00  0.00    -0.624 OA
BRANCH  10  13
HETATM   13  O           1     -22.006  -3.300  -7.597  0.00  0.00    -0.300 OA
HETATM   14  H           1     -22.633  -2.778  -8.068  0.00  0.00     0.223 HD
ENDBRANCH  10  13
ENDBRANCH   9  10
ENDBRANCH   6   9
ENDBRANCH   2   3
ENDBRANCH   1   2
BRANCH   1  15
HETATM   15  C           1     -21.741  -7.861  -0.492  0.00  0.00     0.197 C 
HETATM   16  O           1     -22.885  -7.532  -0.112  0.00  0.00    -0.646 OA
HETATM   17  O           1     -20.950  -8.407   0.306  0.00  0.00    -0.646 OA
ENDBRANCH   1  15
BRANCH   1  18
HETATM   18  N           1     -21.699  -8.724  -2.749  0.00  0.00    -0.344 N 
HETATM   19  C           1     -20.864  -9.803  -2.868  0.00  0.00     0.249 C 
HETATM   20  O           1     -20.958 -10.729  -2.098  0.00  0.00    -0.271 OA
HETATM   21  H           1     -22.583  -8.713  -3.240  0.00  0.00     0.163 HD
BRANCH  19  22
HETATM   22  C           1     -19.825  -9.835  -3.963  0.00  0.00     0.280 C 
BRANCH  22  23
HETATM   23  N           1     -20.427  -9.318  -5.236  0.00  0.00    -0.066 N 
HETATM   24  H           1     -20.464  -8.274  -5.205  0.00  0.00     0.275 HD
HETATM   25  H           1     -21.395  -9.697  -5.342  0.00  0.00     0.275 HD
HETATM   26  H           1     -19.843  -9.623  -6.047  0.00  0.00     0.275 HD
ENDBRANCH  22  23
BRANCH  22  27
HETATM   27  C           1     -18.645  -8.958  -3.568  0.00  0.00     0.101 C 
BRANCH  27  28
HETATM   28  C           1     -17.589  -9.802  -2.925  0.00  0.00     0.028 A 
HETATM   29  N           1     -17.824 -10.992  -2.287  0.00  0.00    -0.355 N 
HETATM   30  C           1     -16.648 -11.402  -1.871  0.00  0.00     0.180 A 
ATOM     31  HN          1     -18.722 -11.460  -2.161  1.00  0.00     0.166 HD
HETATM   32  N           1     -15.662 -10.522  -2.217  0.00  0.00    -0.360 N 
HETATM   33  H           1     -14.638 -10.619  -2.001  0.00  0.00     0.166 HD
HETATM   34  C           1     -16.250  -9.490  -2.893  0.00  0.00     0.114 A 
ENDBRANCH  27  28
ENDBRANCH  22  27
ENDBRANCH  19  22
ENDBRANCH   1  18
TORSDOF 11
ENDMDL
MODEL 8
REMARK VINA RESULT:      -6.9      4.503      6.282
REMARK  11 active torsions:
REMARK  status: ('A' for Active; 'I' for Inactive)
REMARK    1  A    between atoms: C_1  and  C_2 
REMARK    2  A    between atoms: C_2  and  C_3 
REMARK    3  A    between atoms: C_3  and  C_27 
REMARK    4  A    between atoms: C_3  and  N_4 
REMARK       I    between atoms: N_4  and  C_22 
REMARK    5  A    between atoms: O_8  and  P_9 
REMARK    6  A    between atoms: P_9  and  O_10 
REMARK    7  A    between atoms: O_10  and  C_23 
REMARK    8  A    between atoms: N_14  and  C_30 
REMARK    9  A    between atoms: C_22  and  C_30 
REMARK   10  A    between atoms: C_30  and  C_31 
REMARK   11  A    between atoms: C_31  and  C_32 
ROOT
HETATM    1  C           1     -18.995 -10.301  -2.586  0.00  0.00     0.189 C 
ENDROOT
BRANCH   1   2
HETATM    2  C           1     -19.508  -9.047  -1.889  0.00  0.00     0.074 C 
BRANCH   2   3
HETATM    3  C           1     -20.292  -8.222  -2.861  0.00  0.00    -0.056 A 
HETATM    4  C           1     -20.315  -8.568  -4.211  0.00  0.00     0.010 A 
HETATM    5  C           1     -21.046  -7.799  -5.117  0.00  0.00     0.038 A 
HETATM    6  C           1     -21.755  -6.684  -4.671  0.00  0.00     0.081 A 
HETATM    7  C           1     -21.732  -6.336  -3.321  0.00  0.00     0.038 A 
HETATM    8  C           1     -21.001  -7.106  -2.415  0.00  0.00     0.010 A 
BRANCH   6   9
HETATM    9  O           1     -22.464  -5.936  -5.551  0.00  0.00    -0.247 OA
BRANCH   9  10
HETATM   10  P           1     -21.647  -5.067  -6.639  0.00  0.00     0.411 P 
HETATM   11  O           1     -20.501  -4.402  -5.980  0.00  0.00    -0.624 OA
HETATM   12  O           1     -21.149  -5.958  -7.711  0.00  0.00    -0.624 OA
BRANCH  10  13
HETATM   13  O           1     -22.624  -3.951  -7.279  0.00  0.00    -0.300 OA
HETATM   14  H           1     -23.454  -4.081  -6.853  0.00  0.00     0.223 HD
ENDBRANCH  10  13
ENDBRANCH   9  10
ENDBRANCH   6   9
ENDBRANCH   2   3
ENDBRANCH   1   2
BRANCH   1  15
HETATM   15  C           1     -17.486 -10.299  -2.579  0.00  0.00     0.197 C 
HETATM   16  O           1     -16.860  -9.321  -3.041  0.00  0.00    -0.646 OA
HETATM   17  O           1     -16.861 -11.276  -2.110  0.00  0.00    -0.646 OA
ENDBRANCH   1  15
BRANCH   1  18
HETATM   18  N           1     -19.479 -11.474  -1.885  0.00  0.00    -0.344 N 
HETATM   19  C           1     -20.654 -12.064  -2.268  0.00  0.00     0.249 C 
HETATM   20  O           1     -20.649 -12.938  -3.102  0.00  0.00    -0.271 OA
HETATM   21  H           1     -18.948 -11.858  -1.113  0.00  0.00     0.163 HD
BRANCH  19  22
HETATM   22  C           1     -21.957 -11.622  -1.646  0.00  0.00     0.280 C 
BRANCH  22  23
HETATM   23  N           1     -23.006 -12.666  -1.894  0.00  0.00    -0.066 N 
HETATM   24  H           1     -23.592 -12.780  -1.036  0.00  0.00     0.275 HD
HETATM   25  H           1     -22.544 -13.575  -2.122  0.00  0.00     0.275 HD
HETATM   26  H           1     -23.610 -12.371  -2.693  0.00  0.00     0.275 HD
ENDBRANCH  22  23
BRANCH  22  27
HETATM   27  C           1     -21.768 -11.440  -0.146  0.00  0.00     0.101 C 
BRANCH  27  28
HETATM   28  C           1     -22.084 -10.025   0.228  0.00  0.00     0.028 A 
HETATM   29  N           1     -21.262  -9.211   0.961  0.00  0.00    -0.355 N 
HETATM   30  C           1     -21.905  -8.070   1.064  0.00  0.00     0.180 A 
ATOM     31  HN          1     -20.345  -9.441   1.346  1.00  0.00     0.166 HD
HETATM   32  N           1     -23.111  -8.117   0.425  0.00  0.00    -0.360 N 
HETATM   33  H           1     -23.812  -7.338   0.362  0.00  0.00     0.166 HD
HETATM   34  C           1     -23.241  -9.366  -0.116  0.00  0.00     0.114 A 
ENDBRANCH  27  28
ENDBRANCH  22  27
ENDBRANCH  19  22
ENDBRANCH   1  18
TORSDOF 11
ENDMDL
MODEL 9
REMARK VINA RESULT:      -6.8      6.982     10.197
REMARK  11 active torsions:
REMARK  status: ('A' for Active; 'I' for Inactive)
REMARK    1  A    between atoms: C_1  and  C_2 
REMARK    2  A    between atoms: C_2  and  C_3 
REMARK    3  A    between atoms: C_3  and  C_27 
REMARK    4  A    between atoms: C_3  and  N_4 
REMARK       I    between atoms: N_4  and  C_22 
REMARK    5  A    between atoms: O_8  and  P_9 
REMARK    6  A    between atoms: P_9  and  O_10 
REMARK    7  A    between atoms: O_10  and  C_23 
REMARK    8  A    between atoms: N_14  and  C_30 
REMARK    9  A    between atoms: C_22  and  C_30 
REMARK   10  A    between atoms: C_30  and  C_31 
REMARK   11  A    between atoms: C_31  and  C_32 
ROOT
HETATM    1  C           1     -21.638  -7.978  -1.729  0.00  0.00     0.189 C 
ENDROOT
BRANCH   1   2
HETATM    2  C           1     -21.650  -8.284  -0.237  0.00  0.00     0.074 C 
BRANCH   2   3
HETATM    3  C           1     -22.124  -9.688  -0.020  0.00  0.00    -0.056 A 
HETATM    4  C           1     -21.242 -10.657   0.456  0.00  0.00     0.010 A 
HETATM    5  C           1     -21.683 -11.965   0.657  0.00  0.00     0.038 A 
HETATM    6  C           1     -23.009 -12.303   0.383  0.00  0.00     0.081 A 
HETATM    7  C           1     -23.892 -11.334  -0.093  0.00  0.00     0.038 A 
HETATM    8  C           1     -23.449 -10.026  -0.294  0.00  0.00     0.010 A 
BRANCH   6   9
HETATM    9  O           1     -23.438 -13.573   0.578  0.00  0.00    -0.247 OA
BRANCH   9  10
HETATM   10  P           1     -23.542 -14.544  -0.708  0.00  0.00     0.411 P 
HETATM   11  O           1     -24.963 -14.702  -1.093  0.00  0.00    -0.624 OA
HETATM   12  O           1     -22.789 -13.953  -1.837  0.00  0.00    -0.624 OA
BRANCH  10  13
HETATM   13  O           1     -22.918 -15.988  -0.343  0.00  0.00    -0.300 OA
HETATM   14  H           1     -23.288 -16.209   0.495  0.00  0.00     0.223 HD
ENDBRANCH  10  13
ENDBRANCH   9  10
ENDBRANCH   6   9
ENDBRANCH   2   3
ENDBRANCH   1   2
BRANCH   1  15
HETATM   15  C           1     -22.079  -6.552  -1.953  0.00  0.00     0.197 C 
HETATM   16  O           1     -22.293  -5.803  -0.975  0.00  0.00    -0.646 OA
HETATM   17  O           1     -22.231  -6.120  -3.116  0.00  0.00    -0.646 OA
ENDBRANCH   1  15
BRANCH   1  18
HETATM   18  N           1     -20.295  -8.154  -2.246  0.00  0.00    -0.344 N 
HETATM   19  C           1     -20.099  -8.802  -3.436  0.00  0.00     0.249 C 
HETATM   20  O           1     -20.090  -8.178  -4.471  0.00  0.00    -0.271 OA
HETATM   21  H           1     -19.502  -7.797  -1.728  0.00  0.00     0.163 HD
BRANCH  19  22
HETATM   22  C           1     -19.895 -10.297  -3.456  0.00  0.00     0.280 C 
BRANCH  22  23
HETATM   23  N           1     -18.985 -10.691  -2.329  0.00  0.00    -0.066 N 
HETATM   24  H           1     -19.344 -11.564  -1.881  0.00  0.00     0.275 HD
HETATM   25  H           1     -18.957  -9.923  -1.621  0.00  0.00     0.275 HD
HETATM   26  H           1     -18.022 -10.858  -2.700  0.00  0.00     0.275 HD
ENDBRANCH  22  23
BRANCH  22  27
HETATM   27  C           1     -21.237 -10.996  -3.289  0.00  0.00     0.101 C 
BRANCH  27  28
HETATM   28  C           1     -21.620 -11.655  -4.579  0.00  0.00     0.028 A 
HETATM   29  N           1     -22.549 -12.655  -4.697  0.00  0.00    -0.355 N 
HETATM   30  C           1     -22.584 -12.947  -5.977  0.00  0.00     0.180 A 
ATOM     31  HN          1     -23.096 -13.083  -3.950  1.00  0.00     0.166 HD
HETATM   32  N           1     -21.713 -12.172  -6.690  0.00  0.00    -0.360 N 
HETATM   33  H           1     -21.552 -12.211  -7.727  0.00  0.00     0.166 HD
HETATM   34  C           1     -21.086 -11.339  -5.806  0.00  0.00     0.114 A 
ENDBRANCH  27  28
ENDBRANCH  22  27
ENDBRANCH  19  22
ENDBRANCH   1  18
TORSDOF 11
ENDMDL
