MODEL 1
REMARK VINA RESULT:      -6.8      0.000      0.000
REMARK  8 active torsions:
REMARK  status: ('A' for Active; 'I' for Inactive)
REMARK    1  A    between atoms: C_1  and  C_3 
REMARK    2  A    between atoms: C_3  and  C_15 
REMARK    3  A    between atoms: N_5  and  C_19 
REMARK       I    between atoms: N_5  and  C_13 
REMARK    4  A    between atoms: C_6  and  O_14 
REMARK    5  A    between atoms: C_6  and  C_19 
REMARK    6  A    between atoms: N_8  and  C_15 
REMARK    7  A    between atoms: C_13  and  C_15 
REMARK    8  A    between atoms: C_19  and  C_20 
ROOT
HETATM    1  H           1     -33.924  -0.807 -14.216  0.00  0.00     0.163 HD
HETATM    2  N           1     -34.910  -0.814 -13.991  0.00  0.00    -0.343 N 
HETATM    3  O           1     -36.515  -1.344 -12.530  0.00  0.00    -0.271 OA
HETATM    4  C           1     -35.338  -1.336 -12.800  0.00  0.00     0.249 C 
ENDROOT
BRANCH   4   5
HETATM    5  C           1     -34.337  -1.900 -11.821  0.00  0.00     0.278 C 
BRANCH   5   6
HETATM    6  C           1     -34.235  -3.408 -12.010  0.00  0.00     0.021 C 
HETATM    7  C           1     -32.785  -3.843 -11.853  0.00  0.00     0.012 C 
BRANCH   6   8
HETATM    8  C           1     -35.091  -4.109 -10.964  0.00  0.00     0.002 C 
HETATM    9  C           1     -34.391  -5.379 -10.501  0.00  0.00     0.005 C 
ENDBRANCH   6   8
ENDBRANCH   5   6
BRANCH   5  10
HETATM   10  N           1     -34.783  -1.601 -10.421  0.00  0.00    -0.066 N 
HETATM   11  H           1     -35.739  -1.178 -10.441  0.00  0.00     0.275 HD
HETATM   12  H           1     -34.805  -2.486  -9.866  0.00  0.00     0.275 HD
HETATM   13  H           1     -34.115  -0.930  -9.980  0.00  0.00     0.275 HD
ENDBRANCH   5  10
ENDBRANCH   4   5
BRANCH   2  14
HETATM   14  C           1     -35.872  -0.272 -14.930  0.00  0.00     0.209 C 
BRANCH  14  15
HETATM   15  C           1     -35.524   1.181 -15.231  0.00  0.00     0.200 C 
BRANCH  15  16
HETATM   16  O           1     -36.538   1.753 -16.013  0.00  0.00    -0.398 OA
HETATM   17  H           1     -37.344   1.336 -15.762  0.00  0.00     0.209 HD
ENDBRANCH  15  16
ENDBRANCH  14  15
BRANCH  14  18
HETATM   18  C           1     -35.836  -1.073 -16.208  0.00  0.00     0.198 C 
HETATM   19  O           1     -36.604  -0.783 -17.151  0.00  0.00    -0.646 OA
HETATM   20  O           1     -35.039  -2.029 -16.323  0.00  0.00    -0.646 OA
ENDBRANCH  14  18
ENDBRANCH   2  14
TORSDOF 8
ENDMDL
MODEL 2
REMARK VINA RESULT:      -5.8     12.198     13.905
REMARK  8 active torsions:
REMARK  status: ('A' for Active; 'I' for Inactive)
REMARK    1  A    between atoms: C_1  and  C_3 
REMARK    2  A    between atoms: C_3  and  C_15 
REMARK    3  A    between atoms: N_5  and  C_19 
REMARK       I    between atoms: N_5  and  C_13 
REMARK    4  A    between atoms: C_6  and  O_14 
REMARK    5  A    between atoms: C_6  and  C_19 
REMARK    6  A    between atoms: N_8  and  C_15 
REMARK    7  A    between atoms: C_13  and  C_15 
REMARK    8  A    between atoms: C_19  and  C_20 
ROOT
HETATM    1  H           1     -23.989  -3.830  -8.917  0.00  0.00     0.163 HD
HETATM    2  N           1     -23.072  -3.774  -9.342  0.00  0.00    -0.343 N 
HETATM    3  O           1     -20.856  -3.856  -9.079  0.00  0.00    -0.271 OA
HETATM    4  C           1     -21.950  -3.923  -8.573  0.00  0.00     0.249 C 
ENDROOT
BRANCH   4   5
HETATM    5  C           1     -22.080  -4.175  -7.091  0.00  0.00     0.278 C 
BRANCH   5   6
HETATM    6  C           1     -21.141  -5.302  -6.682  0.00  0.00     0.021 C 
HETATM    7  C           1     -19.924  -4.719  -5.978  0.00  0.00     0.012 C 
BRANCH   6   8
HETATM    8  C           1     -21.869  -6.249  -5.737  0.00  0.00     0.002 C 
HETATM    9  C           1     -21.255  -6.152  -4.347  0.00  0.00     0.005 C 
ENDBRANCH   6   8
ENDBRANCH   5   6
BRANCH   5  10
HETATM   10  N           1     -23.493  -4.560  -6.770  0.00  0.00    -0.066 N 
HETATM   11  H           1     -24.079  -3.700  -6.681  0.00  0.00     0.275 HD
HETATM   12  H           1     -23.872  -5.162  -7.536  0.00  0.00     0.275 HD
HETATM   13  H           1     -23.513  -5.090  -5.869  0.00  0.00     0.275 HD
ENDBRANCH   5  10
ENDBRANCH   4   5
BRANCH   2  14
HETATM   14  C           1     -22.947  -3.532 -10.766  0.00  0.00     0.209 C 
BRANCH  14  15
HETATM   15  C           1     -22.515  -4.817 -11.462  0.00  0.00     0.200 C 
BRANCH  15  16
HETATM   16  O           1     -23.522  -5.233 -12.344  0.00  0.00    -0.398 OA
HETATM   17  H           1     -24.345  -5.044 -11.927  0.00  0.00     0.209 HD
ENDBRANCH  15  16
ENDBRANCH  14  15
BRANCH  14  18
HETATM   18  C           1     -24.276  -3.082 -11.320  0.00  0.00     0.198 C 
HETATM   19  O           1     -25.317  -3.225 -10.642  0.00  0.00    -0.646 OA
HETATM   20  O           1     -24.337  -2.569 -12.459  0.00  0.00    -0.646 OA
ENDBRANCH  14  18
ENDBRANCH   2  14
TORSDOF 8
ENDMDL
MODEL 3
REMARK VINA RESULT:      -5.2     15.411     17.234
REMARK  8 active torsions:
REMARK  status: ('A' for Active; 'I' for Inactive)
REMARK    1  A    between atoms: C_1  and  C_3 
REMARK    2  A    between atoms: C_3  and  C_15 
REMARK    3  A    between atoms: N_5  and  C_19 
REMARK       I    between atoms: N_5  and  C_13 
REMARK    4  A    between atoms: C_6  and  O_14 
REMARK    5  A    between atoms: C_6  and  C_19 
REMARK    6  A    between atoms: N_8  and  C_15 
REMARK    7  A    between atoms: C_13  and  C_15 
REMARK    8  A    between atoms: C_19  and  C_20 
ROOT
HETATM    1  H           1     -20.836  -4.732  -4.667  0.00  0.00     0.163 HD
HETATM    2  N           1     -21.235  -5.559  -5.093  0.00  0.00    -0.343 N 
HETATM    3  O           1     -22.036  -7.626  -4.824  0.00  0.00    -0.271 OA
HETATM    4  C           1     -21.561  -6.639  -4.317  0.00  0.00     0.249 C 
ENDROOT
BRANCH   4   5
HETATM    5  C           1     -21.328  -6.595  -2.827  0.00  0.00     0.278 C 
BRANCH   5   6
HETATM    6  C           1     -21.394  -8.006  -2.259  0.00  0.00     0.021 C 
HETATM    7  C           1     -19.986  -8.565  -2.119  0.00  0.00     0.012 C 
BRANCH   6   8
HETATM    8  C           1     -22.064  -7.971  -0.892  0.00  0.00     0.002 C 
HETATM    9  C           1     -22.596  -9.357  -0.550  0.00  0.00     0.005 C 
ENDBRANCH   6   8
ENDBRANCH   5   6
BRANCH   5  10
HETATM   10  N           1     -22.382  -5.746  -2.180  0.00  0.00    -0.066 N 
HETATM   11  H           1     -23.235  -6.323  -2.002  0.00  0.00     0.275 HD
HETATM   12  H           1     -22.019  -5.370  -1.276  0.00  0.00     0.275 HD
HETATM   13  H           1     -22.626  -4.952  -2.815  0.00  0.00     0.275 HD
ENDBRANCH   5  10
ENDBRANCH   4   5
BRANCH   2  14
HETATM   14  C           1     -21.459  -5.602  -6.524  0.00  0.00     0.209 C 
BRANCH  14  15
HETATM   15  C           1     -22.581  -4.638  -6.891  0.00  0.00     0.200 C 
BRANCH  15  16
HETATM   16  O           1     -22.032  -3.454  -7.402  0.00  0.00    -0.398 OA
HETATM   17  H           1     -21.327  -3.704  -7.974  0.00  0.00     0.209 HD
ENDBRANCH  15  16
ENDBRANCH  14  15
BRANCH  14  18
HETATM   18  C           1     -20.196  -5.202  -7.245  0.00  0.00     0.198 C 
HETATM   19  O           1     -19.252  -4.683  -6.610  0.00  0.00    -0.646 OA
HETATM   20  O           1     -20.093  -5.387  -8.477  0.00  0.00    -0.646 OA
ENDBRANCH  14  18
ENDBRANCH   2  14
TORSDOF 8
ENDMDL
MODEL 4
REMARK VINA RESULT:      -5.0     15.037     17.511
REMARK  8 active torsions:
REMARK  status: ('A' for Active; 'I' for Inactive)
REMARK    1  A    between atoms: C_1  and  C_3 
REMARK    2  A    between atoms: C_3  and  C_15 
REMARK    3  A    between atoms: N_5  and  C_19 
REMARK       I    between atoms: N_5  and  C_13 
REMARK    4  A    between atoms: C_6  and  O_14 
REMARK    5  A    between atoms: C_6  and  C_19 
REMARK    6  A    between atoms: N_8  and  C_15 
REMARK    7  A    between atoms: C_13  and  C_15 
REMARK    8  A    between atoms: C_19  and  C_20 
ROOT
HETATM    1  H           1     -19.958  -6.381  -5.256  0.00  0.00     0.163 HD
HETATM    2  N           1     -20.969  -6.388  -5.200  0.00  0.00    -0.343 N 
HETATM    3  O           1     -22.908  -5.506  -5.871  0.00  0.00    -0.271 OA
HETATM    4  C           1     -21.702  -5.498  -5.938  0.00  0.00     0.249 C 
ENDROOT
BRANCH   4   5
HETATM    5  C           1     -21.004  -4.507  -6.836  0.00  0.00     0.278 C 
BRANCH   5   6
HETATM    6  C           1     -21.371  -4.789  -8.287  0.00  0.00     0.021 C 
HETATM    7  C           1     -22.403  -3.773  -8.757  0.00  0.00     0.012 C 
BRANCH   6   8
HETATM    8  C           1     -20.124  -4.684  -9.155  0.00  0.00     0.002 C 
HETATM    9  C           1     -20.523  -4.311 -10.576  0.00  0.00     0.005 C 
ENDBRANCH   6   8
ENDBRANCH   5   6
BRANCH   5  10
HETATM   10  N           1     -19.519  -4.634  -6.663  0.00  0.00    -0.066 N 
HETATM   11  H           1     -19.258  -4.373  -5.685  0.00  0.00     0.275 HD
HETATM   12  H           1     -19.230  -5.619  -6.851  0.00  0.00     0.275 HD
HETATM   13  H           1     -19.036  -3.994  -7.334  0.00  0.00     0.275 HD
ENDBRANCH   5  10
ENDBRANCH   4   5
BRANCH   2  14
HETATM   14  C           1     -21.640  -7.340  -4.337  0.00  0.00     0.209 C 
BRANCH  14  15
HETATM   15  C           1     -20.931  -8.685  -4.417  0.00  0.00     0.200 C 
BRANCH  15  16
HETATM   16  O           1     -19.546  -8.481  -4.490  0.00  0.00    -0.398 OA
HETATM   17  H           1     -19.334  -8.372  -5.401  0.00  0.00     0.209 HD
ENDBRANCH  15  16
ENDBRANCH  14  15
BRANCH  14  18
HETATM   18  C           1     -21.611  -6.839  -2.915  0.00  0.00     0.198 C 
HETATM   19  O           1     -20.772  -7.296  -2.108  0.00  0.00    -0.646 OA
HETATM   20  O           1     -22.426  -5.967  -2.541  0.00  0.00    -0.646 OA
ENDBRANCH  14  18
ENDBRANCH   2  14
TORSDOF 8
ENDMDL
MODEL 5
REMARK VINA RESULT:      -5.0     14.721     16.909
REMARK  8 active torsions:
REMARK  status: ('A' for Active; 'I' for Inactive)
REMARK    1  A    between atoms: C_1  and  C_3 
REMARK    2  A    between atoms: C_3  and  C_15 
REMARK    3  A    between atoms: N_5  and  C_19 
REMARK       I    between atoms: N_5  and  C_13 
REMARK    4  A    between atoms: C_6  and  O_14 
REMARK    5  A    between atoms: C_6  and  C_19 
REMARK    6  A    between atoms: N_8  and  C_15 
REMARK    7  A    between atoms: C_13  and  C_15 
REMARK    8  A    between atoms: C_19  and  C_20 
ROOT
HETATM    1  H           1     -22.004  -7.102  -6.722  0.00  0.00     0.163 HD
HETATM    2  N           1     -21.446  -6.372  -6.297  0.00  0.00    -0.343 N 
HETATM    3  O           1     -20.754  -4.249  -6.342  0.00  0.00    -0.271 OA
HETATM    4  C           1     -21.420  -5.120  -6.849  0.00  0.00     0.249 C 
ENDROOT
BRANCH   4   5
HETATM    5  C           1     -22.226  -4.826  -8.091  0.00  0.00     0.278 C 
BRANCH   5   6
HETATM    6  C           1     -21.423  -3.920  -9.016  0.00  0.00     0.021 C 
HETATM    7  C           1     -20.215  -4.678  -9.546  0.00  0.00     0.012 C 
BRANCH   6   8
HETATM    8  C           1     -22.300  -3.483 -10.182  0.00  0.00     0.002 C 
HETATM    9  C           1     -22.148  -4.470 -11.331  0.00  0.00     0.005 C 
ENDBRANCH   6   8
ENDBRANCH   5   6
BRANCH   5  10
HETATM   10  N           1     -23.504  -4.142  -7.708  0.00  0.00    -0.066 N 
HETATM   11  H           1     -24.187  -4.211  -8.496  0.00  0.00     0.275 HD
HETATM   12  H           1     -23.904  -4.602  -6.859  0.00  0.00     0.275 HD
HETATM   13  H           1     -23.311  -3.136  -7.501  0.00  0.00     0.275 HD
ENDBRANCH   5  10
ENDBRANCH   4   5
BRANCH   2  14
HETATM   14  C           1     -20.671  -6.653  -5.104  0.00  0.00     0.209 C 
BRANCH  14  15
HETATM   15  C           1     -21.502  -6.321  -3.871  0.00  0.00     0.200 C 
BRANCH  15  16
HETATM   16  O           1     -21.563  -7.442  -3.031  0.00  0.00    -0.398 OA
HETATM   17  H           1     -21.984  -8.127  -3.520  0.00  0.00     0.209 HD
ENDBRANCH  15  16
ENDBRANCH  14  15
BRANCH  14  18
HETATM   18  C           1     -20.296  -8.114  -5.079  0.00  0.00     0.198 C 
HETATM   19  O           1     -21.009  -8.953  -5.673  0.00  0.00    -0.646 OA
HETATM   20  O           1     -19.275  -8.487  -4.463  0.00  0.00    -0.646 OA
ENDBRANCH  14  18
ENDBRANCH   2  14
TORSDOF 8
ENDMDL
MODEL 6
REMARK VINA RESULT:      -4.9     17.036     18.798
REMARK  8 active torsions:
REMARK  status: ('A' for Active; 'I' for Inactive)
REMARK    1  A    between atoms: C_1  and  C_3 
REMARK    2  A    between atoms: C_3  and  C_15 
REMARK    3  A    between atoms: N_5  and  C_19 
REMARK       I    between atoms: N_5  and  C_13 
REMARK    4  A    between atoms: C_6  and  O_14 
REMARK    5  A    between atoms: C_6  and  C_19 
REMARK    6  A    between atoms: N_8  and  C_15 
REMARK    7  A    between atoms: C_13  and  C_15 
REMARK    8  A    between atoms: C_19  and  C_20 
ROOT
HETATM    1  H           1     -22.531  -7.432  -2.683  0.00  0.00     0.163 HD
HETATM    2  N           1     -21.542  -7.615  -2.791  0.00  0.00    -0.343 N 
HETATM    3  O           1     -19.634  -8.317  -1.865  0.00  0.00    -0.271 OA
HETATM    4  C           1     -20.815  -8.099  -1.737  0.00  0.00     0.249 C 
ENDROOT
BRANCH   4   5
HETATM    5  C           1     -21.490  -8.362  -0.413  0.00  0.00     0.278 C 
BRANCH   5   6
HETATM    6  C           1     -21.959  -9.810  -0.360  0.00  0.00     0.021 C 
HETATM    7  C           1     -21.148 -10.570   0.680  0.00  0.00     0.012 C 
BRANCH   6   8
HETATM    8  C           1     -23.434  -9.852   0.016  0.00  0.00     0.002 C 
HETATM    9  C           1     -24.021 -11.202  -0.373  0.00  0.00     0.005 C 
ENDBRANCH   6   8
ENDBRANCH   5   6
BRANCH   5  10
HETATM   10  N           1     -22.670  -7.449  -0.263  0.00  0.00    -0.066 N 
HETATM   11  H           1     -22.757  -7.151   0.735  0.00  0.00     0.275 HD
HETATM   12  H           1     -22.539  -6.608  -0.868  0.00  0.00     0.275 HD
HETATM   13  H           1     -23.539  -7.954  -0.551  0.00  0.00     0.275 HD
ENDBRANCH   5  10
ENDBRANCH   4   5
BRANCH   2  14
HETATM   14  C           1     -20.892  -7.362  -4.062  0.00  0.00     0.209 C 
BRANCH  14  15
HETATM   15  C           1     -21.071  -8.570  -4.972  0.00  0.00     0.200 C 
BRANCH  15  16
HETATM   16  O           1     -21.282  -8.138  -6.289  0.00  0.00    -0.398 OA
HETATM   17  H           1     -21.639  -8.870  -6.763  0.00  0.00     0.209 HD
ENDBRANCH  15  16
ENDBRANCH  14  15
BRANCH  14  18
HETATM   18  C           1     -21.510  -6.148  -4.711  0.00  0.00     0.198 C 
HETATM   19  O           1     -20.781  -5.214  -5.112  0.00  0.00    -0.646 OA
HETATM   20  O           1     -22.750  -6.074  -4.846  0.00  0.00    -0.646 OA
ENDBRANCH  14  18
ENDBRANCH   2  14
TORSDOF 8
ENDMDL
MODEL 7
REMARK VINA RESULT:      -4.8     17.271     19.022
REMARK  8 active torsions:
REMARK  status: ('A' for Active; 'I' for Inactive)
REMARK    1  A    between atoms: C_1  and  C_3 
REMARK    2  A    between atoms: C_3  and  C_15 
REMARK    3  A    between atoms: N_5  and  C_19 
REMARK       I    between atoms: N_5  and  C_13 
REMARK    4  A    between atoms: C_6  and  O_14 
REMARK    5  A    between atoms: C_6  and  C_19 
REMARK    6  A    between atoms: N_8  and  C_15 
REMARK    7  A    between atoms: C_13  and  C_15 
REMARK    8  A    between atoms: C_19  and  C_20 
ROOT
HETATM    1  H           1     -22.757  -8.964  -3.277  0.00  0.00     0.163 HD
HETATM    2  N           1     -21.768  -8.791  -3.146  0.00  0.00    -0.343 N 
HETATM    3  O           1     -19.875  -9.337  -2.095  0.00  0.00    -0.271 OA
HETATM    4  C           1     -21.054  -9.542  -2.253  0.00  0.00     0.249 C 
ENDROOT
BRANCH   4   5
HETATM    5  C           1     -21.740 -10.631  -1.464  0.00  0.00     0.278 C 
BRANCH   5   6
HETATM    6  C           1     -22.947 -10.051  -0.739  0.00  0.00     0.021 C 
HETATM    7  C           1     -23.824 -11.184  -0.224  0.00  0.00     0.012 C 
BRANCH   6   8
HETATM    8  C           1     -22.474  -9.202   0.433  0.00  0.00     0.002 C 
HETATM    9  C           1     -23.074  -7.807   0.326  0.00  0.00     0.005 C 
ENDBRANCH   6   8
ENDBRANCH   5   6
BRANCH   5  10
HETATM   10  N           1     -20.782 -11.203  -0.462  0.00  0.00    -0.066 N 
HETATM   11  H           1     -19.811 -11.168  -0.847  0.00  0.00     0.275 HD
HETATM   12  H           1     -20.828 -10.645   0.420  0.00  0.00     0.275 HD
HETATM   13  H           1     -21.042 -12.195  -0.261  0.00  0.00     0.275 HD
ENDBRANCH   5  10
ENDBRANCH   4   5
BRANCH   2  14
HETATM   14  C           1     -21.108  -7.745  -3.903  0.00  0.00     0.209 C 
BRANCH  14  15
HETATM   15  C           1     -21.020  -8.157  -5.367  0.00  0.00     0.200 C 
BRANCH  15  16
HETATM   16  O           1     -20.070  -7.360  -6.022  0.00  0.00    -0.398 OA
HETATM   17  H           1     -20.548  -6.743  -6.548  0.00  0.00     0.209 HD
ENDBRANCH  15  16
ENDBRANCH  14  15
BRANCH  14  18
HETATM   18  C           1     -21.898  -6.465  -3.788  0.00  0.00     0.198 C 
HETATM   19  O           1     -22.072  -5.936  -2.668  0.00  0.00    -0.646 OA
HETATM   20  O           1     -22.380  -5.933  -4.812  0.00  0.00    -0.646 OA
ENDBRANCH  14  18
ENDBRANCH   2  14
TORSDOF 8
ENDMDL
MODEL 8
REMARK VINA RESULT:      -4.6     18.679     19.724
REMARK  8 active torsions:
REMARK  status: ('A' for Active; 'I' for Inactive)
REMARK    1  A    between atoms: C_1  and  C_3 
REMARK    2  A    between atoms: C_3  and  C_15 
REMARK    3  A    between atoms: N_5  and  C_19 
REMARK       I    between atoms: N_5  and  C_13 
REMARK    4  A    between atoms: C_6  and  O_14 
REMARK    5  A    between atoms: C_6  and  C_19 
REMARK    6  A    between atoms: N_8  and  C_15 
REMARK    7  A    between atoms: C_13  and  C_15 
REMARK    8  A    between atoms: C_19  and  C_20 
ROOT
HETATM    1  H           1     -21.426  -8.289  -3.539  0.00  0.00     0.163 HD
HETATM    2  N           1     -20.721  -8.975  -3.299  0.00  0.00    -0.343 N 
HETATM    3  O           1     -19.469  -9.929  -1.715  0.00  0.00    -0.271 OA
HETATM    4  C           1     -20.309  -9.110  -2.001  0.00  0.00     0.249 C 
ENDROOT
BRANCH   4   5
HETATM    5  C           1     -20.907  -8.237  -0.925  0.00  0.00     0.278 C 
BRANCH   5   6
HETATM    6  C           1     -21.524  -9.114   0.157  0.00  0.00     0.021 C 
HETATM    7  C           1     -21.045  -8.645   1.524  0.00  0.00     0.012 C 
BRANCH   6   8
HETATM    8  C           1     -23.042  -9.011   0.088  0.00  0.00     0.002 C 
HETATM    9  C           1     -23.630 -10.379  -0.230  0.00  0.00     0.005 C 
ENDBRANCH   6   8
ENDBRANCH   5   6
BRANCH   5  10
HETATM   10  N           1     -21.968  -7.362  -1.523  0.00  0.00    -0.066 N 
HETATM   11  H           1     -22.557  -6.956  -0.762  0.00  0.00     0.275 HD
HETATM   12  H           1     -21.517  -6.590  -2.064  0.00  0.00     0.275 HD
HETATM   13  H           1     -22.568  -7.931  -2.162  0.00  0.00     0.275 HD
ENDBRANCH   5  10
ENDBRANCH   4   5
BRANCH   2  14
HETATM   14  C           1     -20.146  -9.815  -4.333  0.00  0.00     0.209 C 
BRANCH  14  15
HETATM   15  C           1     -21.248 -10.638  -4.988  0.00  0.00     0.200 C 
BRANCH  15  16
HETATM   16  O           1     -21.094 -10.600  -6.381  0.00  0.00    -0.398 OA
HETATM   17  H           1     -20.241 -10.242  -6.552  0.00  0.00     0.209 HD
ENDBRANCH  15  16
ENDBRANCH  14  15
BRANCH  14  18
HETATM   18  C           1     -19.479  -8.949  -5.372  0.00  0.00     0.198 C 
HETATM   19  O           1     -18.436  -9.343  -5.938  0.00  0.00    -0.646 OA
HETATM   20  O           1     -19.967  -7.836  -5.666  0.00  0.00    -0.646 OA
ENDBRANCH  14  18
ENDBRANCH   2  14
TORSDOF 8
ENDMDL
MODEL 9
REMARK VINA RESULT:      -4.5     18.165     19.441
REMARK  8 active torsions:
REMARK  status: ('A' for Active; 'I' for Inactive)
REMARK    1  A    between atoms: C_1  and  C_3 
REMARK    2  A    between atoms: C_3  and  C_15 
REMARK    3  A    between atoms: N_5  and  C_19 
REMARK       I    between atoms: N_5  and  C_13 
REMARK    4  A    between atoms: C_6  and  O_14 
REMARK    5  A    between atoms: C_6  and  C_19 
REMARK    6  A    between atoms: N_8  and  C_15 
REMARK    7  A    between atoms: C_13  and  C_15 
REMARK    8  A    between atoms: C_19  and  C_20 
ROOT
HETATM    1  H           1     -19.958  -9.679  -2.372  0.00  0.00     0.163 HD
HETATM    2  N           1     -20.189  -8.793  -2.803  0.00  0.00    -0.343 N 
HETATM    3  O           1     -21.139  -6.782  -2.602  0.00  0.00    -0.271 OA
HETATM    4  C           1     -20.862  -7.839  -2.089  0.00  0.00     0.249 C 
ENDROOT
BRANCH   4   5
HETATM    5  C           1     -21.257  -8.108  -0.657  0.00  0.00     0.278 C 
BRANCH   5   6
HETATM    6  C           1     -21.737  -9.547  -0.523  0.00  0.00     0.021 C 
HETATM    7  C           1     -20.917 -10.258   0.544  0.00  0.00     0.012 C 
BRANCH   6   8
HETATM    8  C           1     -23.206  -9.555  -0.123  0.00  0.00     0.002 C 
HETATM    9  C           1     -23.792 -10.940  -0.364  0.00  0.00     0.005 C 
ENDBRANCH   6   8
ENDBRANCH   5   6
BRANCH   5  10
HETATM   10  N           1     -22.361  -7.173  -0.259  0.00  0.00    -0.066 N 
HETATM   11  H           1     -22.810  -7.517   0.619  0.00  0.00     0.275 HD
HETATM   12  H           1     -21.968  -6.219  -0.100  0.00  0.00     0.275 HD
HETATM   13  H           1     -23.074  -7.134  -1.022  0.00  0.00     0.275 HD
ENDBRANCH   5  10
ENDBRANCH   4   5
BRANCH   2  14
HETATM   14  C           1     -19.810  -8.535  -4.179  0.00  0.00     0.209 C 
BRANCH  14  15
HETATM   15  C           1     -18.538  -9.306  -4.508  0.00  0.00     0.200 C 
BRANCH  15  16
HETATM   16  O           1     -18.560  -9.693  -5.855  0.00  0.00    -0.398 OA
HETATM   17  H           1     -18.494 -10.632  -5.871  0.00  0.00     0.209 HD
ENDBRANCH  15  16
ENDBRANCH  14  15
BRANCH  14  18
HETATM   18  C           1     -20.920  -8.978  -5.099  0.00  0.00     0.198 C 
HETATM   19  O           1     -21.313  -8.223  -6.015  0.00  0.00    -0.646 OA
HETATM   20  O           1     -21.449 -10.101  -4.945  0.00  0.00    -0.646 OA
ENDBRANCH  14  18
ENDBRANCH   2  14
TORSDOF 8
ENDMDL
