MODEL 1
REMARK VINA RESULT:      -7.7      0.000      0.000
REMARK  9 active torsions:
REMARK  status: ('A' for Active; 'I' for Inactive)
REMARK    1  A    between atoms: N_3  and  C_26 
REMARK       I    between atoms: N_3  and  C_23 
REMARK    2  A    between atoms: C_4  and  C_16 
REMARK    3  A    between atoms: O_5  and  C_18 
REMARK    4  A    between atoms: C_7  and  C_13 
REMARK    5  A    between atoms: N_10  and  C_17 
REMARK    6  A    between atoms: C_13  and  C_26 
REMARK    7  A    between atoms: C_16  and  C_17 
REMARK    8  A    between atoms: C_17  and  C_23 
REMARK    9  A    between atoms: C_25  and  C_26 
ROOT
HETATM    1  C           1     -22.165  -5.207  -6.829  0.00  0.00     0.260 C 
ENDROOT
BRANCH   1   2
HETATM    2  N           1     -23.554  -4.943  -6.328  0.00  0.00    -0.067 N 
HETATM    3  H           1     -23.513  -4.646  -5.327  0.00  0.00     0.275 HD
HETATM    4  H           1     -23.992  -4.184  -6.898  0.00  0.00     0.275 HD
HETATM    5  H           1     -24.125  -5.815  -6.410  0.00  0.00     0.275 HD
ENDBRANCH   1   2
BRANCH   1   6
HETATM    6  C           1     -21.549  -3.906  -7.327  0.00  0.00     0.079 C 
BRANCH   6   7
HETATM    7  C           1     -21.598  -3.870  -8.822  0.00  0.00    -0.056 A 
HETATM    8  C           1     -22.796  -3.575  -9.474  0.00  0.00     0.010 A 
HETATM    9  C           1     -22.841  -3.542 -10.868  0.00  0.00     0.037 A 
HETATM   10  C           1     -21.689  -3.804 -11.610  0.00  0.00     0.065 A 
HETATM   11  C           1     -20.492  -4.099 -10.958  0.00  0.00     0.037 A 
HETATM   12  C           1     -20.447  -4.132  -9.564  0.00  0.00     0.010 A 
BRANCH  10  13
HETATM   13  O           1     -21.733  -3.772 -12.964  0.00  0.00    -0.361 OA
HETATM   14  H           1     -22.663  -3.843 -13.236  0.00  0.00     0.217 HD
ENDBRANCH  10  13
ENDBRANCH   6   7
ENDBRANCH   1   6
BRANCH   1  15
HETATM   15  C           1     -21.323  -5.766  -5.709  0.00  0.00     0.130 C 
HETATM   16  N           1     -21.415  -7.092  -5.380  0.00  0.00    -0.359 N 
HETATM   17  H           1     -22.047  -7.698  -5.889  0.00  0.00     0.162 HD
HETATM   18  O           1     -20.570  -5.044  -5.101  0.00  0.00    -0.397 OA
BRANCH  16  19
HETATM   19  C           1     -20.606  -7.630  -4.303  0.00  0.00     0.184 C 
BRANCH  19  20
HETATM   20  C           1     -21.516  -8.182  -3.212  0.00  0.00     0.040 C 
BRANCH  20  21
HETATM   21  C           1     -21.320  -7.379  -1.933  0.00  0.00    -0.018 C 
HETATM   22  C           1     -21.756  -8.214  -0.736  0.00  0.00     0.289 C 
HETATM   23  C           1     -22.160  -6.110  -1.998  0.00  0.00     0.009 C 
ENDBRANCH  20  21
ENDBRANCH  19  20
BRANCH  19  24
HETATM   24  C           1     -19.732  -8.738  -4.836  0.00  0.00     0.196 C 
HETATM   25  O           1     -18.620  -8.965  -4.312  0.00  0.00    -0.646 OA
HETATM   26  O           1     -20.119  -9.428  -5.803  0.00  0.00    -0.646 OA
ENDBRANCH  19  24
ENDBRANCH  16  19
ENDBRANCH   1  15
TORSDOF 9
ENDMDL
MODEL 2
REMARK VINA RESULT:      -7.1      2.278      7.953
REMARK  9 active torsions:
REMARK  status: ('A' for Active; 'I' for Inactive)
REMARK    1  A    between atoms: N_3  and  C_26 
REMARK       I    between atoms: N_3  and  C_23 
REMARK    2  A    between atoms: C_4  and  C_16 
REMARK    3  A    between atoms: O_5  and  C_18 
REMARK    4  A    between atoms: C_7  and  C_13 
REMARK    5  A    between atoms: N_10  and  C_17 
REMARK    6  A    between atoms: C_13  and  C_26 
REMARK    7  A    between atoms: C_16  and  C_17 
REMARK    8  A    between atoms: C_17  and  C_23 
REMARK    9  A    between atoms: C_25  and  C_26 
ROOT
HETATM    1  C           1     -21.115  -5.798  -6.977  0.00  0.00     0.260 C 
ENDROOT
BRANCH   1   2
HETATM    2  N           1     -19.717  -6.160  -7.384  0.00  0.00    -0.067 N 
HETATM    3  H           1     -19.538  -7.165  -7.160  0.00  0.00     0.275 HD
HETATM    4  H           1     -19.602  -6.006  -8.411  0.00  0.00     0.275 HD
HETATM    5  H           1     -19.038  -5.560  -6.863  0.00  0.00     0.275 HD
ENDBRANCH   1   2
BRANCH   1   6
HETATM    6  C           1     -21.103  -5.240  -5.560  0.00  0.00     0.079 C 
BRANCH   6   7
HETATM    7  C           1     -21.277  -6.359  -4.581  0.00  0.00    -0.056 A 
HETATM    8  C           1     -21.399  -7.672  -5.037  0.00  0.00     0.010 A 
HETATM    9  C           1     -21.561  -8.714  -4.124  0.00  0.00     0.037 A 
HETATM   10  C           1     -21.602  -8.445  -2.756  0.00  0.00     0.065 A 
HETATM   11  C           1     -21.480  -7.131  -2.301  0.00  0.00     0.037 A 
HETATM   12  C           1     -21.318  -6.089  -3.214  0.00  0.00     0.010 A 
BRANCH  10  13
HETATM   13  O           1     -21.760  -9.457  -1.870  0.00  0.00    -0.361 OA
HETATM   14  H           1     -22.641  -9.841  -2.007  0.00  0.00     0.217 HD
ENDBRANCH  10  13
ENDBRANCH   6   7
ENDBRANCH   1   6
BRANCH   1  15
HETATM   15  C           1     -21.661  -4.757  -7.924  0.00  0.00     0.130 C 
HETATM   16  N           1     -22.355  -5.143  -9.039  0.00  0.00    -0.359 N 
HETATM   17  H           1     -22.503  -6.126  -9.229  0.00  0.00     0.162 HD
HETATM   18  O           1     -21.484  -3.584  -7.699  0.00  0.00    -0.397 OA
BRANCH  16  19
HETATM   19  C           1     -22.879  -4.143  -9.949  0.00  0.00     0.184 C 
BRANCH  19  20
HETATM   20  C           1     -22.678  -4.608 -11.386  0.00  0.00     0.040 C 
BRANCH  20  21
HETATM   21  C           1     -21.952  -3.526 -12.173  0.00  0.00    -0.018 C 
HETATM   22  C           1     -20.894  -2.876 -11.290  0.00  0.00     0.289 C 
HETATM   23  C           1     -22.953  -2.470 -12.625  0.00  0.00     0.009 C 
ENDBRANCH  20  21
ENDBRANCH  19  20
BRANCH  19  24
HETATM   24  C           1     -24.352  -3.948  -9.686  0.00  0.00     0.196 C 
HETATM   25  O           1     -24.803  -2.801  -9.473  0.00  0.00    -0.646 OA
HETATM   26  O           1     -25.121  -4.932  -9.681  0.00  0.00    -0.646 OA
ENDBRANCH  19  24
ENDBRANCH  16  19
ENDBRANCH   1  15
TORSDOF 9
ENDMDL
MODEL 3
REMARK VINA RESULT:      -6.6      1.898      2.870
REMARK  9 active torsions:
REMARK  status: ('A' for Active; 'I' for Inactive)
REMARK    1  A    between atoms: N_3  and  C_26 
REMARK       I    between atoms: N_3  and  C_23 
REMARK    2  A    between atoms: C_4  and  C_16 
REMARK    3  A    between atoms: O_5  and  C_18 
REMARK    4  A    between atoms: C_7  and  C_13 
REMARK    5  A    between atoms: N_10  and  C_17 
REMARK    6  A    between atoms: C_13  and  C_26 
REMARK    7  A    between atoms: C_16  and  C_17 
REMARK    8  A    between atoms: C_17  and  C_23 
REMARK    9  A    between atoms: C_25  and  C_26 
ROOT
HETATM    1  C           1     -20.365  -5.255  -6.373  0.00  0.00     0.260 C 
ENDROOT
BRANCH   1   2
HETATM    2  N           1     -20.009  -6.121  -7.545  0.00  0.00    -0.067 N 
HETATM    3  H           1     -20.700  -5.968  -8.314  0.00  0.00     0.275 HD
HETATM    4  H           1     -19.052  -5.874  -7.883  0.00  0.00     0.275 HD
HETATM    5  H           1     -20.028  -7.125  -7.253  0.00  0.00     0.275 HD
ENDBRANCH   1   2
BRANCH   1   6
HETATM    6  C           1     -21.082  -4.005  -6.865  0.00  0.00     0.079 C 
BRANCH   6   7
HETATM    7  C           1     -21.358  -4.131  -8.330  0.00  0.00    -0.056 A 
HETATM    8  C           1     -20.326  -3.957  -9.252  0.00  0.00     0.010 A 
HETATM    9  C           1     -20.585  -4.075 -10.618  0.00  0.00     0.037 A 
HETATM   10  C           1     -21.874  -4.367 -11.062  0.00  0.00     0.065 A 
HETATM   11  C           1     -22.907  -4.541 -10.140  0.00  0.00     0.037 A 
HETATM   12  C           1     -22.648  -4.422  -8.774  0.00  0.00     0.010 A 
BRANCH  10  13
HETATM   13  O           1     -22.125  -4.481 -12.388  0.00  0.00    -0.361 OA
HETATM   14  H           1     -21.872  -5.377 -12.666  0.00  0.00     0.217 HD
ENDBRANCH  10  13
ENDBRANCH   6   7
ENDBRANCH   1   6
BRANCH   1  15
HETATM   15  C           1     -21.270  -6.020  -5.439  0.00  0.00     0.130 C 
HETATM   16  N           1     -20.737  -6.911  -4.546  0.00  0.00    -0.359 N 
HETATM   17  H           1     -19.736  -7.057  -4.512  0.00  0.00     0.162 HD
HETATM   18  O           1     -22.465  -5.847  -5.479  0.00  0.00    -0.397 OA
BRANCH  16  19
HETATM   19  C           1     -21.607  -7.646  -3.649  0.00  0.00     0.184 C 
BRANCH  19  20
HETATM   20  C           1     -21.067  -9.059  -3.462  0.00  0.00     0.040 C 
BRANCH  20  21
HETATM   21  C           1     -22.052 -10.061  -4.048  0.00  0.00    -0.018 C 
HETATM   22  C           1     -22.588 -10.956  -2.939  0.00  0.00     0.289 C 
HETATM   23  C           1     -21.343 -10.917  -5.091  0.00  0.00     0.009 C 
ENDBRANCH  20  21
ENDBRANCH  19  20
BRANCH  19  24
HETATM   24  C           1     -21.657  -6.947  -2.312  0.00  0.00     0.196 C 
HETATM   25  O           1     -21.044  -7.425  -1.333  0.00  0.00    -0.646 OA
HETATM   26  O           1     -22.312  -5.891  -2.185  0.00  0.00    -0.646 OA
ENDBRANCH  19  24
ENDBRANCH  16  19
ENDBRANCH   1  15
TORSDOF 9
ENDMDL
MODEL 4
REMARK VINA RESULT:      -6.5      1.785      2.778
REMARK  9 active torsions:
REMARK  status: ('A' for Active; 'I' for Inactive)
REMARK    1  A    between atoms: N_3  and  C_26 
REMARK       I    between atoms: N_3  and  C_23 
REMARK    2  A    between atoms: C_4  and  C_16 
REMARK    3  A    between atoms: O_5  and  C_18 
REMARK    4  A    between atoms: C_7  and  C_13 
REMARK    5  A    between atoms: N_10  and  C_17 
REMARK    6  A    between atoms: C_13  and  C_26 
REMARK    7  A    between atoms: C_16  and  C_17 
REMARK    8  A    between atoms: C_17  and  C_23 
REMARK    9  A    between atoms: C_25  and  C_26 
ROOT
HETATM    1  C           1     -21.672  -6.646  -5.350  0.00  0.00     0.260 C 
ENDROOT
BRANCH   1   2
HETATM    2  N           1     -22.852  -6.237  -4.519  0.00  0.00    -0.067 N 
HETATM    3  H           1     -22.795  -6.696  -3.582  0.00  0.00     0.275 HD
HETATM    4  H           1     -22.850  -5.199  -4.399  0.00  0.00     0.275 HD
HETATM    5  H           1     -23.734  -6.530  -4.998  0.00  0.00     0.275 HD
ENDBRANCH   1   2
BRANCH   1   6
HETATM    6  C           1     -20.778  -5.437  -5.591  0.00  0.00     0.079 C 
BRANCH   6   7
HETATM    7  C           1     -20.966  -4.948  -6.992  0.00  0.00    -0.056 A 
HETATM    8  C           1     -19.944  -5.105  -7.929  0.00  0.00     0.010 A 
HETATM    9  C           1     -20.120  -4.648  -9.235  0.00  0.00     0.037 A 
HETATM   10  C           1     -21.316  -4.035  -9.606  0.00  0.00     0.065 A 
HETATM   11  C           1     -22.338  -3.877  -8.668  0.00  0.00     0.037 A 
HETATM   12  C           1     -22.162  -4.334  -7.362  0.00  0.00     0.010 A 
BRANCH  10  13
HETATM   13  O           1     -21.486  -3.591 -10.874  0.00  0.00    -0.361 OA
HETATM   14  H           1     -22.392  -3.250 -10.954  0.00  0.00     0.217 HD
ENDBRANCH  10  13
ENDBRANCH   6   7
ENDBRANCH   1   6
BRANCH   1  15
HETATM   15  C           1     -20.892  -7.714  -4.623  0.00  0.00     0.130 C 
HETATM   16  N           1     -21.470  -8.401  -3.590  0.00  0.00    -0.359 N 
HETATM   17  H           1     -22.422  -8.193  -3.313  0.00  0.00     0.162 HD
HETATM   18  O           1     -19.756  -7.961  -4.952  0.00  0.00    -0.397 OA
BRANCH  16  19
HETATM   19  C           1     -20.721  -9.427  -2.892  0.00  0.00     0.184 C 
BRANCH  19  20
HETATM   20  C           1     -20.849  -9.215  -1.388  0.00  0.00     0.040 C 
BRANCH  20  21
HETATM   21  C           1     -22.248  -8.710  -1.063  0.00  0.00    -0.018 C 
HETATM   22  C           1     -22.150  -7.399  -0.295  0.00  0.00     0.289 C 
HETATM   23  C           1     -22.974  -9.743  -0.211  0.00  0.00     0.009 C 
ENDBRANCH  20  21
ENDBRANCH  19  20
BRANCH  19  24
HETATM   24  C           1     -21.268 -10.785  -3.256  0.00  0.00     0.196 C 
HETATM   25  O           1     -21.964 -10.924  -4.284  0.00  0.00    -0.646 OA
HETATM   26  O           1     -21.027 -11.771  -2.527  0.00  0.00    -0.646 OA
ENDBRANCH  19  24
ENDBRANCH  16  19
ENDBRANCH   1  15
TORSDOF 9
ENDMDL
MODEL 5
REMARK VINA RESULT:      -6.5      2.197      3.630
REMARK  9 active torsions:
REMARK  status: ('A' for Active; 'I' for Inactive)
REMARK    1  A    between atoms: N_3  and  C_26 
REMARK       I    between atoms: N_3  and  C_23 
REMARK    2  A    between atoms: C_4  and  C_16 
REMARK    3  A    between atoms: O_5  and  C_18 
REMARK    4  A    between atoms: C_7  and  C_13 
REMARK    5  A    between atoms: N_10  and  C_17 
REMARK    6  A    between atoms: C_13  and  C_26 
REMARK    7  A    between atoms: C_16  and  C_17 
REMARK    8  A    between atoms: C_17  and  C_23 
REMARK    9  A    between atoms: C_25  and  C_26 
ROOT
HETATM    1  C           1     -21.637  -6.289  -4.926  0.00  0.00     0.260 C 
ENDROOT
BRANCH   1   2
HETATM    2  N           1     -22.031  -6.074  -3.494  0.00  0.00    -0.067 N 
HETATM    3  H           1     -22.034  -5.051  -3.283  0.00  0.00     0.275 HD
HETATM    4  H           1     -22.986  -6.466  -3.333  0.00  0.00     0.275 HD
HETATM    5  H           1     -21.346  -6.557  -2.869  0.00  0.00     0.275 HD
ENDBRANCH   1   2
BRANCH   1   6
HETATM    6  C           1     -20.649  -5.209  -5.347  0.00  0.00     0.079 C 
BRANCH   6   7
HETATM    7  C           1     -20.938  -4.789  -6.754  0.00  0.00    -0.056 A 
HETATM    8  C           1     -19.900  -4.698  -7.682  0.00  0.00     0.010 A 
HETATM    9  C           1     -20.169  -4.306  -8.993  0.00  0.00     0.037 A 
HETATM   10  C           1     -21.476  -4.005  -9.377  0.00  0.00     0.065 A 
HETATM   11  C           1     -22.514  -4.096  -8.449  0.00  0.00     0.037 A 
HETATM   12  C           1     -22.244  -4.488  -7.138  0.00  0.00     0.010 A 
BRANCH  10  13
HETATM   13  O           1     -21.738  -3.624 -10.650  0.00  0.00    -0.361 OA
HETATM   14  H           1     -21.941  -2.674 -10.644  0.00  0.00     0.217 HD
ENDBRANCH  10  13
ENDBRANCH   6   7
ENDBRANCH   1   6
BRANCH   1  15
HETATM   15  C           1     -20.994  -7.646  -5.073  0.00  0.00     0.130 C 
HETATM   16  N           1     -20.289  -8.185  -4.031  0.00  0.00    -0.359 N 
HETATM   17  H           1     -20.198  -7.674  -3.162  0.00  0.00     0.162 HD
HETATM   18  O           1     -21.101  -8.255  -6.110  0.00  0.00    -0.397 OA
BRANCH  16  19
HETATM   19  C           1     -19.670  -9.489  -4.172  0.00  0.00     0.184 C 
BRANCH  19  20
HETATM   20  C           1     -18.253  -9.442  -3.615  0.00  0.00     0.040 C 
BRANCH  20  21
HETATM   21  C           1     -17.304 -10.143  -4.579  0.00  0.00    -0.018 C 
HETATM   22  C           1     -15.870  -9.741  -4.264  0.00  0.00     0.289 C 
HETATM   23  C           1     -17.642  -9.738  -6.007  0.00  0.00     0.009 C 
ENDBRANCH  20  21
ENDBRANCH  19  20
BRANCH  19  24
HETATM   24  C           1     -20.475 -10.512  -3.409  0.00  0.00     0.196 C 
HETATM   25  O           1     -21.275 -10.144  -2.521  0.00  0.00    -0.646 OA
HETATM   26  O           1     -20.342 -11.728  -3.664  0.00  0.00    -0.646 OA
ENDBRANCH  19  24
ENDBRANCH  16  19
ENDBRANCH   1  15
TORSDOF 9
ENDMDL
MODEL 6
REMARK VINA RESULT:      -6.3      2.272      3.309
REMARK  9 active torsions:
REMARK  status: ('A' for Active; 'I' for Inactive)
REMARK    1  A    between atoms: N_3  and  C_26 
REMARK       I    between atoms: N_3  and  C_23 
REMARK    2  A    between atoms: C_4  and  C_16 
REMARK    3  A    between atoms: O_5  and  C_18 
REMARK    4  A    between atoms: C_7  and  C_13 
REMARK    5  A    between atoms: N_10  and  C_17 
REMARK    6  A    between atoms: C_13  and  C_26 
REMARK    7  A    between atoms: C_16  and  C_17 
REMARK    8  A    between atoms: C_17  and  C_23 
REMARK    9  A    between atoms: C_25  and  C_26 
ROOT
HETATM    1  C           1     -20.650  -7.159  -4.815  0.00  0.00     0.260 C 
ENDROOT
BRANCH   1   2
HETATM    2  N           1     -21.285  -8.105  -5.791  0.00  0.00    -0.067 N 
HETATM    3  H           1     -22.320  -8.109  -5.649  0.00  0.00     0.275 HD
HETATM    4  H           1     -21.069  -7.796  -6.766  0.00  0.00     0.275 HD
HETATM    5  H           1     -20.908  -9.068  -5.638  0.00  0.00     0.275 HD
ENDBRANCH   1   2
BRANCH   1   6
HETATM    6  C           1     -21.317  -5.795  -4.922  0.00  0.00     0.079 C 
BRANCH   6   7
HETATM    7  C           1     -21.080  -5.228  -6.287  0.00  0.00    -0.056 A 
HETATM    8  C           1     -22.160  -4.822  -7.071  0.00  0.00     0.010 A 
HETATM    9  C           1     -21.937  -4.294  -8.343  0.00  0.00     0.037 A 
HETATM   10  C           1     -20.637  -4.172  -8.831  0.00  0.00     0.065 A 
HETATM   11  C           1     -19.557  -4.579  -8.047  0.00  0.00     0.037 A 
HETATM   12  C           1     -19.779  -5.107  -6.775  0.00  0.00     0.010 A 
BRANCH  10  13
HETATM   13  O           1     -20.421  -3.661 -10.066  0.00  0.00    -0.361 OA
HETATM   14  H           1     -19.588  -4.029 -10.404  0.00  0.00     0.217 HD
ENDBRANCH  10  13
ENDBRANCH   6   7
ENDBRANCH   1   6
BRANCH   1  15
HETATM   15  C           1     -20.818  -7.694  -3.414  0.00  0.00     0.130 C 
HETATM   16  N           1     -20.696  -9.036  -3.175  0.00  0.00    -0.359 N 
HETATM   17  H           1     -20.492  -9.671  -3.937  0.00  0.00     0.162 HD
HETATM   18  O           1     -21.063  -6.938  -2.504  0.00  0.00    -0.397 OA
BRANCH  16  19
HETATM   19  C           1     -20.858  -9.551  -1.829  0.00  0.00     0.184 C 
BRANCH  19  20
HETATM   20  C           1     -22.235 -10.188  -1.691  0.00  0.00     0.040 C 
BRANCH  20  21
HETATM   21  C           1     -22.722 -10.041  -0.255  0.00  0.00    -0.018 C 
HETATM   22  C           1     -24.041 -10.785  -0.086  0.00  0.00     0.289 C 
HETATM   23  C           1     -22.929  -8.566   0.062  0.00  0.00     0.009 C 
ENDBRANCH  20  21
ENDBRANCH  19  20
BRANCH  19  24
HETATM   24  C           1     -19.796 -10.587  -1.555  0.00  0.00     0.196 C 
HETATM   25  O           1     -20.050 -11.563  -0.817  0.00  0.00    -0.646 OA
HETATM   26  O           1     -18.662 -10.468  -2.065  0.00  0.00    -0.646 OA
ENDBRANCH  19  24
ENDBRANCH  16  19
ENDBRANCH   1  15
TORSDOF 9
ENDMDL
MODEL 7
REMARK VINA RESULT:      -6.2      6.821      8.930
REMARK  9 active torsions:
REMARK  status: ('A' for Active; 'I' for Inactive)
REMARK    1  A    between atoms: N_3  and  C_26 
REMARK       I    between atoms: N_3  and  C_23 
REMARK    2  A    between atoms: C_4  and  C_16 
REMARK    3  A    between atoms: O_5  and  C_18 
REMARK    4  A    between atoms: C_7  and  C_13 
REMARK    5  A    between atoms: N_10  and  C_17 
REMARK    6  A    between atoms: C_13  and  C_26 
REMARK    7  A    between atoms: C_16  and  C_17 
REMARK    8  A    between atoms: C_17  and  C_23 
REMARK    9  A    between atoms: C_25  and  C_26 
ROOT
HETATM    1  C           1     -21.041 -11.616  -0.086  0.00  0.00     0.260 C 
ENDROOT
BRANCH   1   2
HETATM    2  N           1     -22.006 -12.476   0.675  0.00  0.00    -0.067 N 
HETATM    3  H           1     -22.861 -12.636   0.097  0.00  0.00     0.275 HD
HETATM    4  H           1     -21.557 -13.394   0.894  0.00  0.00     0.275 HD
HETATM    5  H           1     -22.272 -11.996   1.565  0.00  0.00     0.275 HD
ENDBRANCH   1   2
BRANCH   1   6
HETATM    6  C           1     -20.738 -10.359   0.719  0.00  0.00     0.079 C 
BRANCH   6   7
HETATM    7  C           1     -21.195  -9.155  -0.044  0.00  0.00    -0.056 A 
HETATM    8  C           1     -20.583  -8.821  -1.252  0.00  0.00     0.010 A 
HETATM    9  C           1     -21.009  -7.699  -1.963  0.00  0.00     0.037 A 
HETATM   10  C           1     -22.047  -6.911  -1.466  0.00  0.00     0.065 A 
HETATM   11  C           1     -22.659  -7.244  -0.258  0.00  0.00     0.037 A 
HETATM   12  C           1     -22.232  -8.366   0.453  0.00  0.00     0.010 A 
BRANCH  10  13
HETATM   13  O           1     -22.460  -5.821  -2.156  0.00  0.00    -0.361 OA
HETATM   14  H           1     -21.867  -5.083  -1.937  0.00  0.00     0.217 HD
ENDBRANCH  10  13
ENDBRANCH   6   7
ENDBRANCH   1   6
BRANCH   1  15
HETATM   15  C           1     -19.763 -12.382  -0.323  0.00  0.00     0.130 C 
HETATM   16  N           1     -18.577 -11.711  -0.456  0.00  0.00    -0.359 N 
HETATM   17  H           1     -18.557 -10.701  -0.395  0.00  0.00     0.162 HD
HETATM   18  O           1     -19.786 -13.588  -0.396  0.00  0.00    -0.397 OA
BRANCH  16  19
HETATM   19  C           1     -17.349 -12.448  -0.683  0.00  0.00     0.184 C 
BRANCH  19  20
HETATM   20  C           1     -16.669 -11.926  -1.944  0.00  0.00     0.040 C 
BRANCH  20  21
HETATM   21  C           1     -17.320 -10.615  -2.366  0.00  0.00    -0.018 C 
HETATM   22  C           1     -18.148 -10.840  -3.624  0.00  0.00     0.289 C 
HETATM   23  C           1     -16.237  -9.581  -2.650  0.00  0.00     0.009 C 
ENDBRANCH  20  21
ENDBRANCH  19  20
BRANCH  19  24
HETATM   24  C           1     -16.427 -12.264   0.497  0.00  0.00     0.196 C 
HETATM   25  O           1     -15.455 -11.482   0.416  0.00  0.00    -0.646 OA
HETATM   26  O           1     -16.634 -12.896   1.555  0.00  0.00    -0.646 OA
ENDBRANCH  19  24
ENDBRANCH  16  19
ENDBRANCH   1  15
TORSDOF 9
ENDMDL
MODEL 8
REMARK VINA RESULT:      -6.1      2.652      4.191
REMARK  9 active torsions:
REMARK  status: ('A' for Active; 'I' for Inactive)
REMARK    1  A    between atoms: N_3  and  C_26 
REMARK       I    between atoms: N_3  and  C_23 
REMARK    2  A    between atoms: C_4  and  C_16 
REMARK    3  A    between atoms: O_5  and  C_18 
REMARK    4  A    between atoms: C_7  and  C_13 
REMARK    5  A    between atoms: N_10  and  C_17 
REMARK    6  A    between atoms: C_13  and  C_26 
REMARK    7  A    between atoms: C_16  and  C_17 
REMARK    8  A    between atoms: C_17  and  C_23 
REMARK    9  A    between atoms: C_25  and  C_26 
ROOT
HETATM    1  C           1     -20.635  -7.465  -4.764  0.00  0.00     0.260 C 
ENDROOT
BRANCH   1   2
HETATM    2  N           1     -21.045  -8.053  -6.082  0.00  0.00    -0.067 N 
HETATM    3  H           1     -21.358  -9.040  -5.942  0.00  0.00     0.275 HD
HETATM    4  H           1     -21.831  -7.493  -6.484  0.00  0.00     0.275 HD
HETATM    5  H           1     -20.232  -8.034  -6.739  0.00  0.00     0.275 HD
ENDBRANCH   1   2
BRANCH   1   6
HETATM    6  C           1     -21.055  -6.002  -4.709  0.00  0.00     0.079 C 
BRANCH   6   7
HETATM    7  C           1     -20.867  -5.377  -6.055  0.00  0.00    -0.056 A 
HETATM    8  C           1     -19.582  -5.091  -6.518  0.00  0.00     0.010 A 
HETATM    9  C           1     -19.407  -4.508  -7.773  0.00  0.00     0.037 A 
HETATM   10  C           1     -20.516  -4.210  -8.566  0.00  0.00     0.065 A 
HETATM   11  C           1     -21.801  -4.496  -8.102  0.00  0.00     0.037 A 
HETATM   12  C           1     -21.976  -5.079  -6.847  0.00  0.00     0.010 A 
BRANCH  10  13
HETATM   13  O           1     -20.346  -3.644  -9.784  0.00  0.00    -0.361 OA
HETATM   14  H           1     -20.544  -4.314 -10.458  0.00  0.00     0.217 HD
ENDBRANCH  10  13
ENDBRANCH   6   7
ENDBRANCH   1   6
BRANCH   1  15
HETATM   15  C           1     -21.304  -8.224  -3.645  0.00  0.00     0.130 C 
HETATM   16  N           1     -21.131  -7.824  -2.348  0.00  0.00    -0.359 N 
HETATM   17  H           1     -20.554  -7.019  -2.138  0.00  0.00     0.162 HD
HETATM   18  O           1     -21.992  -9.186  -3.894  0.00  0.00    -0.397 OA
BRANCH  16  19
HETATM   19  C           1     -21.774  -8.554  -1.272  0.00  0.00     0.184 C 
BRANCH  19  20
HETATM   20  C           1     -20.712  -9.191  -0.385  0.00  0.00     0.040 C 
BRANCH  20  21
HETATM   21  C           1     -21.036 -10.666  -0.182  0.00  0.00    -0.018 C 
HETATM   22  C           1     -19.840 -11.512  -0.597  0.00  0.00     0.289 C 
HETATM   23  C           1     -22.242 -11.041  -1.033  0.00  0.00     0.009 C 
ENDBRANCH  20  21
ENDBRANCH  19  20
BRANCH  19  24
HETATM   24  C           1     -22.610  -7.604  -0.450  0.00  0.00     0.196 C 
HETATM   25  O           1     -22.666  -6.394  -0.757  0.00  0.00    -0.646 OA
HETATM   26  O           1     -23.245  -8.028   0.539  0.00  0.00    -0.646 OA
ENDBRANCH  19  24
ENDBRANCH  16  19
ENDBRANCH   1  15
TORSDOF 9
ENDMDL
MODEL 9
REMARK VINA RESULT:      -5.8      6.090      8.134
REMARK  9 active torsions:
REMARK  status: ('A' for Active; 'I' for Inactive)
REMARK    1  A    between atoms: N_3  and  C_26 
REMARK       I    between atoms: N_3  and  C_23 
REMARK    2  A    between atoms: C_4  and  C_16 
REMARK    3  A    between atoms: O_5  and  C_18 
REMARK    4  A    between atoms: C_7  and  C_13 
REMARK    5  A    between atoms: N_10  and  C_17 
REMARK    6  A    between atoms: C_13  and  C_26 
REMARK    7  A    between atoms: C_16  and  C_17 
REMARK    8  A    between atoms: C_17  and  C_23 
REMARK    9  A    between atoms: C_25  and  C_26 
ROOT
HETATM    1  C           1     -19.584  -9.326  -3.814  0.00  0.00     0.260 C 
ENDROOT
BRANCH   1   2
HETATM    2  N           1     -19.674  -8.275  -4.880  0.00  0.00    -0.067 N 
HETATM    3  H           1     -18.992  -8.492  -5.642  0.00  0.00     0.275 HD
HETATM    4  H           1     -20.642  -8.260  -5.273  0.00  0.00     0.275 HD
HETATM    5  H           1     -19.449  -7.341  -4.468  0.00  0.00     0.275 HD
ENDBRANCH   1   2
BRANCH   1   6
HETATM    6  C           1     -18.449  -8.982  -2.857  0.00  0.00     0.079 C 
BRANCH   6   7
HETATM    7  C           1     -17.291  -9.896  -3.106  0.00  0.00    -0.056 A 
HETATM    8  C           1     -16.859 -10.764  -2.103  0.00  0.00     0.010 A 
HETATM    9  C           1     -15.779 -11.616  -2.336  0.00  0.00     0.037 A 
HETATM   10  C           1     -15.131 -11.600  -3.570  0.00  0.00     0.065 A 
HETATM   11  C           1     -15.562 -10.731  -4.573  0.00  0.00     0.037 A 
HETATM   12  C           1     -16.642  -9.879  -4.341  0.00  0.00     0.010 A 
BRANCH  10  13
HETATM   13  O           1     -14.082 -12.426  -3.796  0.00  0.00    -0.361 OA
HETATM   14  H           1     -14.296 -13.295  -3.418  0.00  0.00     0.217 HD
ENDBRANCH  10  13
ENDBRANCH   6   7
ENDBRANCH   1   6
BRANCH   1  15
HETATM   15  C           1     -20.885  -9.382  -3.052  0.00  0.00     0.130 C 
HETATM   16  N           1     -20.892  -9.207  -1.695  0.00  0.00    -0.359 N 
HETATM   17  H           1     -20.024  -9.039  -1.201  0.00  0.00     0.162 HD
HETATM   18  O           1     -21.921  -9.584  -3.640  0.00  0.00    -0.397 OA
BRANCH  16  19
HETATM   19  C           1     -22.142  -9.261  -0.962  0.00  0.00     0.184 C 
BRANCH  19  20
HETATM   20  C           1     -22.117 -10.442   0.000  0.00  0.00     0.040 C 
BRANCH  20  21
HETATM   21  C           1     -23.472 -11.136  -0.010  0.00  0.00    -0.018 C 
HETATM   22  C           1     -23.362 -12.478   0.701  0.00  0.00     0.289 C 
HETATM   23  C           1     -23.916 -11.360  -1.450  0.00  0.00     0.009 C 
ENDBRANCH  20  21
ENDBRANCH  19  20
BRANCH  19  24
HETATM   24  C           1     -22.325  -7.982  -0.183  0.00  0.00     0.196 C 
HETATM   25  O           1     -22.725  -6.949  -0.762  0.00  0.00    -0.646 OA
HETATM   26  O           1     -22.073  -7.955   1.040  0.00  0.00    -0.646 OA
ENDBRANCH  19  24
ENDBRANCH  16  19
ENDBRANCH   1  15
TORSDOF 9
ENDMDL
