MODEL 1
REMARK VINA RESULT:      -6.2      0.000      0.000
REMARK  5 active torsions:
REMARK  status: ('A' for Active; 'I' for Inactive)
REMARK    1  A    between atoms: C_3  and  C_6 
REMARK    2  A    between atoms: C_3  and  C_17 
REMARK    3  A    between atoms: C_9  and  C_10 
REMARK       I    between atoms: C_10  and  N_15 
REMARK    4  A    between atoms: N_15  and  C_17 
REMARK    5  A    between atoms: C_16  and  C_17 
ROOT
HETATM    1  H           1     -22.648  -5.905  -8.907  0.00  0.00     0.162 HD
HETATM    2  C           1     -22.040  -4.358  -7.674  0.00  0.00     0.133 C 
HETATM    3  N           1     -22.584  -4.900  -8.807  0.00  0.00    -0.359 N 
HETATM    4  O           1     -21.964  -3.158  -7.556  0.00  0.00    -0.397 OA
ENDROOT
BRANCH   3   5
HETATM    5  C           1     -23.069  -4.034  -9.865  0.00  0.00     0.184 C 
BRANCH   5   6
HETATM    6  C           1     -22.754  -4.660 -11.218  0.00  0.00     0.040 C 
BRANCH   6   7
HETATM    7  C           1     -21.879  -3.710 -12.024  0.00  0.00    -0.018 C 
HETATM    8  C           1     -20.697  -3.262 -11.176  0.00  0.00     0.289 C 
HETATM    9  C           1     -22.697  -2.494 -12.438  0.00  0.00     0.009 C 
ENDBRANCH   6   7
ENDBRANCH   5   6
BRANCH   5  10
HETATM   10  C           1     -24.562  -3.861  -9.727  0.00  0.00     0.196 C 
HETATM   11  O           1     -25.052  -2.715  -9.633  0.00  0.00    -0.646 OA
HETATM   12  O           1     -25.308  -4.863  -9.708  0.00  0.00    -0.646 OA
ENDBRANCH   5  10
ENDBRANCH   3   5
BRANCH   2  13
HETATM   13  C           1     -21.536  -5.258  -6.573  0.00  0.00     0.292 C 
HETATM   14  C           1     -20.507  -4.540  -5.717  0.00  0.00     0.046 C 
HETATM   15  C           1     -19.158  -4.932  -6.307  0.00  0.00     0.033 C 
HETATM   16  C           1     -19.485  -5.858  -7.465  0.00  0.00     0.270 C 
HETATM   17  N           1     -20.801  -6.392  -7.124  0.00  0.00     0.095 N 
HETATM   18  H           1     -20.698  -7.130  -6.427  0.00  0.00     0.316 HD
ENDBRANCH   2  13
TORSDOF 5
ENDMDL
MODEL 2
REMARK VINA RESULT:      -5.4     17.069     18.917
REMARK  5 active torsions:
REMARK  status: ('A' for Active; 'I' for Inactive)
REMARK    1  A    between atoms: C_3  and  C_6 
REMARK    2  A    between atoms: C_3  and  C_17 
REMARK    3  A    between atoms: C_9  and  C_10 
REMARK       I    between atoms: C_10  and  N_15 
REMARK    4  A    between atoms: N_15  and  C_17 
REMARK    5  A    between atoms: C_16  and  C_17 
ROOT
HETATM    1  H           1     -11.998   5.485 -19.598  0.00  0.00     0.162 HD
HETATM    2  C           1     -12.314   7.284 -20.572  0.00  0.00     0.133 C 
HETATM    3  N           1     -12.513   5.951 -20.335  0.00  0.00    -0.359 N 
HETATM    4  O           1     -12.929   7.839 -21.452  0.00  0.00    -0.397 OA
ENDROOT
BRANCH   3   5
HETATM    5  C           1     -13.463   5.205 -21.138  0.00  0.00     0.184 C 
BRANCH   5   6
HETATM    6  C           1     -12.907   3.816 -21.423  0.00  0.00     0.040 C 
BRANCH   6   7
HETATM    7  C           1     -11.395   3.828 -21.246  0.00  0.00    -0.018 C 
HETATM    8  C           1     -10.724   3.950 -22.607  0.00  0.00     0.289 C 
HETATM    9  C           1     -10.952   2.535 -20.575  0.00  0.00     0.009 C 
ENDBRANCH   6   7
ENDBRANCH   5   6
BRANCH   5  10
HETATM   10  C           1     -14.767   5.079 -20.386  0.00  0.00     0.196 C 
HETATM   11  O           1     -14.767   4.707 -19.194  0.00  0.00    -0.646 OA
HETATM   12  O           1     -15.845   5.347 -20.958  0.00  0.00    -0.646 OA
ENDBRANCH   5  10
ENDBRANCH   3   5
BRANCH   2  13
HETATM   13  C           1     -11.326   8.061 -19.737  0.00  0.00     0.292 C 
HETATM   14  C           1     -10.890   9.326 -20.453  0.00  0.00     0.046 C 
HETATM   15  C           1      -9.599   8.951 -21.171  0.00  0.00     0.033 C 
HETATM   16  C           1      -9.361   7.492 -20.823  0.00  0.00     0.270 C 
HETATM   17  N           1     -10.085   7.311 -19.567  0.00  0.00     0.095 N 
HETATM   18  H           1      -9.533   7.692 -18.799  0.00  0.00     0.316 HD
ENDBRANCH   2  13
TORSDOF 5
ENDMDL
MODEL 3
REMARK VINA RESULT:      -5.3      3.857      6.694
REMARK  5 active torsions:
REMARK  status: ('A' for Active; 'I' for Inactive)
REMARK    1  A    between atoms: C_3  and  C_6 
REMARK    2  A    between atoms: C_3  and  C_17 
REMARK    3  A    between atoms: C_9  and  C_10 
REMARK       I    between atoms: C_10  and  N_15 
REMARK    4  A    between atoms: N_15  and  C_17 
REMARK    5  A    between atoms: C_16  and  C_17 
ROOT
HETATM    1  H           1     -19.717  -5.981  -4.699  0.00  0.00     0.162 HD
HETATM    2  C           1     -21.434  -5.351  -5.669  0.00  0.00     0.133 C 
HETATM    3  N           1     -20.707  -6.148  -4.826  0.00  0.00    -0.359 N 
HETATM    4  O           1     -22.616  -5.552  -5.820  0.00  0.00    -0.397 OA
ENDROOT
BRANCH   3   5
HETATM    5  C           1     -21.356  -7.233  -4.114  0.00  0.00     0.184 C 
BRANCH   5   6
HETATM    6  C           1     -20.465  -8.469  -4.150  0.00  0.00     0.040 C 
BRANCH   6   7
HETATM    7  C           1     -21.228  -9.625  -4.781  0.00  0.00    -0.018 C 
HETATM    8  C           1     -22.075 -10.315  -3.721  0.00  0.00     0.289 C 
HETATM    9  C           1     -20.240 -10.623  -5.370  0.00  0.00     0.009 C 
ENDBRANCH   6   7
ENDBRANCH   5   6
BRANCH   5  10
HETATM   10  C           1     -21.590  -6.824  -2.680  0.00  0.00     0.196 C 
HETATM   11  O           1     -22.448  -5.957  -2.410  0.00  0.00    -0.646 OA
HETATM   12  O           1     -20.924  -7.351  -1.763  0.00  0.00    -0.646 OA
ENDBRANCH   5  10
ENDBRANCH   3   5
BRANCH   2  13
HETATM   13  C           1     -20.759  -4.222  -6.409  0.00  0.00     0.292 C 
HETATM   14  C           1     -21.646  -3.704  -7.528  0.00  0.00     0.046 C 
HETATM   15  C           1     -21.191  -4.454  -8.774  0.00  0.00     0.033 C 
HETATM   16  C           1     -20.063  -5.357  -8.304  0.00  0.00     0.270 C 
HETATM   17  N           1     -19.565  -4.695  -7.102  0.00  0.00     0.095 N 
HETATM   18  H           1     -18.967  -3.913  -7.368  0.00  0.00     0.316 HD
ENDBRANCH   2  13
TORSDOF 5
ENDMDL
MODEL 4
REMARK VINA RESULT:      -5.3      5.804      8.976
REMARK  5 active torsions:
REMARK  status: ('A' for Active; 'I' for Inactive)
REMARK    1  A    between atoms: C_3  and  C_6 
REMARK    2  A    between atoms: C_3  and  C_17 
REMARK    3  A    between atoms: C_9  and  C_10 
REMARK       I    between atoms: C_10  and  N_15 
REMARK    4  A    between atoms: N_15  and  C_17 
REMARK    5  A    between atoms: C_16  and  C_17 
ROOT
HETATM    1  H           1     -21.143  -8.911  -3.898  0.00  0.00     0.162 HD
HETATM    2  C           1     -21.420  -6.888  -3.557  0.00  0.00     0.133 C 
HETATM    3  N           1     -21.051  -8.163  -3.222  0.00  0.00    -0.359 N 
HETATM    4  O           1     -21.309  -5.997  -2.749  0.00  0.00    -0.397 OA
ENDROOT
BRANCH   3   5
HETATM    5  C           1     -20.526  -8.443  -1.899  0.00  0.00     0.184 C 
BRANCH   5   6
HETATM    6  C           1     -21.639  -8.998  -1.018  0.00  0.00     0.040 C 
BRANCH   6   7
HETATM    7  C           1     -21.801  -8.115   0.211  0.00  0.00    -0.018 C 
HETATM    8  C           1     -21.045  -8.728   1.381  0.00  0.00     0.289 C 
HETATM    9  C           1     -23.278  -8.003   0.564  0.00  0.00     0.009 C 
ENDBRANCH   6   7
ENDBRANCH   5   6
BRANCH   5  10
HETATM   10  C           1     -19.415  -9.459  -2.003  0.00  0.00     0.196 C 
HETATM   11  O           1     -19.514 -10.557  -1.414  0.00  0.00    -0.646 OA
HETATM   12  O           1     -18.395  -9.202  -2.679  0.00  0.00    -0.646 OA
ENDBRANCH   5  10
ENDBRANCH   3   5
BRANCH   2  13
HETATM   13  C           1     -21.965  -6.597  -4.933  0.00  0.00     0.292 C 
HETATM   14  C           1     -21.220  -7.394  -5.989  0.00  0.00     0.046 C 
HETATM   15  C           1     -20.132  -6.457  -6.500  0.00  0.00     0.033 C 
HETATM   16  C           1     -20.315  -5.171  -5.714  0.00  0.00     0.270 C 
HETATM   17  N           1     -21.717  -5.208  -5.307  0.00  0.00     0.095 N 
HETATM   18  H           1     -22.306  -4.934  -6.093  0.00  0.00     0.316 HD
ENDBRANCH   2  13
TORSDOF 5
ENDMDL
MODEL 5
REMARK VINA RESULT:      -5.1      7.132      9.022
REMARK  5 active torsions:
REMARK  status: ('A' for Active; 'I' for Inactive)
REMARK    1  A    between atoms: C_3  and  C_6 
REMARK    2  A    between atoms: C_3  and  C_17 
REMARK    3  A    between atoms: C_9  and  C_10 
REMARK       I    between atoms: C_10  and  N_15 
REMARK    4  A    between atoms: N_15  and  C_17 
REMARK    5  A    between atoms: C_16  and  C_17 
ROOT
HETATM    1  H           1     -20.726 -10.437  -2.726  0.00  0.00     0.162 HD
HETATM    2  C           1     -21.056  -8.510  -2.047  0.00  0.00     0.133 C 
HETATM    3  N           1     -20.414  -9.475  -2.775  0.00  0.00    -0.359 N 
HETATM    4  O           1     -20.683  -7.362  -2.106  0.00  0.00    -0.397 OA
ENDROOT
BRANCH   3   5
HETATM    5  C           1     -19.289  -9.120  -3.619  0.00  0.00     0.184 C 
BRANCH   5   6
HETATM    6  C           1     -18.213 -10.192  -3.508  0.00  0.00     0.040 C 
BRANCH   6   7
HETATM    7  C           1     -16.868  -9.607  -3.916  0.00  0.00    -0.018 C 
HETATM    8  C           1     -16.261 -10.452  -5.027  0.00  0.00     0.289 C 
HETATM    9  C           1     -15.933  -9.599  -2.715  0.00  0.00     0.009 C 
ENDBRANCH   6   7
ENDBRANCH   5   6
BRANCH   5  10
HETATM   10  C           1     -19.749  -9.015  -5.053  0.00  0.00     0.196 C 
HETATM   11  O           1     -20.138 -10.035  -5.660  0.00  0.00    -0.646 OA
HETATM   12  O           1     -19.740  -7.908  -5.632  0.00  0.00    -0.646 OA
ENDBRANCH   5  10
ENDBRANCH   3   5
BRANCH   2  13
HETATM   13  C           1     -22.227  -8.879  -1.170  0.00  0.00     0.292 C 
HETATM   14  C           1     -22.534  -7.768  -0.183  0.00  0.00     0.046 C 
HETATM   15  C           1     -21.788  -8.150   1.090  0.00  0.00     0.033 C 
HETATM   16  C           1     -21.099  -9.464   0.766  0.00  0.00     0.270 C 
HETATM   17  N           1     -21.902 -10.020  -0.320  0.00  0.00     0.095 N 
HETATM   18  H           1     -22.748 -10.440   0.064  0.00  0.00     0.316 HD
ENDBRANCH   2  13
TORSDOF 5
ENDMDL
MODEL 6
REMARK VINA RESULT:      -5.1      7.732     10.290
REMARK  5 active torsions:
REMARK  status: ('A' for Active; 'I' for Inactive)
REMARK    1  A    between atoms: C_3  and  C_6 
REMARK    2  A    between atoms: C_3  and  C_17 
REMARK    3  A    between atoms: C_9  and  C_10 
REMARK       I    between atoms: C_10  and  N_15 
REMARK    4  A    between atoms: N_15  and  C_17 
REMARK    5  A    between atoms: C_16  and  C_17 
ROOT
HETATM    1  H           1     -22.673 -10.808  -2.304  0.00  0.00     0.162 HD
HETATM    2  C           1     -20.691 -10.213  -2.263  0.00  0.00     0.133 C 
HETATM    3  N           1     -21.911 -10.501  -1.713  0.00  0.00    -0.359 N 
HETATM    4  O           1     -19.782  -9.846  -1.556  0.00  0.00    -0.397 OA
ENDROOT
BRANCH   3   5
HETATM    5  C           1     -22.112 -10.366  -0.283  0.00  0.00     0.184 C 
BRANCH   5   6
HETATM    6  C           1     -23.242  -9.378  -0.020  0.00  0.00     0.040 C 
BRANCH   6   7
HETATM    7  C           1     -22.662  -8.071   0.502  0.00  0.00    -0.018 C 
HETATM    8  C           1     -22.414  -7.123  -0.662  0.00  0.00     0.289 C 
HETATM    9  C           1     -21.347  -8.349   1.219  0.00  0.00     0.009 C 
ENDBRANCH   6   7
ENDBRANCH   5   6
BRANCH   5  10
HETATM   10  C           1     -22.474 -11.709   0.303  0.00  0.00     0.196 C 
HETATM   11  O           1     -21.575 -12.471   0.718  0.00  0.00    -0.646 OA
HETATM   12  O           1     -23.671 -12.059   0.372  0.00  0.00    -0.646 OA
ENDBRANCH   5  10
ENDBRANCH   3   5
BRANCH   2  13
HETATM   13  C           1     -20.481 -10.354  -3.750  0.00  0.00     0.292 C 
HETATM   14  C           1     -19.336  -9.475  -4.220  0.00  0.00     0.046 C 
HETATM   15  C           1     -19.995  -8.184  -4.693  0.00  0.00     0.033 C 
HETATM   16  C           1     -21.483  -8.396  -4.475  0.00  0.00     0.270 C 
HETATM   17  N           1     -21.634  -9.848  -4.489  0.00  0.00     0.095 N 
HETATM   18  H           1     -21.622 -10.182  -5.453  0.00  0.00     0.316 HD
ENDBRANCH   2  13
TORSDOF 5
ENDMDL
MODEL 7
REMARK VINA RESULT:      -5.1      6.182      8.172
REMARK  5 active torsions:
REMARK  status: ('A' for Active; 'I' for Inactive)
REMARK    1  A    between atoms: C_3  and  C_6 
REMARK    2  A    between atoms: C_3  and  C_17 
REMARK    3  A    between atoms: C_9  and  C_10 
REMARK       I    between atoms: C_10  and  N_15 
REMARK    4  A    between atoms: N_15  and  C_17 
REMARK    5  A    between atoms: C_16  and  C_17 
ROOT
HETATM    1  H           1     -22.524  -9.020  -2.718  0.00  0.00     0.162 HD
HETATM    2  C           1     -20.843  -8.742  -1.543  0.00  0.00     0.133 C 
HETATM    3  N           1     -21.616  -8.577  -2.661  0.00  0.00    -0.359 N 
HETATM    4  O           1     -19.759  -8.212  -1.475  0.00  0.00    -0.397 OA
ENDROOT
BRANCH   3   5
HETATM    5  C           1     -21.134  -7.766  -3.763  0.00  0.00     0.184 C 
BRANCH   5   6
HETATM    6  C           1     -21.252  -8.552  -5.062  0.00  0.00     0.040 C 
BRANCH   6   7
HETATM    7  C           1     -20.542  -9.891  -4.911  0.00  0.00    -0.018 C 
HETATM    8  C           1     -19.054  -9.710  -5.178  0.00  0.00     0.289 C 
HETATM    9  C           1     -21.119 -10.886  -5.908  0.00  0.00     0.009 C 
ENDBRANCH   6   7
ENDBRANCH   5   6
BRANCH   5  10
HETATM   10  C           1     -21.962  -6.507  -3.860  0.00  0.00     0.196 C 
HETATM   11  O           1     -22.234  -6.024  -4.980  0.00  0.00    -0.646 OA
HETATM   12  O           1     -22.374  -5.949  -2.821  0.00  0.00    -0.646 OA
ENDBRANCH   5  10
ENDBRANCH   3   5
BRANCH   2  13
HETATM   13  C           1     -21.345  -9.585  -0.396  0.00  0.00     0.292 C 
HETATM   14  C           1     -22.859  -9.695  -0.428  0.00  0.00     0.046 C 
HETATM   15  C           1     -23.357  -8.592   0.499  0.00  0.00     0.033 C 
HETATM   16  C           1     -22.101  -7.914   1.018  0.00  0.00     0.270 C 
HETATM   17  N           1     -21.070  -8.939   0.883  0.00  0.00     0.095 N 
HETATM   18  H           1     -21.151  -9.606   1.651  0.00  0.00     0.316 HD
ENDBRANCH   2  13
TORSDOF 5
ENDMDL
MODEL 8
REMARK VINA RESULT:      -5.0     19.260     21.292
REMARK  5 active torsions:
REMARK  status: ('A' for Active; 'I' for Inactive)
REMARK    1  A    between atoms: C_3  and  C_6 
REMARK    2  A    between atoms: C_3  and  C_17 
REMARK    3  A    between atoms: C_9  and  C_10 
REMARK       I    between atoms: C_10  and  N_15 
REMARK    4  A    between atoms: N_15  and  C_17 
REMARK    5  A    between atoms: C_16  and  C_17 
ROOT
HETATM    1  H           1     -15.054  11.079   4.616  0.00  0.00     0.162 HD
HETATM    2  C           1     -16.860  10.075   4.746  0.00  0.00     0.133 C 
HETATM    3  N           1     -15.496  10.170   4.674  0.00  0.00    -0.359 N 
HETATM    4  O           1     -17.386   8.989   4.816  0.00  0.00    -0.397 OA
ENDROOT
BRANCH   3   5
HETATM    5  C           1     -14.683   8.968   4.683  0.00  0.00     0.184 C 
BRANCH   5   6
HETATM    6  C           1     -13.604   9.077   3.614  0.00  0.00     0.040 C 
BRANCH   6   7
HETATM    7  C           1     -14.254   9.300   2.256  0.00  0.00    -0.018 C 
HETATM    8  C           1     -14.789   7.977   1.725  0.00  0.00     0.289 C 
HETATM    9  C           1     -13.223   9.857   1.284  0.00  0.00     0.009 C 
ENDBRANCH   6   7
ENDBRANCH   5   6
BRANCH   5  10
HETATM   10  C           1     -14.036   8.809   6.037  0.00  0.00     0.196 C 
HETATM   11  O           1     -14.742   8.596   7.046  0.00  0.00    -0.646 OA
HETATM   12  O           1     -12.794   8.892   6.149  0.00  0.00    -0.646 OA
ENDBRANCH   5  10
ENDBRANCH   3   5
BRANCH   2  13
HETATM   13  C           1     -17.705  11.324   4.738  0.00  0.00     0.292 C 
HETATM   14  C           1     -16.876  12.540   5.113  0.00  0.00     0.046 C 
HETATM   15  C           1     -17.086  12.715   6.612  0.00  0.00     0.033 C 
HETATM   16  C           1     -18.028  11.595   7.015  0.00  0.00     0.270 C 
HETATM   17  N           1     -18.729  11.267   5.776  0.00  0.00     0.095 N 
HETATM   18  H           1     -19.458  11.959   5.605  0.00  0.00     0.316 HD
ENDBRANCH   2  13
TORSDOF 5
ENDMDL
MODEL 9
REMARK VINA RESULT:      -5.0      7.550      9.907
REMARK  5 active torsions:
REMARK  status: ('A' for Active; 'I' for Inactive)
REMARK    1  A    between atoms: C_3  and  C_6 
REMARK    2  A    between atoms: C_3  and  C_17 
REMARK    3  A    between atoms: C_9  and  C_10 
REMARK       I    between atoms: C_10  and  N_15 
REMARK    4  A    between atoms: N_15  and  C_17 
REMARK    5  A    between atoms: C_16  and  C_17 
ROOT
HETATM    1  H           1     -19.976  -9.132  -0.905  0.00  0.00     0.162 HD
HETATM    2  C           1     -20.661  -8.968  -2.851  0.00  0.00     0.133 C 
HETATM    3  N           1     -20.798  -9.090  -1.495  0.00  0.00    -0.359 N 
HETATM    4  O           1     -21.643  -8.918  -3.554  0.00  0.00    -0.397 OA
ENDROOT
BRANCH   3   5
HETATM    5  C           1     -22.119  -9.157  -0.901  0.00  0.00     0.184 C 
BRANCH   5   6
HETATM    6  C           1     -22.188 -10.345   0.051  0.00  0.00     0.040 C 
BRANCH   6   7
HETATM    7  C           1     -23.513 -11.070  -0.137  0.00  0.00    -0.018 C 
HETATM    8  C           1     -23.459 -12.419   0.566  0.00  0.00     0.289 C 
HETATM    9  C           1     -23.769 -11.282  -1.623  0.00  0.00     0.009 C 
ENDBRANCH   6   7
ENDBRANCH   5   6
BRANCH   5  10
HETATM   10  C           1     -22.393  -7.884  -0.138  0.00  0.00     0.196 C 
HETATM   11  O           1     -22.768  -6.859  -0.747  0.00  0.00    -0.646 OA
HETATM   12  O           1     -22.245  -7.856   1.103  0.00  0.00    -0.646 OA
ENDBRANCH   5  10
ENDBRANCH   3   5
BRANCH   2  13
HETATM   13  C           1     -19.286  -8.897  -3.469  0.00  0.00     0.292 C 
HETATM   14  C           1     -19.359  -9.099  -4.972  0.00  0.00     0.046 C 
HETATM   15  C           1     -19.099 -10.585  -5.186  0.00  0.00     0.033 C 
HETATM   16  C           1     -18.885 -11.154  -3.794  0.00  0.00     0.270 C 
HETATM   17  N           1     -18.452 -10.002  -3.009  0.00  0.00     0.095 N 
HETATM   18  H           1     -17.467  -9.815  -3.196  0.00  0.00     0.316 HD
ENDBRANCH   2  13
TORSDOF 5
ENDMDL
