MODEL 1
REMARK VINA RESULT:      -6.7      0.000      0.000
REMARK  8 active torsions:
REMARK  status: ('A' for Active; 'I' for Inactive)
REMARK    1  A    between atoms: N_2  and  C_8 
REMARK       I    between atoms: C_5  and  N_6 
REMARK    2  A    between atoms: C_5  and  C_8 
REMARK    3  A    between atoms: N_6  and  C_12 
REMARK    4  A    between atoms: C_7  and  C_8 
REMARK    5  A    between atoms: C_7  and  C_17 
REMARK    6  A    between atoms: C_11  and  C_12 
REMARK    7  A    between atoms: C_12  and  C_13 
REMARK    8  A    between atoms: C_13  and  C_15 
ROOT
HETATM    1  O           1     -35.055  -2.426 -13.933  0.00  0.00    -0.271 OA
HETATM    2  H           1     -35.520   0.269 -12.399  0.00  0.00     0.163 HD
HETATM    3  C           1     -35.174  -1.235 -13.778  0.00  0.00     0.249 C 
HETATM    4  N           1     -35.421  -0.730 -12.529  0.00  0.00    -0.345 N 
ENDROOT
BRANCH   3   5
HETATM    5  C           1     -35.051  -0.303 -14.958  0.00  0.00     0.284 C 
BRANCH   5   6
HETATM    6  N           1     -35.068  -1.101 -16.228  0.00  0.00    -0.066 N 
HETATM    7  H           1     -35.854  -0.775 -16.834  0.00  0.00     0.275 HD
HETATM    8  H           1     -34.163  -0.970 -16.734  0.00  0.00     0.275 HD
HETATM    9  H           1     -35.199  -2.112 -16.002  0.00  0.00     0.275 HD
ENDBRANCH   5   6
BRANCH   5  10
HETATM   10  C           1     -36.219   0.673 -14.957  0.00  0.00     0.155 C 
BRANCH  10  11
HETATM   11  C           1     -37.502  -0.075 -15.223  0.00  0.00     0.175 C 
HETATM   12  O           1     -37.992  -0.085 -16.374  0.00  0.00    -0.648 OA
HETATM   13  O           1     -38.075  -0.684 -14.295  0.00  0.00    -0.648 OA
ENDBRANCH  10  11
ENDBRANCH   5  10
ENDBRANCH   3   5
BRANCH   4  14
HETATM   14  C           1     -35.538  -1.625 -11.395  0.00  0.00     0.185 C 
BRANCH  14  15
HETATM   15  C           1     -36.485  -1.030 -10.382  0.00  0.00     0.196 C 
HETATM   16  O           1     -36.036  -0.497  -9.344  0.00  0.00    -0.646 OA
HETATM   17  O           1     -37.719  -1.069 -10.580  0.00  0.00    -0.646 OA
ENDBRANCH  14  15
BRANCH  14  18
HETATM   18  C           1     -34.169  -1.818 -10.758  0.00  0.00     0.040 C 
BRANCH  18  19
HETATM   19  C           1     -33.873  -3.307 -10.629  0.00  0.00    -0.020 C 
HETATM   20  C           1     -32.804  -3.701 -11.639  0.00  0.00     0.009 C 
HETATM   21  C           1     -35.144  -4.102 -10.899  0.00  0.00     0.009 C 
ENDBRANCH  18  19
ENDBRANCH  14  18
ENDBRANCH   4  14
TORSDOF 8
ENDMDL
MODEL 2
REMARK VINA RESULT:      -6.2      1.381      2.086
REMARK  8 active torsions:
REMARK  status: ('A' for Active; 'I' for Inactive)
REMARK    1  A    between atoms: N_2  and  C_8 
REMARK       I    between atoms: C_5  and  N_6 
REMARK    2  A    between atoms: C_5  and  C_8 
REMARK    3  A    between atoms: N_6  and  C_12 
REMARK    4  A    between atoms: C_7  and  C_8 
REMARK    5  A    between atoms: C_7  and  C_17 
REMARK    6  A    between atoms: C_11  and  C_12 
REMARK    7  A    between atoms: C_12  and  C_13 
REMARK    8  A    between atoms: C_13  and  C_15 
ROOT
HETATM    1  O           1     -37.182  -1.045 -13.350  0.00  0.00    -0.271 OA
HETATM    2  H           1     -34.151  -0.456 -12.800  0.00  0.00     0.163 HD
HETATM    3  C           1     -36.071  -0.621 -13.556  0.00  0.00     0.249 C 
HETATM    4  N           1     -35.083  -0.811 -12.627  0.00  0.00    -0.345 N 
ENDROOT
BRANCH   3   5
HETATM    5  C           1     -35.770   0.120 -14.836  0.00  0.00     0.284 C 
BRANCH   5   6
HETATM    6  N           1     -34.318   0.498 -14.864  0.00  0.00    -0.066 N 
HETATM    7  H           1     -33.822  -0.079 -15.580  0.00  0.00     0.275 HD
HETATM    8  H           1     -34.227   1.510 -15.109  0.00  0.00     0.275 HD
HETATM    9  H           1     -33.895   0.326 -13.925  0.00  0.00     0.275 HD
ENDBRANCH   5   6
BRANCH   5  10
HETATM   10  C           1     -36.083  -0.776 -16.026  0.00  0.00     0.155 C 
BRANCH  10  11
HETATM   11  C           1     -35.023  -1.843 -16.148  0.00  0.00     0.175 C 
HETATM   12  O           1     -34.848  -2.659 -15.216  0.00  0.00    -0.648 OA
HETATM   13  O           1     -34.321  -1.912 -17.179  0.00  0.00    -0.648 OA
ENDBRANCH  10  11
ENDBRANCH   5  10
ENDBRANCH   3   5
BRANCH   4  14
HETATM   14  C           1     -35.371  -1.523 -11.398  0.00  0.00     0.185 C 
BRANCH  14  15
HETATM   15  C           1     -36.143  -0.623 -10.465  0.00  0.00     0.196 C 
HETATM   16  O           1     -36.043   0.618 -10.569  0.00  0.00    -0.646 OA
HETATM   17  O           1     -36.884  -1.119  -9.588  0.00  0.00    -0.646 OA
ENDBRANCH  14  15
BRANCH  14  18
HETATM   18  C           1     -34.066  -1.940 -10.735  0.00  0.00     0.040 C 
BRANCH  18  19
HETATM   19  C           1     -33.950  -3.459 -10.748  0.00  0.00    -0.020 C 
HETATM   20  C           1     -32.888  -3.878 -11.755  0.00  0.00     0.009 C 
HETATM   21  C           1     -35.290  -4.066 -11.139  0.00  0.00     0.009 C 
ENDBRANCH  18  19
ENDBRANCH  14  18
ENDBRANCH   4  14
TORSDOF 8
ENDMDL
MODEL 3
REMARK VINA RESULT:      -6.2     12.593     15.346
REMARK  8 active torsions:
REMARK  status: ('A' for Active; 'I' for Inactive)
REMARK    1  A    between atoms: N_2  and  C_8 
REMARK       I    between atoms: C_5  and  N_6 
REMARK    2  A    between atoms: C_5  and  C_8 
REMARK    3  A    between atoms: N_6  and  C_12 
REMARK    4  A    between atoms: C_7  and  C_8 
REMARK    5  A    between atoms: C_7  and  C_17 
REMARK    6  A    between atoms: C_11  and  C_12 
REMARK    7  A    between atoms: C_12  and  C_13 
REMARK    8  A    between atoms: C_13  and  C_15 
ROOT
HETATM    1  O           1     -21.451  -3.311  -7.942  0.00  0.00    -0.271 OA
HETATM    2  H           1     -23.977  -5.071  -8.542  0.00  0.00     0.163 HD
HETATM    3  C           1     -22.322  -4.122  -7.739  0.00  0.00     0.249 C 
HETATM    4  N           1     -23.247  -4.391  -8.712  0.00  0.00    -0.345 N 
ENDROOT
BRANCH   3   5
HETATM    5  C           1     -22.394  -4.838  -6.412  0.00  0.00     0.284 C 
BRANCH   5   6
HETATM    6  N           1     -23.799  -5.301  -6.170  0.00  0.00    -0.066 N 
HETATM    7  H           1     -23.826  -5.901  -5.315  0.00  0.00     0.275 HD
HETATM    8  H           1     -24.420  -4.471  -6.032  0.00  0.00     0.275 HD
HETATM    9  H           1     -24.131  -5.853  -6.992  0.00  0.00     0.275 HD
ENDBRANCH   5   6
BRANCH   5  10
HETATM   10  C           1     -21.460  -6.040  -6.434  0.00  0.00     0.155 C 
BRANCH  10  11
HETATM   11  C           1     -21.236  -6.531  -5.025  0.00  0.00     0.175 C 
HETATM   12  O           1     -21.822  -5.977  -4.069  0.00  0.00    -0.648 OA
HETATM   13  O           1     -20.464  -7.490  -4.812  0.00  0.00    -0.648 OA
ENDBRANCH  10  11
ENDBRANCH   5  10
ENDBRANCH   3   5
BRANCH   4  14
HETATM   14  C           1     -23.178  -3.705  -9.987  0.00  0.00     0.185 C 
BRANCH  14  15
HETATM   15  C           1     -24.557  -3.233 -10.378  0.00  0.00     0.196 C 
HETATM   16  O           1     -24.884  -3.187 -11.583  0.00  0.00    -0.646 OA
HETATM   17  O           1     -25.373  -2.888  -9.496  0.00  0.00    -0.646 OA
ENDBRANCH  14  15
BRANCH  14  18
HETATM   18  C           1     -22.648  -4.658 -11.049  0.00  0.00     0.040 C 
BRANCH  18  19
HETATM   19  C           1     -21.303  -4.157 -11.558  0.00  0.00    -0.020 C 
HETATM   20  C           1     -20.188  -4.732 -10.696  0.00  0.00     0.009 C 
HETATM   21  C           1     -21.268  -2.636 -11.486  0.00  0.00     0.009 C 
ENDBRANCH  18  19
ENDBRANCH  14  18
ENDBRANCH   4  14
TORSDOF 8
ENDMDL
MODEL 4
REMARK VINA RESULT:      -6.1     12.535     14.660
REMARK  8 active torsions:
REMARK  status: ('A' for Active; 'I' for Inactive)
REMARK    1  A    between atoms: N_2  and  C_8 
REMARK       I    between atoms: C_5  and  N_6 
REMARK    2  A    between atoms: C_5  and  C_8 
REMARK    3  A    between atoms: N_6  and  C_12 
REMARK    4  A    between atoms: C_7  and  C_8 
REMARK    5  A    between atoms: C_7  and  C_17 
REMARK    6  A    between atoms: C_11  and  C_12 
REMARK    7  A    between atoms: C_12  and  C_13 
REMARK    8  A    between atoms: C_13  and  C_15 
ROOT
HETATM    1  O           1     -23.749  -4.073  -7.725  0.00  0.00    -0.271 OA
HETATM    2  H           1     -21.811  -5.227  -9.905  0.00  0.00     0.163 HD
HETATM    3  C           1     -23.404  -4.504  -8.799  0.00  0.00     0.249 C 
HETATM    4  N           1     -22.099  -4.865  -9.005  0.00  0.00    -0.345 N 
ENDROOT
BRANCH   3   5
HETATM    5  C           1     -24.410  -4.643  -9.915  0.00  0.00     0.284 C 
BRANCH   5   6
HETATM    6  N           1     -25.364  -3.487  -9.874  0.00  0.00    -0.066 N 
HETATM    7  H           1     -26.231  -3.768  -9.361  0.00  0.00     0.275 HD
HETATM    8  H           1     -24.915  -2.682  -9.381  0.00  0.00     0.275 HD
HETATM    9  H           1     -25.613  -3.205 -10.848  0.00  0.00     0.275 HD
ENDBRANCH   5   6
BRANCH   5  10
HETATM   10  C           1     -23.685  -4.655 -11.254  0.00  0.00     0.155 C 
BRANCH  10  11
HETATM   11  C           1     -23.953  -3.362 -11.984  0.00  0.00     0.175 C 
HETATM   12  O           1     -24.997  -3.232 -12.661  0.00  0.00    -0.648 OA
HETATM   13  O           1     -23.133  -2.422 -11.913  0.00  0.00    -0.648 OA
ENDBRANCH  10  11
ENDBRANCH   5  10
ENDBRANCH   3   5
BRANCH   4  14
HETATM   14  C           1     -21.133  -4.732  -7.933  0.00  0.00     0.185 C 
BRANCH  14  15
HETATM   15  C           1     -19.843  -4.179  -8.486  0.00  0.00     0.196 C 
HETATM   16  O           1     -18.809  -4.180  -7.783  0.00  0.00    -0.646 OA
HETATM   17  O           1     -19.807  -3.718  -9.648  0.00  0.00    -0.646 OA
ENDBRANCH  14  15
BRANCH  14  18
HETATM   18  C           1     -20.873  -6.098  -7.311  0.00  0.00     0.040 C 
BRANCH  18  19
HETATM   19  C           1     -21.465  -6.139  -5.908  0.00  0.00    -0.020 C 
HETATM   20  C           1     -20.632  -5.265  -4.980  0.00  0.00     0.009 C 
HETATM   21  C           1     -21.456  -7.574  -5.396  0.00  0.00     0.009 C 
ENDBRANCH  18  19
ENDBRANCH  14  18
ENDBRANCH   4  14
TORSDOF 8
ENDMDL
MODEL 5
REMARK VINA RESULT:      -6.1     12.330     14.110
REMARK  8 active torsions:
REMARK  status: ('A' for Active; 'I' for Inactive)
REMARK    1  A    between atoms: N_2  and  C_8 
REMARK       I    between atoms: C_5  and  N_6 
REMARK    2  A    between atoms: C_5  and  C_8 
REMARK    3  A    between atoms: N_6  and  C_12 
REMARK    4  A    between atoms: C_7  and  C_8 
REMARK    5  A    between atoms: C_7  and  C_17 
REMARK    6  A    between atoms: C_11  and  C_12 
REMARK    7  A    between atoms: C_12  and  C_13 
REMARK    8  A    between atoms: C_13  and  C_15 
ROOT
HETATM    1  O           1     -21.149  -4.829 -10.720  0.00  0.00    -0.271 OA
HETATM    2  H           1     -22.769  -2.555  -9.290  0.00  0.00     0.163 HD
HETATM    3  C           1     -21.779  -3.805 -10.610  0.00  0.00     0.249 C 
HETATM    4  N           1     -22.241  -3.414  -9.382  0.00  0.00    -0.345 N 
ENDROOT
BRANCH   3   5
HETATM    5  C           1     -22.059  -2.956 -11.826  0.00  0.00     0.284 C 
BRANCH   5   6
HETATM    6  N           1     -21.662  -3.708 -13.062  0.00  0.00    -0.066 N 
HETATM    7  H           1     -22.314  -3.465 -13.842  0.00  0.00     0.275 HD
HETATM    8  H           1     -20.686  -3.448 -13.330  0.00  0.00     0.275 HD
HETATM    9  H           1     -21.711  -4.735 -12.875  0.00  0.00     0.275 HD
ENDBRANCH   5   6
BRANCH   5  10
HETATM   10  C           1     -23.545  -2.629 -11.886  0.00  0.00     0.155 C 
BRANCH  10  11
HETATM   11  C           1     -24.057  -2.862 -13.287  0.00  0.00     0.175 C 
HETATM   12  O           1     -24.052  -1.927 -14.117  0.00  0.00    -0.648 OA
HETATM   13  O           1     -24.485  -3.988 -13.617  0.00  0.00    -0.648 OA
ENDBRANCH  10  11
ENDBRANCH   5  10
ENDBRANCH   3   5
BRANCH   4  14
HETATM   14  C           1     -21.972  -4.228  -8.213  0.00  0.00     0.185 C 
BRANCH  14  15
HETATM   15  C           1     -23.265  -4.506  -7.487  0.00  0.00     0.196 C 
HETATM   16  O           1     -24.358  -4.246  -8.033  0.00  0.00    -0.646 OA
HETATM   17  O           1     -23.242  -4.997  -6.337  0.00  0.00    -0.646 OA
ENDBRANCH  14  15
BRANCH  14  18
HETATM   18  C           1     -21.018  -3.487  -7.286  0.00  0.00     0.040 C 
BRANCH  18  19
HETATM   19  C           1     -19.895  -4.422  -6.857  0.00  0.00    -0.020 C 
HETATM   20  C           1     -19.987  -5.721  -7.645  0.00  0.00     0.009 C 
HETATM   21  C           1     -20.024  -4.719  -5.369  0.00  0.00     0.009 C 
ENDBRANCH  18  19
ENDBRANCH  14  18
ENDBRANCH   4  14
TORSDOF 8
ENDMDL
MODEL 6
REMARK VINA RESULT:      -5.9      1.643      2.026
REMARK  8 active torsions:
REMARK  status: ('A' for Active; 'I' for Inactive)
REMARK    1  A    between atoms: N_2  and  C_8 
REMARK       I    between atoms: C_5  and  N_6 
REMARK    2  A    between atoms: C_5  and  C_8 
REMARK    3  A    between atoms: N_6  and  C_12 
REMARK    4  A    between atoms: C_7  and  C_8 
REMARK    5  A    between atoms: C_7  and  C_17 
REMARK    6  A    between atoms: C_11  and  C_12 
REMARK    7  A    between atoms: C_12  and  C_13 
REMARK    8  A    between atoms: C_13  and  C_15 
ROOT
HETATM    1  O           1     -35.691  -1.514 -14.182  0.00  0.00    -0.271 OA
HETATM    2  H           1     -34.645  -0.163 -11.552  0.00  0.00     0.163 HD
HETATM    3  C           1     -35.337  -0.624 -13.448  0.00  0.00     0.249 C 
HETATM    4  N           1     -34.943  -0.909 -12.168  0.00  0.00    -0.345 N 
ENDROOT
BRANCH   3   5
HETATM    5  C           1     -35.329   0.803 -13.939  0.00  0.00     0.284 C 
BRANCH   5   6
HETATM    6  N           1     -34.180   1.539 -13.315  0.00  0.00    -0.066 N 
HETATM    7  H           1     -34.385   1.710 -12.304  0.00  0.00     0.275 HD
HETATM    8  H           1     -33.312   0.965 -13.400  0.00  0.00     0.275 HD
HETATM    9  H           1     -34.046   2.453 -13.802  0.00  0.00     0.275 HD
ENDBRANCH   5   6
BRANCH   5  10
HETATM   10  C           1     -35.176   0.817 -15.454  0.00  0.00     0.155 C 
BRANCH  10  11
HETATM   11  C           1     -36.354   1.529 -16.073  0.00  0.00     0.175 C 
HETATM   12  O           1     -37.478   0.980 -16.088  0.00  0.00    -0.648 OA
HETATM   13  O           1     -36.207   2.666 -16.570  0.00  0.00    -0.648 OA
ENDBRANCH  10  11
ENDBRANCH   5  10
ENDBRANCH   3   5
BRANCH   4  14
HETATM   14  C           1     -34.950  -2.280 -11.696  0.00  0.00     0.185 C 
BRANCH  14  15
HETATM   15  C           1     -36.059  -2.458 -10.689  0.00  0.00     0.196 C 
HETATM   16  O           1     -36.482  -1.476 -10.043  0.00  0.00    -0.646 OA
HETATM   17  O           1     -36.556  -3.590 -10.500  0.00  0.00    -0.646 OA
ENDBRANCH  14  15
BRANCH  14  18
HETATM   18  C           1     -33.613  -2.598 -11.039  0.00  0.00     0.040 C 
BRANCH  18  19
HETATM   19  C           1     -33.055  -3.891 -11.620  0.00  0.00    -0.020 C 
HETATM   20  C           1     -33.528  -4.047 -13.058  0.00  0.00     0.009 C 
HETATM   21  C           1     -33.546  -5.071 -10.792  0.00  0.00     0.009 C 
ENDBRANCH  18  19
ENDBRANCH  14  18
ENDBRANCH   4  14
TORSDOF 8
ENDMDL
MODEL 7
REMARK VINA RESULT:      -5.5     15.171     17.362
REMARK  8 active torsions:
REMARK  status: ('A' for Active; 'I' for Inactive)
REMARK    1  A    between atoms: N_2  and  C_8 
REMARK       I    between atoms: C_5  and  N_6 
REMARK    2  A    between atoms: C_5  and  C_8 
REMARK    3  A    between atoms: N_6  and  C_12 
REMARK    4  A    between atoms: C_7  and  C_8 
REMARK    5  A    between atoms: C_7  and  C_17 
REMARK    6  A    between atoms: C_11  and  C_12 
REMARK    7  A    between atoms: C_12  and  C_13 
REMARK    8  A    between atoms: C_13  and  C_15 
ROOT
HETATM    1  O           1     -20.242  -4.746  -5.409  0.00  0.00    -0.271 OA
HETATM    2  H           1     -21.735  -7.322  -6.398  0.00  0.00     0.163 HD
HETATM    3  C           1     -20.960  -5.425  -6.103  0.00  0.00     0.249 C 
HETATM    4  N           1     -21.132  -6.753  -5.816  0.00  0.00    -0.345 N 
ENDROOT
BRANCH   3   5
HETATM    5  C           1     -21.669  -4.810  -7.285  0.00  0.00     0.284 C 
BRANCH   5   6
HETATM    6  N           1     -21.629  -3.315  -7.168  0.00  0.00    -0.066 N 
HETATM    7  H           1     -21.933  -2.887  -8.072  0.00  0.00     0.275 HD
HETATM    8  H           1     -22.273  -3.008  -6.405  0.00  0.00     0.275 HD
HETATM    9  H           1     -20.655  -3.009  -6.949  0.00  0.00     0.275 HD
ENDBRANCH   5   6
BRANCH   5  10
HETATM   10  C           1     -20.974  -5.238  -8.570  0.00  0.00     0.155 C 
BRANCH  10  11
HETATM   11  C           1     -21.338  -4.284  -9.682  0.00  0.00     0.175 C 
HETATM   12  O           1     -22.531  -4.159 -10.033  0.00  0.00    -0.648 OA
HETATM   13  O           1     -20.446  -3.619 -10.251  0.00  0.00    -0.648 OA
ENDBRANCH  10  11
ENDBRANCH   5  10
ENDBRANCH   3   5
BRANCH   4  14
HETATM   14  C           1     -20.452  -7.343  -4.680  0.00  0.00     0.185 C 
BRANCH  14  15
HETATM   15  C           1     -19.703  -8.574  -5.128  0.00  0.00     0.196 C 
HETATM   16  O           1     -19.825  -9.645  -4.496  0.00  0.00    -0.646 OA
HETATM   17  O           1     -18.959  -8.523  -6.132  0.00  0.00    -0.646 OA
ENDBRANCH  14  15
BRANCH  14  18
HETATM   18  C           1     -21.476  -7.730  -3.621  0.00  0.00     0.040 C 
BRANCH  18  19
HETATM   19  C           1     -21.097  -7.092  -2.291  0.00  0.00    -0.020 C 
HETATM   20  C           1     -20.810  -8.184  -1.269  0.00  0.00     0.009 C 
HETATM   21  C           1     -22.248  -6.225  -1.798  0.00  0.00     0.009 C 
ENDBRANCH  18  19
ENDBRANCH  14  18
ENDBRANCH   4  14
TORSDOF 8
ENDMDL
MODEL 8
REMARK VINA RESULT:      -5.3     17.913     19.547
REMARK  8 active torsions:
REMARK  status: ('A' for Active; 'I' for Inactive)
REMARK    1  A    between atoms: N_2  and  C_8 
REMARK       I    between atoms: C_5  and  N_6 
REMARK    2  A    between atoms: C_5  and  C_8 
REMARK    3  A    between atoms: N_6  and  C_12 
REMARK    4  A    between atoms: C_7  and  C_8 
REMARK    5  A    between atoms: C_7  and  C_17 
REMARK    6  A    between atoms: C_11  and  C_12 
REMARK    7  A    between atoms: C_12  and  C_13 
REMARK    8  A    between atoms: C_13  and  C_15 
ROOT
HETATM    1  O           1     -22.050 -10.521  -2.906  0.00  0.00    -0.271 OA
HETATM    2  H           1     -20.119  -8.129  -3.535  0.00  0.00     0.163 HD
HETATM    3  C           1     -21.127  -9.934  -3.418  0.00  0.00     0.249 C 
HETATM    4  N           1     -20.893  -8.621  -3.105  0.00  0.00    -0.345 N 
ENDROOT
BRANCH   3   5
HETATM    5  C           1     -20.234 -10.645  -4.405  0.00  0.00     0.284 C 
BRANCH   5   6
HETATM    6  N           1     -20.835 -10.557  -5.776  0.00  0.00    -0.066 N 
HETATM    7  H           1     -21.823 -10.895  -5.745  0.00  0.00     0.275 HD
HETATM    8  H           1     -20.818  -9.563  -6.100  0.00  0.00     0.275 HD
HETATM    9  H           1     -20.284 -11.150  -6.436  0.00  0.00     0.275 HD
ENDBRANCH   5   6
BRANCH   5  10
HETATM   10  C           1     -18.860  -9.988  -4.409  0.00  0.00     0.155 C 
BRANCH  10  11
HETATM   11  C           1     -18.712  -9.137  -5.646  0.00  0.00     0.175 C 
HETATM   12  O           1     -19.381  -8.087  -5.766  0.00  0.00    -0.648 OA
HETATM   13  O           1     -17.921  -9.480  -6.550  0.00  0.00    -0.648 OA
ENDBRANCH  10  11
ENDBRANCH   5  10
ENDBRANCH   3   5
BRANCH   4  14
HETATM   14  C           1     -21.750  -7.938  -2.157  0.00  0.00     0.185 C 
BRANCH  14  15
HETATM   15  C           1     -22.033  -6.541  -2.652  0.00  0.00     0.196 C 
HETATM   16  O           1     -22.102  -5.592  -1.842  0.00  0.00    -0.646 OA
HETATM   17  O           1     -22.198  -6.332  -3.874  0.00  0.00    -0.646 OA
ENDBRANCH  14  15
BRANCH  14  18
HETATM   18  C           1     -21.056  -7.866  -0.804  0.00  0.00     0.040 C 
BRANCH  18  19
HETATM   19  C           1     -21.820  -8.710   0.207  0.00  0.00    -0.020 C 
HETATM   20  C           1     -23.168  -8.062   0.493  0.00  0.00     0.009 C 
HETATM   21  C           1     -21.018  -8.805   1.498  0.00  0.00     0.009 C 
ENDBRANCH  18  19
ENDBRANCH  14  18
ENDBRANCH   4  14
TORSDOF 8
ENDMDL
MODEL 9
REMARK VINA RESULT:      -5.3     16.402     17.941
REMARK  8 active torsions:
REMARK  status: ('A' for Active; 'I' for Inactive)
REMARK    1  A    between atoms: N_2  and  C_8 
REMARK       I    between atoms: C_5  and  N_6 
REMARK    2  A    between atoms: C_5  and  C_8 
REMARK    3  A    between atoms: N_6  and  C_12 
REMARK    4  A    between atoms: C_7  and  C_8 
REMARK    5  A    between atoms: C_7  and  C_17 
REMARK    6  A    between atoms: C_11  and  C_12 
REMARK    7  A    between atoms: C_12  and  C_13 
REMARK    8  A    between atoms: C_13  and  C_15 
ROOT
HETATM    1  O           1     -22.475  -6.885  -4.974  0.00  0.00    -0.271 OA
HETATM    2  H           1     -19.862  -7.205  -3.268  0.00  0.00     0.163 HD
HETATM    3  C           1     -21.298  -6.825  -4.709  0.00  0.00     0.249 C 
HETATM    4  N           1     -20.848  -7.255  -3.489  0.00  0.00    -0.345 N 
ENDROOT
BRANCH   3   5
HETATM    5  C           1     -20.323  -6.277  -5.722  0.00  0.00     0.284 C 
BRANCH   5   6
HETATM    6  N           1     -20.774  -6.652  -7.102  0.00  0.00    -0.066 N 
HETATM    7  H           1     -20.528  -7.651  -7.290  0.00  0.00     0.275 HD
HETATM    8  H           1     -21.809  -6.531  -7.175  0.00  0.00     0.275 HD
HETATM    9  H           1     -20.299  -6.040  -7.803  0.00  0.00     0.275 HD
ENDBRANCH   5   6
BRANCH   5  10
HETATM   10  C           1     -20.265  -4.761  -5.602  0.00  0.00     0.155 C 
BRANCH  10  11
HETATM   11  C           1     -20.609  -4.135  -6.932  0.00  0.00     0.175 C 
HETATM   12  O           1     -21.771  -3.727  -7.149  0.00  0.00    -0.648 OA
HETATM   13  O           1     -19.732  -4.026  -7.816  0.00  0.00    -0.648 OA
ENDBRANCH  10  11
ENDBRANCH   5  10
ENDBRANCH   3   5
BRANCH   4  14
HETATM   14  C           1     -21.785  -7.782  -2.516  0.00  0.00     0.185 C 
BRANCH  14  15
HETATM   15  C           1     -22.229  -6.673  -1.594  0.00  0.00     0.196 C 
HETATM   16  O           1     -22.027  -5.480  -1.908  0.00  0.00    -0.646 OA
HETATM   17  O           1     -22.799  -6.947  -0.516  0.00  0.00    -0.646 OA
ENDBRANCH  14  15
BRANCH  14  18
HETATM   18  C           1     -21.109  -8.877  -1.703  0.00  0.00     0.040 C 
BRANCH  18  19
HETATM   19  C           1     -21.802 -10.208  -1.964  0.00  0.00    -0.020 C 
HETATM   20  C           1     -22.925 -10.401  -0.954  0.00  0.00     0.009 C 
HETATM   21  C           1     -20.794 -11.341  -1.825  0.00  0.00     0.009 C 
ENDBRANCH  18  19
ENDBRANCH  14  18
ENDBRANCH   4  14
TORSDOF 8
ENDMDL
