MODEL 1
REMARK VINA RESULT:      -6.0      0.000      0.000
REMARK  2 active torsions:
REMARK  status: ('A' for Active; 'I' for Inactive)
REMARK    1  A    between atoms: C_9  and  C_15 
REMARK    2  A    between atoms: C_12  and  C_13 
REMARK       I    between atoms: C_13  and  N_16 
ROOT
HETATM    1  C           1     -20.092  -6.034  -7.327  0.00  0.00     0.038 C 
HETATM    2  C           1     -19.177  -4.820  -7.410  0.00  0.00     0.022 C 
HETATM    3  C           1     -20.063  -3.687  -7.902  0.00  0.00     0.127 C 
HETATM    4  O           1     -21.383  -3.010 -10.351  0.00  0.00    -0.271 OA
HETATM    5  C           1     -21.749  -4.005  -9.772  0.00  0.00     0.254 C 
HETATM    6  C           1     -21.457  -5.533  -7.767  0.00  0.00     0.188 C 
HETATM    7  N           1     -21.150  -4.372  -8.597  0.00  0.00    -0.336 N 
ENDROOT
BRANCH   5   8
HETATM    8  C           1     -22.866  -4.844 -10.344  0.00  0.00     0.311 C 
HETATM    9  C           1     -23.179  -4.427 -11.770  0.00  0.00     0.047 C 
HETATM   10  C           1     -24.328  -3.434 -11.652  0.00  0.00     0.033 C 
HETATM   11  C           1     -24.617  -3.339 -10.163  0.00  0.00     0.271 C 
HETATM   12  N           1     -24.115  -4.602  -9.628  0.00  0.00     0.097 N 
HETATM   13  H           1     -24.790  -5.343  -9.818  0.00  0.00     0.317 HD
ENDBRANCH   5   8
BRANCH   6  14
HETATM   14  C           1     -22.293  -5.134  -6.575  0.00  0.00     0.196 C 
HETATM   15  O           1     -23.329  -4.455  -6.738  0.00  0.00    -0.646 OA
HETATM   16  O           1     -21.947  -5.481  -5.425  0.00  0.00    -0.646 OA
ENDBRANCH   6  14
TORSDOF 2
ENDMDL
MODEL 2
REMARK VINA RESULT:      -5.9      1.204      5.040
REMARK  2 active torsions:
REMARK  status: ('A' for Active; 'I' for Inactive)
REMARK    1  A    between atoms: C_9  and  C_15 
REMARK    2  A    between atoms: C_12  and  C_13 
REMARK       I    between atoms: C_13  and  N_16 
ROOT
HETATM    1  C           1     -23.781  -4.640 -11.432  0.00  0.00     0.038 C 
HETATM    2  C           1     -24.703  -3.708 -10.655  0.00  0.00     0.022 C 
HETATM    3  C           1     -23.833  -3.108  -9.564  0.00  0.00     0.127 C 
HETATM    4  O           1     -22.573  -4.051  -7.171  0.00  0.00    -0.271 OA
HETATM    5  C           1     -22.190  -4.503  -8.224  0.00  0.00     0.254 C 
HETATM    6  C           1     -22.429  -4.519 -10.750  0.00  0.00     0.188 C 
HETATM    7  N           1     -22.760  -4.084  -9.396  0.00  0.00    -0.336 N 
ENDROOT
BRANCH   5   8
HETATM    8  C           1     -21.084  -5.530  -8.247  0.00  0.00     0.311 C 
HETATM    9  C           1     -20.729  -5.974  -6.838  0.00  0.00     0.047 C 
HETATM   10  C           1     -19.557  -5.092  -6.426  0.00  0.00     0.033 C 
HETATM   11  C           1     -19.298  -4.194  -7.625  0.00  0.00     0.271 C 
HETATM   12  N           1     -19.844  -4.947  -8.750  0.00  0.00     0.097 N 
HETATM   13  H           1     -19.186  -5.677  -9.023  0.00  0.00     0.317 HD
ENDBRANCH   5   8
BRANCH   6  14
HETATM   14  C           1     -21.567  -3.494 -11.446  0.00  0.00     0.196 C 
HETATM   15  O           1     -20.435  -3.217 -10.993  0.00  0.00    -0.646 OA
HETATM   16  O           1     -21.985  -2.920 -12.476  0.00  0.00    -0.646 OA
ENDBRANCH   6  14
TORSDOF 2
ENDMDL
MODEL 3
REMARK VINA RESULT:      -5.2      6.072      8.060
REMARK  2 active torsions:
REMARK  status: ('A' for Active; 'I' for Inactive)
REMARK    1  A    between atoms: C_9  and  C_15 
REMARK    2  A    between atoms: C_12  and  C_13 
REMARK       I    between atoms: C_13  and  N_16 
ROOT
HETATM    1  C           1     -20.964  -8.846   0.684  0.00  0.00     0.038 C 
HETATM    2  C           1     -22.175  -8.096   1.222  0.00  0.00     0.022 C 
HETATM    3  C           1     -22.988  -7.721  -0.006  0.00  0.00     0.127 C 
HETATM    4  O           1     -22.693  -5.910  -2.206  0.00  0.00    -0.271 OA
HETATM    5  C           1     -21.906  -6.823  -2.119  0.00  0.00     0.254 C 
HETATM    6  C           1     -21.149  -8.870  -0.824  0.00  0.00     0.188 C 
HETATM    7  N           1     -22.005  -7.716  -1.086  0.00  0.00    -0.336 N 
ENDROOT
BRANCH   5   8
HETATM    8  C           1     -20.815  -6.978  -3.150  0.00  0.00     0.311 C 
HETATM    9  C           1     -20.773  -5.777  -4.079  0.00  0.00     0.047 C 
HETATM   10  C           1     -21.617  -6.175  -5.283  0.00  0.00     0.033 C 
HETATM   11  C           1     -22.092  -7.587  -4.983  0.00  0.00     0.271 C 
HETATM   12  N           1     -21.099  -8.098  -4.042  0.00  0.00     0.097 N 
HETATM   13  H           1     -20.260  -8.377  -4.552  0.00  0.00     0.317 HD
ENDBRANCH   5   8
BRANCH   6  14
HETATM   14  C           1     -21.822 -10.147  -1.263  0.00  0.00     0.196 C 
HETATM   15  O           1     -22.289 -10.242  -2.418  0.00  0.00    -0.646 OA
HETATM   16  O           1     -21.913 -11.110  -0.470  0.00  0.00    -0.646 OA
ENDBRANCH   6  14
TORSDOF 2
ENDMDL
MODEL 4
REMARK VINA RESULT:      -5.2      5.949      8.628
REMARK  2 active torsions:
REMARK  status: ('A' for Active; 'I' for Inactive)
REMARK    1  A    between atoms: C_9  and  C_15 
REMARK    2  A    between atoms: C_12  and  C_13 
REMARK       I    between atoms: C_13  and  N_16 
ROOT
HETATM    1  C           1     -21.712  -7.957  -5.114  0.00  0.00     0.038 C 
HETATM    2  C           1     -21.668  -6.435  -5.105  0.00  0.00     0.022 C 
HETATM    3  C           1     -21.210  -6.058  -3.707  0.00  0.00     0.127 C 
HETATM    4  O           1     -22.323  -6.159  -1.070  0.00  0.00    -0.271 OA
HETATM    5  C           1     -22.115  -7.208  -1.633  0.00  0.00     0.254 C 
HETATM    6  C           1     -21.269  -8.375  -3.722  0.00  0.00     0.188 C 
HETATM    7  N           1     -21.584  -7.213  -2.895  0.00  0.00    -0.336 N 
ENDROOT
BRANCH   5   8
HETATM    8  C           1     -22.442  -8.511  -0.946  0.00  0.00     0.311 C 
HETATM    9  C           1     -23.254  -8.270   0.314  0.00  0.00     0.047 C 
HETATM   10  C           1     -22.233  -8.223   1.444  0.00  0.00     0.033 C 
HETATM   11  C           1     -20.889  -8.448   0.771  0.00  0.00     0.271 C 
HETATM   12  N           1     -21.228  -9.159  -0.458  0.00  0.00     0.097 N 
HETATM   13  H           1     -21.403 -10.142  -0.245  0.00  0.00     0.317 HD
ENDBRANCH   5   8
BRANCH   6  14
HETATM   14  C           1     -19.789  -8.667  -3.694  0.00  0.00     0.196 C 
HETATM   15  O           1     -19.147  -8.742  -4.765  0.00  0.00    -0.646 OA
HETATM   16  O           1     -19.205  -8.835  -2.602  0.00  0.00    -0.646 OA
ENDBRANCH   6  14
TORSDOF 2
ENDMDL
MODEL 5
REMARK VINA RESULT:      -5.0      7.575      9.785
REMARK  2 active torsions:
REMARK  status: ('A' for Active; 'I' for Inactive)
REMARK    1  A    between atoms: C_9  and  C_15 
REMARK    2  A    between atoms: C_12  and  C_13 
REMARK       I    between atoms: C_13  and  N_16 
ROOT
HETATM    1  C           1     -23.855 -11.113   0.157  0.00  0.00     0.038 C 
HETATM    2  C           1     -24.229 -11.776  -1.163  0.00  0.00     0.022 C 
HETATM    3  C           1     -23.015 -11.592  -2.057  0.00  0.00     0.127 C 
HETATM    4  O           1     -21.739  -9.398  -3.384  0.00  0.00    -0.271 OA
HETATM    5  C           1     -21.744  -9.399  -2.176  0.00  0.00     0.254 C 
HETATM    6  C           1     -22.443 -10.591  -0.047  0.00  0.00     0.188 C 
HETATM    7  N           1     -22.341 -10.425  -1.495  0.00  0.00    -0.336 N 
ENDROOT
BRANCH   5   8
HETATM    8  C           1     -21.092  -8.268  -1.418  0.00  0.00     0.311 C 
HETATM    9  C           1     -22.138  -7.331  -0.839  0.00  0.00     0.047 C 
HETATM   10  C           1     -22.288  -6.217  -1.868  0.00  0.00     0.033 C 
HETATM   11  C           1     -21.313  -6.572  -2.979  0.00  0.00     0.271 C 
HETATM   12  N           1     -20.321  -7.415  -2.318  0.00  0.00     0.097 N 
HETATM   13  H           1     -19.672  -6.829  -1.793  0.00  0.00     0.317 HD
ENDBRANCH   5   8
BRANCH   6  14
HETATM   14  C           1     -21.424 -11.586   0.452  0.00  0.00     0.196 C 
HETATM   15  O           1     -20.215 -11.435   0.174  0.00  0.00    -0.646 OA
HETATM   16  O           1     -21.790 -12.562   1.142  0.00  0.00    -0.646 OA
ENDBRANCH   6  14
TORSDOF 2
ENDMDL
MODEL 6
REMARK VINA RESULT:      -4.9      7.344      9.811
REMARK  2 active torsions:
REMARK  status: ('A' for Active; 'I' for Inactive)
REMARK    1  A    between atoms: C_9  and  C_15 
REMARK    2  A    between atoms: C_12  and  C_13 
REMARK       I    between atoms: C_13  and  N_16 
ROOT
HETATM    1  C           1     -21.448  -7.751  -3.776  0.00  0.00     0.038 C 
HETATM    2  C           1     -21.590  -6.650  -2.733  0.00  0.00     0.022 C 
HETATM    3  C           1     -21.475  -7.354  -1.393  0.00  0.00     0.127 C 
HETATM    4  O           1     -23.083  -9.168   0.134  0.00  0.00    -0.271 OA
HETATM    5  C           1     -22.640  -9.559  -0.920  0.00  0.00     0.254 C 
HETATM    6  C           1     -21.252  -9.030  -2.978  0.00  0.00     0.188 C 
HETATM    7  N           1     -21.866  -8.730  -1.687  0.00  0.00    -0.336 N 
ENDROOT
BRANCH   5   8
HETATM    8  C           1     -22.942 -10.961  -1.392  0.00  0.00     0.311 C 
HETATM    9  C           1     -24.076 -11.570  -0.586  0.00  0.00     0.047 C 
HETATM   10  C           1     -23.396 -12.362   0.523  0.00  0.00     0.033 C 
HETATM   11  C           1     -21.906 -12.170   0.290  0.00  0.00     0.271 C 
HETATM   12  N           1     -21.814 -11.850  -1.132  0.00  0.00     0.097 N 
HETATM   13  H           1     -21.895 -12.707  -1.679  0.00  0.00     0.317 HD
ENDBRANCH   5   8
BRANCH   6  14
HETATM   14  C           1     -19.784  -9.341  -2.815  0.00  0.00     0.196 C 
HETATM   15  O           1     -18.952  -8.861  -3.614  0.00  0.00    -0.646 OA
HETATM   16  O           1     -19.402 -10.078  -1.880  0.00  0.00    -0.646 OA
ENDBRANCH   6  14
TORSDOF 2
ENDMDL
MODEL 7
REMARK VINA RESULT:      -4.9      6.593      9.074
REMARK  2 active torsions:
REMARK  status: ('A' for Active; 'I' for Inactive)
REMARK    1  A    between atoms: C_9  and  C_15 
REMARK    2  A    between atoms: C_12  and  C_13 
REMARK       I    between atoms: C_13  and  N_16 
ROOT
HETATM    1  C           1     -20.434 -10.950  -4.712  0.00  0.00     0.038 C 
HETATM    2  C           1     -21.682 -11.823  -4.703  0.00  0.00     0.022 C 
HETATM    3  C           1     -22.684 -11.075  -3.840  0.00  0.00     0.127 C 
HETATM    4  O           1     -22.957 -10.449  -1.059  0.00  0.00    -0.271 OA
HETATM    5  C           1     -22.024  -9.966  -1.655  0.00  0.00     0.254 C 
HETATM    6  C           1     -20.788  -9.743  -3.861  0.00  0.00     0.188 C 
HETATM    7  N           1     -21.850 -10.234  -2.986  0.00  0.00    -0.336 N 
ENDROOT
BRANCH   5   8
HETATM    8  C           1     -21.050  -9.067  -0.932  0.00  0.00     0.311 C 
HETATM    9  C           1     -21.270  -9.128   0.569  0.00  0.00     0.047 C 
HETATM   10  C           1     -22.193  -7.957   0.884  0.00  0.00     0.033 C 
HETATM   11  C           1     -22.447  -7.283  -0.454  0.00  0.00     0.271 C 
HETATM   12  N           1     -21.294  -7.666  -1.263  0.00  0.00     0.097 N 
HETATM   13  H           1     -20.492  -7.089  -1.007  0.00  0.00     0.317 HD
ENDBRANCH   5   8
BRANCH   6  14
HETATM   14  C           1     -21.285  -8.607  -4.721  0.00  0.00     0.196 C 
HETATM   15  O           1     -21.853  -7.626  -4.193  0.00  0.00    -0.646 OA
HETATM   16  O           1     -21.129  -8.647  -5.960  0.00  0.00    -0.646 OA
ENDBRANCH   6  14
TORSDOF 2
ENDMDL
MODEL 8
REMARK VINA RESULT:      -4.7     18.856     20.052
REMARK  2 active torsions:
REMARK  status: ('A' for Active; 'I' for Inactive)
REMARK    1  A    between atoms: C_9  and  C_15 
REMARK    2  A    between atoms: C_12  and  C_13 
REMARK       I    between atoms: C_13  and  N_16 
ROOT
HETATM    1  C           1     -14.649   7.969   4.571  0.00  0.00     0.038 C 
HETATM    2  C           1     -14.237   9.083   3.617  0.00  0.00     0.022 C 
HETATM    3  C           1     -15.322  10.138   3.745  0.00  0.00     0.127 C 
HETATM    4  O           1     -18.081  10.366   3.010  0.00  0.00    -0.271 OA
HETATM    5  C           1     -17.786   9.537   3.839  0.00  0.00     0.254 C 
HETATM    6  C           1     -15.945   8.448   5.203  0.00  0.00     0.188 C 
HETATM    7  N           1     -16.481   9.389   4.224  0.00  0.00    -0.336 N 
ENDROOT
BRANCH   5   8
HETATM    8  C           1     -18.857   8.666   4.448  0.00  0.00     0.311 C 
HETATM    9  C           1     -20.126   8.707   3.616  0.00  0.00     0.047 C 
HETATM   10  C           1     -20.991   9.782   4.261  0.00  0.00     0.033 C 
HETATM   11  C           1     -20.174  10.295   5.434  0.00  0.00     0.271 C 
HETATM   12  N           1     -19.275   9.187   5.746  0.00  0.00     0.097 N 
HETATM   13  H           1     -19.782   8.477   6.275  0.00  0.00     0.317 HD
ENDBRANCH   5   8
BRANCH   6  14
HETATM   14  C           1     -15.678   9.136   6.520  0.00  0.00     0.196 C 
HETATM   15  O           1     -16.571   9.828   7.054  0.00  0.00    -0.646 OA
HETATM   16  O           1     -14.564   9.014   7.074  0.00  0.00    -0.646 OA
ENDBRANCH   6  14
TORSDOF 2
ENDMDL
MODEL 9
REMARK VINA RESULT:      -4.7      6.978      9.169
REMARK  2 active torsions:
REMARK  status: ('A' for Active; 'I' for Inactive)
REMARK    1  A    between atoms: C_9  and  C_15 
REMARK    2  A    between atoms: C_12  and  C_13 
REMARK       I    between atoms: C_13  and  N_16 
ROOT
HETATM    1  C           1     -23.386 -10.210  -0.039  0.00  0.00     0.038 C 
HETATM    2  C           1     -23.973 -11.374  -0.828  0.00  0.00     0.022 C 
HETATM    3  C           1     -22.961 -11.661  -1.924  0.00  0.00     0.127 C 
HETATM    4  O           1     -22.062 -10.344  -4.304  0.00  0.00    -0.271 OA
HETATM    5  C           1     -21.838  -9.808  -3.245  0.00  0.00     0.254 C 
HETATM    6  C           1     -22.065  -9.896  -0.719  0.00  0.00     0.188 C 
HETATM    7  N           1     -22.247 -10.396  -2.079  0.00  0.00    -0.336 N 
ENDROOT
BRANCH   5   8
HETATM    8  C           1     -21.107  -8.487  -3.209  0.00  0.00     0.311 C 
HETATM    9  C           1     -21.020  -7.879  -4.598  0.00  0.00     0.047 C 
HETATM   10  C           1     -19.669  -8.323  -5.143  0.00  0.00     0.033 C 
HETATM   11  C           1     -19.049  -9.157  -4.034  0.00  0.00     0.271 C 
HETATM   12  N           1     -19.711  -8.677  -2.824  0.00  0.00     0.097 N 
HETATM   13  H           1     -19.293  -7.793  -2.536  0.00  0.00     0.317 HD
ENDBRANCH   5   8
BRANCH   6  14
HETATM   14  C           1     -20.925 -10.609  -0.033  0.00  0.00     0.196 C 
HETATM   15  O           1     -19.852 -10.805  -0.645  0.00  0.00    -0.646 OA
HETATM   16  O           1     -21.054 -11.004   1.145  0.00  0.00    -0.646 OA
ENDBRANCH   6  14
TORSDOF 2
ENDMDL
