MODEL 1
REMARK VINA RESULT:      -5.6      0.000      0.000
REMARK  9 active torsions:
REMARK  status: ('A' for Active; 'I' for Inactive)
REMARK    1  A    between atoms: N_4  and  C_14 
REMARK       I    between atoms: N_4  and  C_5 
REMARK    2  A    between atoms: C_5  and  C_11 
REMARK    3  A    between atoms: C_6  and  C_9 
REMARK    4  A    between atoms: C_6  and  C_14 
REMARK    5  A    between atoms: C_9  and  Se_10 
REMARK    6  A    between atoms: C_11  and  C_16 
REMARK    7  A    between atoms: C_11  and  N_21 
REMARK    8  A    between atoms: C_12  and  C_14 
REMARK    9  A    between atoms: O_15  and  C_16 
ROOT
HETATM    1  N           1     -22.095  -4.751  -8.759  0.00  0.00    -0.345 N 
HETATM    2  C           1     -21.522  -4.395  -7.568  0.00  0.00     0.251 C 
HETATM    3  H           1     -22.118  -5.723  -9.039  0.00  0.00     0.163 HD
HETATM    4  O           1     -21.495  -3.235  -7.234  0.00  0.00    -0.271 OA
ENDROOT
BRANCH   2   5
HETATM    5  C           1     -20.922  -5.452  -6.674  0.00  0.00     0.302 C 
BRANCH   5   6
HETATM    6  C           1     -22.017  -6.073  -5.817  0.00  0.00     0.153 C 
HETATM    7  C           1     -21.548  -6.143  -4.369  0.00  0.00     0.042 C 
BRANCH   6   8
HETATM    8  O           1     -23.175  -5.286  -5.894  0.00  0.00    -0.393 OA
HETATM    9  H           1     -23.115  -4.642  -5.209  0.00  0.00     0.210 HD
ENDBRANCH   6   8
ENDBRANCH   5   6
BRANCH   5  10
HETATM   10  N           1     -19.887  -4.827  -5.786  0.00  0.00    -0.064 N 
HETATM   11  H           1     -19.604  -5.510  -5.048  0.00  0.00     0.275 HD
HETATM   12  H           1     -20.286  -3.972  -5.337  0.00  0.00     0.275 HD
HETATM   13  H           1     -19.051  -4.564  -6.356  0.00  0.00     0.275 HD
ENDBRANCH   5  10
ENDBRANCH   2   5
BRANCH   1  14
HETATM   14  C           1     -22.672  -3.735  -9.618  0.00  0.00     0.185 C 
BRANCH  14  15
HETATM   15  C           1     -22.141  -3.909 -11.035  0.00  0.00     0.036 C 
BRANCH  15  16
HETATM   16  C           1     -22.551  -2.710 -11.882  0.00  0.00     0.003 C 
BRANCH  16  17
HETATM   17 Se           1     -23.887  -3.263 -13.188  0.00  0.00     0.000 Se
HETATM   18  C           1     -22.943  -2.509 -14.717  0.00  0.00     0.000 C 
ENDBRANCH  16  17
ENDBRANCH  15  16
ENDBRANCH  14  15
BRANCH  14  19
HETATM   19  C           1     -24.175  -3.874  -9.623  0.00  0.00     0.196 C 
HETATM   20  O           1     -24.895  -2.881  -9.381  0.00  0.00    -0.646 OA
HETATM   21  O           1     -24.699  -4.982  -9.869  0.00  0.00    -0.646 OA
ENDBRANCH  14  19
ENDBRANCH   1  14
TORSDOF 9
ENDMDL
MODEL 2
REMARK VINA RESULT:      -5.3      3.223      6.444
REMARK  9 active torsions:
REMARK  status: ('A' for Active; 'I' for Inactive)
REMARK    1  A    between atoms: N_4  and  C_14 
REMARK       I    between atoms: N_4  and  C_5 
REMARK    2  A    between atoms: C_5  and  C_11 
REMARK    3  A    between atoms: C_6  and  C_9 
REMARK    4  A    between atoms: C_6  and  C_14 
REMARK    5  A    between atoms: C_9  and  Se_10 
REMARK    6  A    between atoms: C_11  and  C_16 
REMARK    7  A    between atoms: C_11  and  N_21 
REMARK    8  A    between atoms: C_12  and  C_14 
REMARK    9  A    between atoms: O_15  and  C_16 
ROOT
HETATM    1  N           1     -22.226  -5.273  -8.629  0.00  0.00    -0.345 N 
HETATM    2  C           1     -23.079  -4.293  -9.059  0.00  0.00     0.251 C 
HETATM    3  H           1     -22.323  -6.218  -8.978  0.00  0.00     0.163 HD
HETATM    4  O           1     -22.963  -3.166  -8.641  0.00  0.00    -0.271 OA
ENDROOT
BRANCH   2   5
HETATM    5  C           1     -24.165  -4.622 -10.053  0.00  0.00     0.302 C 
BRANCH   5   6
HETATM    6  C           1     -23.639  -4.418 -11.467  0.00  0.00     0.153 C 
HETATM    7  C           1     -24.182  -3.110 -12.028  0.00  0.00     0.042 C 
BRANCH   6   8
HETATM    8  O           1     -22.237  -4.368 -11.442  0.00  0.00    -0.393 OA
HETATM    9  H           1     -21.933  -4.853 -12.191  0.00  0.00     0.210 HD
ENDBRANCH   6   8
ENDBRANCH   5   6
BRANCH   5  10
HETATM   10  N           1     -25.342  -3.720  -9.824  0.00  0.00    -0.064 N 
HETATM   11  H           1     -25.648  -3.310 -10.735  0.00  0.00     0.275 HD
HETATM   12  H           1     -25.069  -2.953  -9.168  0.00  0.00     0.275 HD
HETATM   13  H           1     -26.128  -4.270  -9.408  0.00  0.00     0.275 HD
ENDBRANCH   5  10
ENDBRANCH   2   5
BRANCH   1  14
HETATM   14  C           1     -21.182  -4.957  -7.674  0.00  0.00     0.185 C 
BRANCH  14  15
HETATM   15  C           1     -20.973  -6.142  -6.741  0.00  0.00     0.036 C 
BRANCH  15  16
HETATM   16  C           1     -21.693  -5.885  -5.422  0.00  0.00     0.003 C 
BRANCH  16  17
HETATM   17 Se           1     -21.214  -7.270  -4.138  0.00  0.00     0.000 Se
HETATM   18  C           1     -21.851  -6.280  -2.585  0.00  0.00     0.000 C 
ENDBRANCH  16  17
ENDBRANCH  15  16
ENDBRANCH  14  15
BRANCH  14  19
HETATM   19  C           1     -19.898  -4.664  -8.411  0.00  0.00     0.196 C 
HETATM   20  O           1     -19.853  -4.774  -9.655  0.00  0.00    -0.646 OA
HETATM   21  O           1     -18.880  -4.311  -7.777  0.00  0.00    -0.646 OA
ENDBRANCH  14  19
ENDBRANCH   1  14
TORSDOF 9
ENDMDL
MODEL 3
REMARK VINA RESULT:      -4.8      3.104      4.515
REMARK  9 active torsions:
REMARK  status: ('A' for Active; 'I' for Inactive)
REMARK    1  A    between atoms: N_4  and  C_14 
REMARK       I    between atoms: N_4  and  C_5 
REMARK    2  A    between atoms: C_5  and  C_11 
REMARK    3  A    between atoms: C_6  and  C_9 
REMARK    4  A    between atoms: C_6  and  C_14 
REMARK    5  A    between atoms: C_9  and  Se_10 
REMARK    6  A    between atoms: C_11  and  C_16 
REMARK    7  A    between atoms: C_11  and  N_21 
REMARK    8  A    between atoms: C_12  and  C_14 
REMARK    9  A    between atoms: O_15  and  C_16 
ROOT
HETATM    1  N           1     -20.914  -5.394  -5.179  0.00  0.00    -0.345 N 
HETATM    2  C           1     -21.590  -6.215  -4.316  0.00  0.00     0.251 C 
HETATM    3  H           1     -20.195  -4.774  -4.829  0.00  0.00     0.163 HD
HETATM    4  O           1     -22.448  -6.955  -4.734  0.00  0.00    -0.271 OA
ENDROOT
BRANCH   2   5
HETATM    5  C           1     -21.263  -6.193  -2.843  0.00  0.00     0.302 C 
BRANCH   5   6
HETATM    6  C           1     -20.661  -7.531  -2.436  0.00  0.00     0.153 C 
HETATM    7  C           1     -21.670  -8.309  -1.600  0.00  0.00     0.042 C 
BRANCH   6   8
HETATM    8  O           1     -20.341  -8.269  -3.585  0.00  0.00    -0.393 OA
HETATM    9  H           1     -20.509  -9.175  -3.385  0.00  0.00     0.210 HD
ENDBRANCH   6   8
ENDBRANCH   5   6
BRANCH   5  10
HETATM   10  N           1     -22.518  -5.950  -2.057  0.00  0.00    -0.064 N 
HETATM   11  H           1     -23.263  -5.590  -2.693  0.00  0.00     0.275 HD
HETATM   12  H           1     -22.326  -5.247  -1.308  0.00  0.00     0.275 HD
HETATM   13  H           1     -22.835  -6.846  -1.620  0.00  0.00     0.275 HD
ENDBRANCH   5  10
ENDBRANCH   2   5
BRANCH   1  14
HETATM   14  C           1     -21.227  -5.416  -6.594  0.00  0.00     0.185 C 
BRANCH  14  15
HETATM   15  C           1     -21.765  -4.055  -7.014  0.00  0.00     0.036 C 
BRANCH  15  16
HETATM   16  C           1     -23.097  -4.234  -7.733  0.00  0.00     0.003 C 
BRANCH  16  17
HETATM   17 Se           1     -22.824  -4.081  -9.656  0.00  0.00     0.000 Se
HETATM   18  C           1     -24.625  -3.433 -10.025  0.00  0.00     0.000 C 
ENDBRANCH  16  17
ENDBRANCH  15  16
ENDBRANCH  14  15
BRANCH  14  19
HETATM   19  C           1     -19.978  -5.729  -7.381  0.00  0.00     0.196 C 
HETATM   20  O           1     -19.558  -4.917  -8.235  0.00  0.00    -0.646 OA
HETATM   21  O           1     -19.364  -6.799  -7.180  0.00  0.00    -0.646 OA
ENDBRANCH  14  19
ENDBRANCH   1  14
TORSDOF 9
ENDMDL
MODEL 4
REMARK VINA RESULT:      -4.8      4.688      7.641
REMARK  9 active torsions:
REMARK  status: ('A' for Active; 'I' for Inactive)
REMARK    1  A    between atoms: N_4  and  C_14 
REMARK       I    between atoms: N_4  and  C_5 
REMARK    2  A    between atoms: C_5  and  C_11 
REMARK    3  A    between atoms: C_6  and  C_9 
REMARK    4  A    between atoms: C_6  and  C_14 
REMARK    5  A    between atoms: C_9  and  Se_10 
REMARK    6  A    between atoms: C_11  and  C_16 
REMARK    7  A    between atoms: C_11  and  N_21 
REMARK    8  A    between atoms: C_12  and  C_14 
REMARK    9  A    between atoms: O_15  and  C_16 
ROOT
HETATM    1  N           1     -21.426  -6.425  -5.414  0.00  0.00    -0.345 N 
HETATM    2  C           1     -21.067  -5.196  -5.899  0.00  0.00     0.251 C 
HETATM    3  H           1     -22.136  -6.968  -5.888  0.00  0.00     0.163 HD
HETATM    4  O           1     -20.219  -4.548  -5.333  0.00  0.00    -0.271 OA
ENDROOT
BRANCH   2   5
HETATM    5  C           1     -21.732  -4.650  -7.138  0.00  0.00     0.302 C 
BRANCH   5   6
HETATM    6  C           1     -21.046  -5.216  -8.374  0.00  0.00     0.153 C 
HETATM    7  C           1     -20.460  -4.075  -9.197  0.00  0.00     0.042 C 
BRANCH   6   8
HETATM    8  O           1     -20.016  -6.084  -7.982  0.00  0.00    -0.393 OA
HETATM    9  H           1     -20.426  -6.823  -7.565  0.00  0.00     0.210 HD
ENDBRANCH   6   8
ENDBRANCH   5   6
BRANCH   5  10
HETATM   10  N           1     -21.622  -3.154  -7.147  0.00  0.00    -0.064 N 
HETATM   11  H           1     -21.228  -2.840  -8.063  0.00  0.00     0.275 HD
HETATM   12  H           1     -20.991  -2.848  -6.372  0.00  0.00     0.275 HD
HETATM   13  H           1     -22.569  -2.733  -7.012  0.00  0.00     0.275 HD
ENDBRANCH   5  10
ENDBRANCH   2   5
BRANCH   1  14
HETATM   14  C           1     -20.787  -6.949  -4.223  0.00  0.00     0.185 C 
BRANCH  14  15
HETATM   15  C           1     -21.852  -7.431  -3.247  0.00  0.00     0.036 C 
BRANCH  15  16
HETATM   16  C           1     -22.012  -6.413  -2.125  0.00  0.00     0.003 C 
BRANCH  16  17
HETATM   17 Se           1     -22.364  -7.342  -0.449  0.00  0.00     0.000 Se
HETATM   18  C           1     -21.936  -9.110  -1.149  0.00  0.00     0.000 C 
ENDBRANCH  16  17
ENDBRANCH  15  16
ENDBRANCH  14  15
BRANCH  14  19
HETATM   19  C           1     -19.890  -8.103  -4.600  0.00  0.00     0.196 C 
HETATM   20  O           1     -19.427  -8.850  -3.711  0.00  0.00    -0.646 OA
HETATM   21  O           1     -19.610  -8.311  -5.801  0.00  0.00    -0.646 OA
ENDBRANCH  14  19
ENDBRANCH   1  14
TORSDOF 9
ENDMDL
MODEL 5
REMARK VINA RESULT:      -4.7     18.018     19.789
REMARK  9 active torsions:
REMARK  status: ('A' for Active; 'I' for Inactive)
REMARK    1  A    between atoms: N_4  and  C_14 
REMARK       I    between atoms: N_4  and  C_5 
REMARK    2  A    between atoms: C_5  and  C_11 
REMARK    3  A    between atoms: C_6  and  C_9 
REMARK    4  A    between atoms: C_6  and  C_14 
REMARK    5  A    between atoms: C_9  and  Se_10 
REMARK    6  A    between atoms: C_11  and  C_16 
REMARK    7  A    between atoms: C_11  and  N_21 
REMARK    8  A    between atoms: C_12  and  C_14 
REMARK    9  A    between atoms: O_15  and  C_16 
ROOT
HETATM    1  N           1     -12.415   7.702 -20.151  0.00  0.00    -0.345 N 
HETATM    2  C           1     -12.339   6.565 -20.910  0.00  0.00     0.251 C 
HETATM    3  H           1     -12.973   7.711 -19.306  0.00  0.00     0.163 HD
HETATM    4  O           1     -11.674   6.556 -21.917  0.00  0.00    -0.271 OA
ENDROOT
BRANCH   2   5
HETATM    5  C           1     -13.088   5.325 -20.488  0.00  0.00     0.302 C 
BRANCH   5   6
HETATM    6  C           1     -12.238   4.527 -19.508  0.00  0.00     0.153 C 
HETATM    7  C           1     -11.489   3.434 -20.260  0.00  0.00     0.042 C 
BRANCH   6   8
HETATM    8  O           1     -11.316   5.381 -18.885  0.00  0.00    -0.393 OA
HETATM    9  H           1     -10.469   5.178 -19.245  0.00  0.00     0.210 HD
ENDBRANCH   6   8
ENDBRANCH   5   6
BRANCH   5  10
HETATM   10  N           1     -13.382   4.484 -21.694  0.00  0.00    -0.064 N 
HETATM   11  H           1     -13.459   3.482 -21.409  0.00  0.00     0.275 HD
HETATM   12  H           1     -12.609   4.592 -22.389  0.00  0.00     0.275 HD
HETATM   13  H           1     -14.283   4.794 -22.124  0.00  0.00     0.275 HD
ENDBRANCH   5  10
ENDBRANCH   2   5
BRANCH   1  14
HETATM   14  C           1     -11.696   8.894 -20.556  0.00  0.00     0.185 C 
BRANCH  14  15
HETATM   15  C           1     -12.555  10.121 -20.287  0.00  0.00     0.036 C 
BRANCH  15  16
HETATM   16  C           1     -13.223   9.986 -18.924  0.00  0.00     0.003 C 
BRANCH  16  17
HETATM   17 Se           1     -14.544  11.401 -18.704  0.00  0.00     0.000 Se
HETATM   18  C           1     -15.144  10.792 -16.952  0.00  0.00     0.000 C 
ENDBRANCH  16  17
ENDBRANCH  15  16
ENDBRANCH  14  15
BRANCH  14  19
HETATM   19  C           1     -10.410   8.996 -19.772  0.00  0.00     0.196 C 
HETATM   20  O           1      -9.507   9.773 -20.152  0.00  0.00    -0.646 OA
HETATM   21  O           1     -10.250   8.305 -18.743  0.00  0.00    -0.646 OA
ENDBRANCH  14  19
ENDBRANCH   1  14
TORSDOF 9
ENDMDL
MODEL 6
REMARK VINA RESULT:      -4.7      1.749      2.036
REMARK  9 active torsions:
REMARK  status: ('A' for Active; 'I' for Inactive)
REMARK    1  A    between atoms: N_4  and  C_14 
REMARK       I    between atoms: N_4  and  C_5 
REMARK    2  A    between atoms: C_5  and  C_11 
REMARK    3  A    between atoms: C_6  and  C_9 
REMARK    4  A    between atoms: C_6  and  C_14 
REMARK    5  A    between atoms: C_9  and  Se_10 
REMARK    6  A    between atoms: C_11  and  C_16 
REMARK    7  A    between atoms: C_11  and  N_21 
REMARK    8  A    between atoms: C_12  and  C_14 
REMARK    9  A    between atoms: O_15  and  C_16 
ROOT
HETATM    1  N           1     -22.771  -4.700  -7.909  0.00  0.00    -0.345 N 
HETATM    2  C           1     -21.694  -4.396  -7.120  0.00  0.00     0.251 C 
HETATM    3  H           1     -23.412  -5.432  -7.630  0.00  0.00     0.163 HD
HETATM    4  O           1     -20.929  -3.523  -7.452  0.00  0.00    -0.271 OA
ENDROOT
BRANCH   2   5
HETATM    5  C           1     -21.462  -5.154  -5.836  0.00  0.00     0.302 C 
BRANCH   5   6
HETATM    6  C           1     -20.368  -6.192  -6.049  0.00  0.00     0.153 C 
HETATM    7  C           1     -20.827  -7.535  -5.497  0.00  0.00     0.042 C 
BRANCH   6   8
HETATM    8  O           1     -20.102  -6.317  -7.421  0.00  0.00    -0.393 OA
HETATM    9  H           1     -20.766  -5.825  -7.874  0.00  0.00     0.210 HD
ENDBRANCH   6   8
ENDBRANCH   5   6
BRANCH   5  10
HETATM   10  N           1     -22.730  -5.844  -5.426  0.00  0.00    -0.064 N 
HETATM   11  H           1     -23.368  -5.155  -4.968  0.00  0.00     0.275 HD
HETATM   12  H           1     -22.505  -6.613  -4.756  0.00  0.00     0.275 HD
HETATM   13  H           1     -23.199  -6.244  -6.271  0.00  0.00     0.275 HD
ENDBRANCH   5  10
ENDBRANCH   2   5
BRANCH   1  14
HETATM   14  C           1     -22.994  -3.971  -9.142  0.00  0.00     0.185 C 
BRANCH  14  15
HETATM   15  C           1     -22.335  -4.714 -10.296  0.00  0.00     0.036 C 
BRANCH  15  16
HETATM   16  C           1     -23.010  -4.324 -11.605  0.00  0.00     0.003 C 
BRANCH  16  17
HETATM   17 Se           1     -22.298  -2.617 -12.220  0.00  0.00     0.000 Se
HETATM   18  C           1     -20.538  -2.878 -11.423  0.00  0.00     0.000 C 
ENDBRANCH  16  17
ENDBRANCH  15  16
ENDBRANCH  14  15
BRANCH  14  19
HETATM   19  C           1     -24.477  -3.857  -9.398  0.00  0.00     0.196 C 
HETATM   20  O           1     -25.167  -4.889  -9.543  0.00  0.00    -0.646 OA
HETATM   21  O           1     -25.014  -2.730  -9.465  0.00  0.00    -0.646 OA
ENDBRANCH  14  19
ENDBRANCH   1  14
TORSDOF 9
ENDMDL
MODEL 7
REMARK VINA RESULT:      -4.6      9.864     11.966
REMARK  9 active torsions:
REMARK  status: ('A' for Active; 'I' for Inactive)
REMARK    1  A    between atoms: N_4  and  C_14 
REMARK       I    between atoms: N_4  and  C_5 
REMARK    2  A    between atoms: C_5  and  C_11 
REMARK    3  A    between atoms: C_6  and  C_9 
REMARK    4  A    between atoms: C_6  and  C_14 
REMARK    5  A    between atoms: C_9  and  Se_10 
REMARK    6  A    between atoms: C_11  and  C_16 
REMARK    7  A    between atoms: C_11  and  N_21 
REMARK    8  A    between atoms: C_12  and  C_14 
REMARK    9  A    between atoms: O_15  and  C_16 
ROOT
HETATM    1  N           1     -29.262  -5.995 -17.438  0.00  0.00    -0.345 N 
HETATM    2  C           1     -30.461  -6.647 -17.542  0.00  0.00     0.251 C 
HETATM    3  H           1     -29.236  -4.984 -17.411  0.00  0.00     0.163 HD
HETATM    4  O           1     -30.491  -7.854 -17.573  0.00  0.00    -0.271 OA
ENDROOT
BRANCH   2   5
HETATM    5  C           1     -31.744  -5.858 -17.619  0.00  0.00     0.302 C 
BRANCH   5   6
HETATM    6  C           1     -31.619  -4.600 -16.770  0.00  0.00     0.153 C 
HETATM    7  C           1     -31.716  -3.371 -17.665  0.00  0.00     0.042 C 
BRANCH   6   8
HETATM    8  O           1     -32.654  -4.570 -15.823  0.00  0.00    -0.393 OA
HETATM    9  H           1     -32.525  -5.310 -15.254  0.00  0.00     0.210 HD
ENDBRANCH   6   8
ENDBRANCH   5   6
BRANCH   5  10
HETATM   10  N           1     -32.878  -6.695 -17.107  0.00  0.00    -0.064 N 
HETATM   11  H           1     -32.714  -6.925 -16.101  0.00  0.00     0.275 HD
HETATM   12  H           1     -32.936  -7.578 -17.663  0.00  0.00     0.275 HD
HETATM   13  H           1     -33.774  -6.165 -17.201  0.00  0.00     0.275 HD
ENDBRANCH   5  10
ENDBRANCH   2   5
BRANCH   1  14
HETATM   14  C           1     -28.028  -6.754 -17.363  0.00  0.00     0.185 C 
BRANCH  14  15
HETATM   15  C           1     -26.991  -6.127 -18.284  0.00  0.00     0.036 C 
BRANCH  15  16
HETATM   16  C           1     -27.148  -6.694 -19.689  0.00  0.00     0.003 C 
BRANCH  16  17
HETATM   17 Se           1     -25.393  -6.882 -20.515  0.00  0.00     0.000 Se
HETATM   18  C           1     -24.437  -7.067 -18.826  0.00  0.00     0.000 C 
ENDBRANCH  16  17
ENDBRANCH  15  16
ENDBRANCH  14  15
BRANCH  14  19
HETATM   19  C           1     -27.516  -6.743 -15.944  0.00  0.00     0.196 C 
HETATM   20  O           1     -26.663  -5.898 -15.595  0.00  0.00    -0.646 OA
HETATM   21  O           1     -27.944  -7.578 -15.118  0.00  0.00    -0.646 OA
ENDBRANCH  14  19
ENDBRANCH   1  14
TORSDOF 9
ENDMDL
MODEL 8
REMARK VINA RESULT:      -4.5      4.787      8.148
REMARK  9 active torsions:
REMARK  status: ('A' for Active; 'I' for Inactive)
REMARK    1  A    between atoms: N_4  and  C_14 
REMARK       I    between atoms: N_4  and  C_5 
REMARK    2  A    between atoms: C_5  and  C_11 
REMARK    3  A    between atoms: C_6  and  C_9 
REMARK    4  A    between atoms: C_6  and  C_14 
REMARK    5  A    between atoms: C_9  and  Se_10 
REMARK    6  A    between atoms: C_11  and  C_16 
REMARK    7  A    between atoms: C_11  and  N_21 
REMARK    8  A    between atoms: C_12  and  C_14 
REMARK    9  A    between atoms: O_15  and  C_16 
ROOT
HETATM    1  N           1     -20.806  -6.593  -3.968  0.00  0.00    -0.345 N 
HETATM    2  C           1     -20.793  -6.785  -5.324  0.00  0.00     0.251 C 
HETATM    3  H           1     -20.468  -5.723  -3.577  0.00  0.00     0.163 HD
HETATM    4  O           1     -21.196  -7.823  -5.791  0.00  0.00    -0.271 OA
ENDROOT
BRANCH   2   5
HETATM    5  C           1     -20.273  -5.700  -6.234  0.00  0.00     0.302 C 
BRANCH   5   6
HETATM    6  C           1     -21.378  -4.685  -6.497  0.00  0.00     0.153 C 
HETATM    7  C           1     -21.420  -4.354  -7.983  0.00  0.00     0.042 C 
BRANCH   6   8
HETATM    8  O           1     -22.612  -5.224  -6.103  0.00  0.00    -0.393 OA
HETATM    9  H           1     -22.438  -5.807  -5.384  0.00  0.00     0.210 HD
ENDBRANCH   6   8
ENDBRANCH   5   6
BRANCH   5  10
HETATM   10  N           1     -19.832  -6.305  -7.534  0.00  0.00    -0.064 N 
HETATM   11  H           1     -20.183  -5.721  -8.326  0.00  0.00     0.275 HD
HETATM   12  H           1     -20.219  -7.273  -7.614  0.00  0.00     0.275 HD
HETATM   13  H           1     -18.788  -6.344  -7.564  0.00  0.00     0.275 HD
ENDBRANCH   5  10
ENDBRANCH   2   5
BRANCH   1  14
HETATM   14  C           1     -21.305  -7.636  -3.094  0.00  0.00     0.185 C 
BRANCH  14  15
HETATM   15  C           1     -20.141  -8.485  -2.601  0.00  0.00     0.036 C 
BRANCH  15  16
HETATM   16  C           1     -20.344  -9.930  -3.036  0.00  0.00     0.003 C 
BRANCH  16  17
HETATM   17 Se           1     -20.911 -10.997  -1.508  0.00  0.00     0.000 Se
HETATM   18  C           1     -22.809 -10.915  -1.946  0.00  0.00     0.000 C 
ENDBRANCH  16  17
ENDBRANCH  15  16
ENDBRANCH  14  15
BRANCH  14  19
HETATM   19  C           1     -22.008  -7.010  -1.914  0.00  0.00     0.196 C 
HETATM   20  O           1     -22.016  -7.596  -0.809  0.00  0.00    -0.646 OA
HETATM   21  O           1     -22.580  -5.907  -2.042  0.00  0.00    -0.646 OA
ENDBRANCH  14  19
ENDBRANCH   1  14
TORSDOF 9
ENDMDL
MODEL 9
REMARK VINA RESULT:      -4.4      6.012      9.532
REMARK  9 active torsions:
REMARK  status: ('A' for Active; 'I' for Inactive)
REMARK    1  A    between atoms: N_4  and  C_14 
REMARK       I    between atoms: N_4  and  C_5 
REMARK    2  A    between atoms: C_5  and  C_11 
REMARK    3  A    between atoms: C_6  and  C_9 
REMARK    4  A    between atoms: C_6  and  C_14 
REMARK    5  A    between atoms: C_9  and  Se_10 
REMARK    6  A    between atoms: C_11  and  C_16 
REMARK    7  A    between atoms: C_11  and  N_21 
REMARK    8  A    between atoms: C_12  and  C_14 
REMARK    9  A    between atoms: O_15  and  C_16 
ROOT
HETATM    1  N           1     -20.938  -8.180  -2.185  0.00  0.00    -0.345 N 
HETATM    2  C           1     -21.131  -8.373  -3.527  0.00  0.00     0.251 C 
HETATM    3  H           1     -20.192  -7.577  -1.864  0.00  0.00     0.163 HD
HETATM    4  O           1     -22.021  -9.094  -3.911  0.00  0.00    -0.271 OA
ENDROOT
BRANCH   2   5
HETATM    5  C           1     -20.232  -7.688  -4.525  0.00  0.00     0.302 C 
BRANCH   5   6
HETATM    6  C           1     -20.791  -6.309  -4.850  0.00  0.00     0.153 C 
HETATM    7  C           1     -21.246  -6.276  -6.303  0.00  0.00     0.042 C 
BRANCH   6   8
HETATM    8  O           1     -21.883  -6.038  -4.013  0.00  0.00    -0.393 OA
HETATM    9  H           1     -21.805  -5.138  -3.745  0.00  0.00     0.210 HD
ENDBRANCH   6   8
ENDBRANCH   5   6
BRANCH   5  10
HETATM   10  N           1     -20.161  -8.506  -5.780  0.00  0.00    -0.064 N 
HETATM   11  H           1     -20.138  -7.871  -6.609  0.00  0.00     0.275 HD
HETATM   12  H           1     -21.001  -9.126  -5.837  0.00  0.00     0.275 HD
HETATM   13  H           1     -19.296  -9.093  -5.767  0.00  0.00     0.275 HD
ENDBRANCH   5  10
ENDBRANCH   2   5
BRANCH   1  14
HETATM   14  C           1     -21.803  -8.839  -1.226  0.00  0.00     0.185 C 
BRANCH  14  15
HETATM   15  C           1     -20.954  -9.620  -0.232  0.00  0.00     0.036 C 
BRANCH  15  16
HETATM   16  C           1     -20.954 -11.096  -0.612  0.00  0.00     0.003 C 
BRANCH  16  17
HETATM   17 Se           1     -22.649 -11.549  -1.461  0.00  0.00     0.000 Se
HETATM   18  C           1     -23.589 -11.875   0.216  0.00  0.00     0.000 C 
ENDBRANCH  16  17
ENDBRANCH  15  16
ENDBRANCH  14  15
BRANCH  14  19
HETATM   19  C           1     -22.618  -7.804  -0.490  0.00  0.00     0.196 C 
HETATM   20  O           1     -23.222  -8.116   0.559  0.00  0.00    -0.646 OA
HETATM   21  O           1     -22.688  -6.636  -0.929  0.00  0.00    -0.646 OA
ENDBRANCH  14  19
ENDBRANCH   1  14
TORSDOF 9
ENDMDL
