MODEL 1
REMARK VINA RESULT:      -5.4      0.000      0.000
REMARK  9 active torsions:
REMARK  status: ('A' for Active; 'I' for Inactive)
REMARK    1  A    between atoms: S_2  and  C_3 
REMARK    2  A    between atoms: C_3  and  C_4 
REMARK    3  A    between atoms: C_4  and  C_5 
REMARK    4  A    between atoms: C_4  and  N_8 
REMARK       I    between atoms: N_8  and  C_9 
REMARK    5  A    between atoms: C_9  and  C_10 
REMARK    6  A    between atoms: C_10  and  C_11 
REMARK    7  A    between atoms: C_10  and  N_15 
REMARK    8  A    between atoms: C_11  and  C_12 
REMARK    9  A    between atoms: C_12  and  Se_13 
ROOT
HETATM    1  H           1     -35.172  -1.871 -14.062  0.00  0.00     0.163 HD
HETATM    2  N           1     -34.880  -1.534 -13.154  0.00  0.00    -0.344 N 
HETATM    3  C           1     -34.267  -2.383 -12.272  0.00  0.00     0.249 C 
HETATM    4  O           1     -33.917  -1.980 -11.189  0.00  0.00    -0.271 OA
ENDROOT
BRANCH   3   5
HETATM    5  C           1     -34.028  -3.824 -12.654  0.00  0.00     0.274 C 
BRANCH   5   6
HETATM    6  C           1     -32.732  -4.310 -12.019  0.00  0.00     0.042 C 
BRANCH   6   7
HETATM    7  C           1     -32.992  -5.609 -11.265  0.00  0.00     0.003 C 
BRANCH   7   8
HETATM    8 Se           1     -34.864  -5.684 -10.728  0.00  0.00     0.000 Se
HETATM    9  C           1     -34.762  -7.504 -10.036  0.00  0.00     0.000 C 
ENDBRANCH   7   8
ENDBRANCH   6   7
ENDBRANCH   5   6
BRANCH   5  10
HETATM   10  N           1     -33.924  -3.933 -14.146  0.00  0.00    -0.067 N 
HETATM   11  H           1     -34.695  -3.386 -14.591  0.00  0.00     0.275 HD
HETATM   12  H           1     -33.003  -3.553 -14.460  0.00  0.00     0.275 HD
HETATM   13  H           1     -34.002  -4.937 -14.428  0.00  0.00     0.275 HD
ENDBRANCH   5  10
ENDBRANCH   3   5
BRANCH   2  14
HETATM   14  C           1     -35.109  -0.150 -12.786  0.00  0.00     0.194 C 
BRANCH  14  15
HETATM   15  C           1     -35.261   0.691 -14.048  0.00  0.00     0.106 C 
BRANCH  15  16
HETATM   16  S           1     -35.634  -0.393 -15.455  0.00  0.00    -0.180 SA
HETATM   17  H           1     -35.736  -1.525 -14.738  0.00  0.00     0.101 HD
ENDBRANCH  15  16
ENDBRANCH  14  15
BRANCH  14  18
HETATM   18  C           1     -36.369  -0.051 -11.961  0.00  0.00     0.197 C 
HETATM   19  O           1     -36.333   0.471 -10.826  0.00  0.00    -0.646 OA
HETATM   20  O           1     -37.448  -0.492 -12.413  0.00  0.00    -0.646 OA
ENDBRANCH  14  18
ENDBRANCH   2  14
TORSDOF 9
ENDMDL
MODEL 2
REMARK VINA RESULT:      -5.3     12.537     14.020
REMARK  9 active torsions:
REMARK  status: ('A' for Active; 'I' for Inactive)
REMARK    1  A    between atoms: S_2  and  C_3 
REMARK    2  A    between atoms: C_3  and  C_4 
REMARK    3  A    between atoms: C_4  and  C_5 
REMARK    4  A    between atoms: C_4  and  N_8 
REMARK       I    between atoms: N_8  and  C_9 
REMARK    5  A    between atoms: C_9  and  C_10 
REMARK    6  A    between atoms: C_10  and  C_11 
REMARK    7  A    between atoms: C_10  and  N_15 
REMARK    8  A    between atoms: C_11  and  C_12 
REMARK    9  A    between atoms: C_12  and  Se_13 
ROOT
HETATM    1  H           1     -22.168  -5.658  -9.350  0.00  0.00     0.163 HD
HETATM    2  N           1     -22.209  -4.768  -8.870  0.00  0.00    -0.344 N 
HETATM    3  C           1     -21.745  -4.661  -7.586  0.00  0.00     0.249 C 
HETATM    4  O           1     -21.793  -3.599  -7.013  0.00  0.00    -0.271 OA
ENDROOT
BRANCH   3   5
HETATM    5  C           1     -21.174  -5.870  -6.887  0.00  0.00     0.274 C 
BRANCH   5   6
HETATM    6  C           1     -21.100  -5.604  -5.389  0.00  0.00     0.042 C 
BRANCH   6   7
HETATM    7  C           1     -22.102  -6.494  -4.665  0.00  0.00     0.003 C 
BRANCH   7   8
HETATM    8 Se           1     -21.243  -7.317  -3.122  0.00  0.00     0.000 Se
HETATM    9  C           1     -22.224  -6.264  -1.807  0.00  0.00     0.000 C 
ENDBRANCH   7   8
ENDBRANCH   6   7
ENDBRANCH   5   6
BRANCH   5  10
HETATM   10  N           1     -19.797  -6.146  -7.413  0.00  0.00    -0.067 N 
HETATM   11  H           1     -19.457  -5.319  -7.954  0.00  0.00     0.275 HD
HETATM   12  H           1     -19.149  -6.328  -6.614  0.00  0.00     0.275 HD
HETATM   13  H           1     -19.824  -6.984  -8.037  0.00  0.00     0.275 HD
ENDBRANCH   5  10
ENDBRANCH   3   5
BRANCH   2  14
HETATM   14  C           1     -22.758  -3.606  -9.542  0.00  0.00     0.194 C 
BRANCH  14  15
HETATM   15  C           1     -22.106  -3.458 -10.911  0.00  0.00     0.106 C 
BRANCH  15  16
HETATM   16  S           1     -20.482  -4.267 -10.898  0.00  0.00    -0.180 SA
HETATM   17  H           1     -20.555  -4.749 -12.151  0.00  0.00     0.101 HD
ENDBRANCH  15  16
ENDBRANCH  14  15
BRANCH  14  18
HETATM   18  C           1     -24.247  -3.779  -9.709  0.00  0.00     0.197 C 
HETATM   19  O           1     -24.713  -4.887 -10.055  0.00  0.00    -0.646 OA
HETATM   20  O           1     -25.016  -2.816  -9.500  0.00  0.00    -0.646 OA
ENDBRANCH  14  18
ENDBRANCH   2  14
TORSDOF 9
ENDMDL
MODEL 3
REMARK VINA RESULT:      -5.0      2.459      3.136
REMARK  9 active torsions:
REMARK  status: ('A' for Active; 'I' for Inactive)
REMARK    1  A    between atoms: S_2  and  C_3 
REMARK    2  A    between atoms: C_3  and  C_4 
REMARK    3  A    between atoms: C_4  and  C_5 
REMARK    4  A    between atoms: C_4  and  N_8 
REMARK       I    between atoms: N_8  and  C_9 
REMARK    5  A    between atoms: C_9  and  C_10 
REMARK    6  A    between atoms: C_10  and  C_11 
REMARK    7  A    between atoms: C_10  and  N_15 
REMARK    8  A    between atoms: C_11  and  C_12 
REMARK    9  A    between atoms: C_12  and  Se_13 
ROOT
HETATM    1  H           1     -34.052  -1.438 -14.409  0.00  0.00     0.163 HD
HETATM    2  N           1     -35.006  -1.281 -14.108  0.00  0.00    -0.344 N 
HETATM    3  C           1     -35.406  -1.684 -12.862  0.00  0.00     0.249 C 
HETATM    4  O           1     -36.544  -1.496 -12.503  0.00  0.00    -0.271 OA
ENDROOT
BRANCH   3   5
HETATM    5  C           1     -34.426  -2.363 -11.937  0.00  0.00     0.274 C 
BRANCH   5   6
HETATM    6  C           1     -35.137  -3.464 -11.162  0.00  0.00     0.042 C 
BRANCH   6   7
HETATM    7  C           1     -34.976  -4.789 -11.897  0.00  0.00     0.003 C 
BRANCH   7   8
HETATM    8 Se           1     -33.607  -5.859 -11.015  0.00  0.00     0.000 Se
HETATM    9  C           1     -34.872  -7.091 -10.188  0.00  0.00     0.000 C 
ENDBRANCH   7   8
ENDBRANCH   6   7
ENDBRANCH   5   6
BRANCH   5  10
HETATM   10  N           1     -33.868  -1.356 -10.976  0.00  0.00    -0.067 N 
HETATM   11  H           1     -32.934  -1.030 -11.314  0.00  0.00     0.275 HD
HETATM   12  H           1     -34.518  -0.540 -10.910  0.00  0.00     0.275 HD
HETATM   13  H           1     -33.763  -1.795 -10.033  0.00  0.00     0.275 HD
ENDBRANCH   5  10
ENDBRANCH   3   5
BRANCH   2  14
HETATM   14  C           1     -35.948  -0.629 -14.996  0.00  0.00     0.194 C 
BRANCH  14  15
HETATM   15  C           1     -35.710   0.876 -14.970  0.00  0.00     0.106 C 
BRANCH  15  16
HETATM   16  S           1     -34.409   1.262 -13.765  0.00  0.00    -0.180 SA
HETATM   17  H           1     -33.595   0.247 -14.107  0.00  0.00     0.101 HD
ENDBRANCH  15  16
ENDBRANCH  14  15
BRANCH  14  18
HETATM   18  C           1     -35.755  -1.145 -16.401  0.00  0.00     0.197 C 
HETATM   19  O           1     -34.731  -1.802 -16.689  0.00  0.00    -0.646 OA
HETATM   20  O           1     -36.619  -0.916 -17.275  0.00  0.00    -0.646 OA
ENDBRANCH  14  18
ENDBRANCH   2  14
TORSDOF 9
ENDMDL
MODEL 4
REMARK VINA RESULT:      -4.9     12.727     14.288
REMARK  9 active torsions:
REMARK  status: ('A' for Active; 'I' for Inactive)
REMARK    1  A    between atoms: S_2  and  C_3 
REMARK    2  A    between atoms: C_3  and  C_4 
REMARK    3  A    between atoms: C_4  and  C_5 
REMARK    4  A    between atoms: C_4  and  N_8 
REMARK       I    between atoms: N_8  and  C_9 
REMARK    5  A    between atoms: C_9  and  C_10 
REMARK    6  A    between atoms: C_10  and  C_11 
REMARK    7  A    between atoms: C_10  and  N_15 
REMARK    8  A    between atoms: C_11  and  C_12 
REMARK    9  A    between atoms: C_12  and  Se_13 
ROOT
HETATM    1  H           1     -22.529  -3.440  -9.071  0.00  0.00     0.163 HD
HETATM    2  N           1     -21.883  -3.993  -9.620  0.00  0.00    -0.344 N 
HETATM    3  C           1     -20.663  -4.337  -9.102  0.00  0.00     0.249 C 
HETATM    4  O           1     -19.893  -4.998  -9.757  0.00  0.00    -0.271 OA
ENDROOT
BRANCH   3   5
HETATM    5  C           1     -20.281  -3.891  -7.712  0.00  0.00     0.274 C 
BRANCH   5   6
HETATM    6  C           1     -19.795  -5.090  -6.908  0.00  0.00     0.042 C 
BRANCH   6   7
HETATM    7  C           1     -20.369  -5.023  -5.498  0.00  0.00     0.003 C 
BRANCH   7   8
HETATM    8 Se           1     -21.011  -6.786  -4.974  0.00  0.00     0.000 Se
HETATM    9  C           1     -21.498  -6.251  -3.163  0.00  0.00     0.000 C 
ENDBRANCH   7   8
ENDBRANCH   6   7
ENDBRANCH   5   6
BRANCH   5  10
HETATM   10  N           1     -21.476  -3.287  -7.035  0.00  0.00    -0.067 N 
HETATM   11  H           1     -22.329  -3.460  -7.613  0.00  0.00     0.275 HD
HETATM   12  H           1     -21.600  -3.724  -6.093  0.00  0.00     0.275 HD
HETATM   13  H           1     -21.331  -2.258  -6.926  0.00  0.00     0.275 HD
ENDBRANCH   5  10
ENDBRANCH   3   5
BRANCH   2  14
HETATM   14  C           1     -22.250  -4.422 -10.956  0.00  0.00     0.194 C 
BRANCH  14  15
HETATM   15  C           1     -23.720  -4.820 -10.973  0.00  0.00     0.106 C 
BRANCH  15  16
HETATM   16  S           1     -24.679  -3.638  -9.984  0.00  0.00    -0.180 SA
HETATM   17  H           1     -25.365  -3.114 -11.015  0.00  0.00     0.101 HD
ENDBRANCH  15  16
ENDBRANCH  14  15
BRANCH  14  18
HETATM   18  C           1     -22.023  -3.290 -11.927  0.00  0.00     0.197 C 
HETATM   19  O           1     -22.566  -3.314 -13.053  0.00  0.00    -0.646 OA
HETATM   20  O           1     -21.292  -2.328 -11.605  0.00  0.00    -0.646 OA
ENDBRANCH  14  18
ENDBRANCH   2  14
TORSDOF 9
ENDMDL
MODEL 5
REMARK VINA RESULT:      -4.8     11.909     13.346
REMARK  9 active torsions:
REMARK  status: ('A' for Active; 'I' for Inactive)
REMARK    1  A    between atoms: S_2  and  C_3 
REMARK    2  A    between atoms: C_3  and  C_4 
REMARK    3  A    between atoms: C_4  and  C_5 
REMARK    4  A    between atoms: C_4  and  N_8 
REMARK       I    between atoms: N_8  and  C_9 
REMARK    5  A    between atoms: C_9  and  C_10 
REMARK    6  A    between atoms: C_10  and  C_11 
REMARK    7  A    between atoms: C_10  and  N_15 
REMARK    8  A    between atoms: C_11  and  C_12 
REMARK    9  A    between atoms: C_12  and  Se_13 
ROOT
HETATM    1  H           1     -24.237  -4.637  -8.446  0.00  0.00     0.163 HD
HETATM    2  N           1     -23.381  -4.196  -8.757  0.00  0.00    -0.344 N 
HETATM    3  C           1     -22.295  -4.145  -7.924  0.00  0.00     0.249 C 
HETATM    4  O           1     -21.273  -3.619  -8.296  0.00  0.00    -0.271 OA
ENDROOT
BRANCH   3   5
HETATM    5  C           1     -22.375  -4.747  -6.543  0.00  0.00     0.274 C 
BRANCH   5   6
HETATM    6  C           1     -21.474  -5.973  -6.469  0.00  0.00     0.042 C 
BRANCH   6   7
HETATM    7  C           1     -21.325  -6.407  -5.016  0.00  0.00     0.003 C 
BRANCH   7   8
HETATM    8 Se           1     -20.208  -8.001  -4.926  0.00  0.00     0.000 Se
HETATM    9  C           1     -21.588  -9.122  -4.125  0.00  0.00     0.000 C 
ENDBRANCH   7   8
ENDBRANCH   6   7
ENDBRANCH   5   6
BRANCH   5  10
HETATM   10  N           1     -23.790  -5.149  -6.254  0.00  0.00    -0.067 N 
HETATM   11  H           1     -23.804  -5.849  -5.479  0.00  0.00     0.275 HD
HETATM   12  H           1     -24.341  -4.307  -5.971  0.00  0.00     0.275 HD
HETATM   13  H           1     -24.214  -5.571  -7.111  0.00  0.00     0.275 HD
ENDBRANCH   5  10
ENDBRANCH   3   5
BRANCH   2  14
HETATM   14  C           1     -23.304  -3.617 -10.084  0.00  0.00     0.194 C 
BRANCH  14  15
HETATM   15  C           1     -22.689  -4.629 -11.042  0.00  0.00     0.106 C 
BRANCH  15  16
HETATM   16  S           1     -21.186  -3.928 -11.780  0.00  0.00    -0.180 SA
HETATM   17  H           1     -20.924  -4.972 -12.586  0.00  0.00     0.101 HD
ENDBRANCH  15  16
ENDBRANCH  14  15
BRANCH  14  18
HETATM   18  C           1     -24.691  -3.256 -10.556  0.00  0.00     0.197 C 
HETATM   19  O           1     -24.911  -3.080 -11.774  0.00  0.00    -0.646 OA
HETATM   20  O           1     -25.620  -3.133  -9.729  0.00  0.00    -0.646 OA
ENDBRANCH  14  18
ENDBRANCH   2  14
TORSDOF 9
ENDMDL
MODEL 6
REMARK VINA RESULT:      -4.7     13.874     16.150
REMARK  9 active torsions:
REMARK  status: ('A' for Active; 'I' for Inactive)
REMARK    1  A    between atoms: S_2  and  C_3 
REMARK    2  A    between atoms: C_3  and  C_4 
REMARK    3  A    between atoms: C_4  and  C_5 
REMARK    4  A    between atoms: C_4  and  N_8 
REMARK       I    between atoms: N_8  and  C_9 
REMARK    5  A    between atoms: C_9  and  C_10 
REMARK    6  A    between atoms: C_10  and  C_11 
REMARK    7  A    between atoms: C_10  and  N_15 
REMARK    8  A    between atoms: C_11  and  C_12 
REMARK    9  A    between atoms: C_12  and  Se_13 
ROOT
HETATM    1  H           1     -19.886  -6.787  -4.941  0.00  0.00     0.163 HD
HETATM    2  N           1     -20.888  -6.647  -4.927  0.00  0.00    -0.344 N 
HETATM    3  C           1     -21.461  -5.716  -5.752  0.00  0.00     0.249 C 
HETATM    4  O           1     -22.657  -5.549  -5.735  0.00  0.00    -0.271 OA
ENDROOT
BRANCH   3   5
HETATM    5  C           1     -20.599  -4.898  -6.682  0.00  0.00     0.274 C 
BRANCH   5   6
HETATM    6  C           1     -21.449  -3.829  -7.356  0.00  0.00     0.042 C 
BRANCH   6   7
HETATM    7  C           1     -21.762  -4.255  -8.784  0.00  0.00     0.003 C 
BRANCH   7   8
HETATM    8 Se           1     -23.659  -3.988  -9.141  0.00  0.00     0.000 Se
HETATM    9  C           1     -23.603  -4.775 -10.923  0.00  0.00     0.000 C 
ENDBRANCH   7   8
ENDBRANCH   6   7
ENDBRANCH   5   6
BRANCH   5  10
HETATM   10  N           1     -20.003  -5.795  -7.727  0.00  0.00    -0.067 N 
HETATM   11  H           1     -20.291  -5.465  -8.675  0.00  0.00     0.275 HD
HETATM   12  H           1     -18.961  -5.772  -7.653  0.00  0.00     0.275 HD
HETATM   13  H           1     -20.341  -6.773  -7.581  0.00  0.00     0.275 HD
ENDBRANCH   5  10
ENDBRANCH   3   5
BRANCH   2  14
HETATM   14  C           1     -21.717  -7.432  -4.033  0.00  0.00     0.194 C 
BRANCH  14  15
HETATM   15  C           1     -21.231  -8.875  -4.029  0.00  0.00     0.106 C 
BRANCH  15  16
HETATM   16  S           1     -19.621  -8.974  -4.861  0.00  0.00    -0.180 SA
HETATM   17  H           1     -19.503 -10.311  -4.781  0.00  0.00     0.101 HD
ENDBRANCH  15  16
ENDBRANCH  14  15
BRANCH  14  18
HETATM   18  C           1     -21.628  -6.865  -2.638  0.00  0.00     0.197 C 
HETATM   19  O           1     -20.845  -7.375  -1.806  0.00  0.00    -0.646 OA
HETATM   20  O           1     -22.335  -5.887  -2.314  0.00  0.00    -0.646 OA
ENDBRANCH  14  18
ENDBRANCH   2  14
TORSDOF 9
ENDMDL
MODEL 7
REMARK VINA RESULT:      -4.7      1.662      2.170
REMARK  9 active torsions:
REMARK  status: ('A' for Active; 'I' for Inactive)
REMARK    1  A    between atoms: S_2  and  C_3 
REMARK    2  A    between atoms: C_3  and  C_4 
REMARK    3  A    between atoms: C_4  and  C_5 
REMARK    4  A    between atoms: C_4  and  N_8 
REMARK       I    between atoms: N_8  and  C_9 
REMARK    5  A    between atoms: C_9  and  C_10 
REMARK    6  A    between atoms: C_10  and  C_11 
REMARK    7  A    between atoms: C_10  and  N_15 
REMARK    8  A    between atoms: C_11  and  C_12 
REMARK    9  A    between atoms: C_12  and  Se_13 
ROOT
HETATM    1  H           1     -34.837  -1.710 -14.279  0.00  0.00     0.163 HD
HETATM    2  N           1     -35.204  -1.012 -13.644  0.00  0.00    -0.344 N 
HETATM    3  C           1     -34.935  -1.098 -12.304  0.00  0.00     0.249 C 
HETATM    4  O           1     -35.372  -0.264 -11.546  0.00  0.00    -0.271 OA
ENDROOT
BRANCH   3   5
HETATM    5  C           1     -34.094  -2.233 -11.774  0.00  0.00     0.274 C 
BRANCH   5   6
HETATM    6  C           1     -34.998  -3.389 -11.367  0.00  0.00     0.042 C 
BRANCH   6   7
HETATM    7  C           1     -34.294  -4.239 -10.317  0.00  0.00     0.003 C 
BRANCH   7   8
HETATM    8 Se           1     -33.754  -5.935 -11.110  0.00  0.00     0.000 Se
HETATM    9  C           1     -34.851  -7.027  -9.925  0.00  0.00     0.000 C 
ENDBRANCH   7   8
ENDBRANCH   6   7
ENDBRANCH   5   6
BRANCH   5  10
HETATM   10  N           1     -33.318  -1.762 -10.580  0.00  0.00    -0.067 N 
HETATM   11  H           1     -32.748  -0.927 -10.841  0.00  0.00     0.275 HD
HETATM   12  H           1     -33.980  -1.505  -9.813  0.00  0.00     0.275 HD
HETATM   13  H           1     -32.686  -2.527 -10.252  0.00  0.00     0.275 HD
ENDBRANCH   5  10
ENDBRANCH   3   5
BRANCH   2  14
HETATM   14  C           1     -36.012   0.079 -14.153  0.00  0.00     0.194 C 
BRANCH  14  15
HETATM   15  C           1     -35.624   0.364 -15.598  0.00  0.00     0.106 C 
BRANCH  15  16
HETATM   16  S           1     -35.385  -1.203 -16.482  0.00  0.00    -0.180 SA
HETATM   17  H           1     -36.623  -1.262 -17.003  0.00  0.00     0.101 HD
ENDBRANCH  15  16
ENDBRANCH  14  15
BRANCH  14  18
HETATM   18  C           1     -37.470  -0.303 -14.089  0.00  0.00     0.197 C 
HETATM   19  O           1     -38.074  -0.281 -12.994  0.00  0.00    -0.646 OA
HETATM   20  O           1     -38.073  -0.643 -15.129  0.00  0.00    -0.646 OA
ENDBRANCH  14  18
ENDBRANCH   2  14
TORSDOF 9
ENDMDL
MODEL 8
REMARK VINA RESULT:      -4.6     12.318     14.617
REMARK  9 active torsions:
REMARK  status: ('A' for Active; 'I' for Inactive)
REMARK    1  A    between atoms: S_2  and  C_3 
REMARK    2  A    between atoms: C_3  and  C_4 
REMARK    3  A    between atoms: C_4  and  C_5 
REMARK    4  A    between atoms: C_4  and  N_8 
REMARK       I    between atoms: N_8  and  C_9 
REMARK    5  A    between atoms: C_9  and  C_10 
REMARK    6  A    between atoms: C_10  and  C_11 
REMARK    7  A    between atoms: C_10  and  N_15 
REMARK    8  A    between atoms: C_11  and  C_12 
REMARK    9  A    between atoms: C_12  and  Se_13 
ROOT
HETATM    1  H           1     -21.114  -5.608  -8.880  0.00  0.00     0.163 HD
HETATM    2  N           1     -21.666  -5.226  -8.123  0.00  0.00    -0.344 N 
HETATM    3  C           1     -22.883  -4.655  -8.382  0.00  0.00     0.249 C 
HETATM    4  O           1     -23.542  -4.199  -7.477  0.00  0.00    -0.271 OA
ENDROOT
BRANCH   3   5
HETATM    5  C           1     -23.402  -4.593  -9.798  0.00  0.00     0.274 C 
BRANCH   5   6
HETATM    6  C           1     -22.715  -3.455 -10.542  0.00  0.00     0.042 C 
BRANCH   6   7
HETATM    7  C           1     -22.617  -3.803 -12.022  0.00  0.00     0.003 C 
BRANCH   7   8
HETATM    8 Se           1     -23.957  -2.798 -13.017  0.00  0.00     0.000 Se
HETATM    9  C           1     -22.899  -2.687 -14.651  0.00  0.00     0.000 C 
ENDBRANCH   7   8
ENDBRANCH   6   7
ENDBRANCH   5   6
BRANCH   5  10
HETATM   10  N           1     -24.882  -4.353  -9.776  0.00  0.00    -0.067 N 
HETATM   11  H           1     -25.112  -3.654  -9.035  0.00  0.00     0.275 HD
HETATM   12  H           1     -25.189  -3.987 -10.706  0.00  0.00     0.275 HD
HETATM   13  H           1     -25.377  -5.251  -9.574  0.00  0.00     0.275 HD
ENDBRANCH   5  10
ENDBRANCH   3   5
BRANCH   2  14
HETATM   14  C           1     -21.168  -5.285  -6.762  0.00  0.00     0.194 C 
BRANCH  14  15
HETATM   15  C           1     -21.083  -6.740  -6.317  0.00  0.00     0.106 C 
BRANCH  15  16
HETATM   16  S           1     -21.968  -6.945  -4.746  0.00  0.00    -0.180 SA
HETATM   17  H           1     -23.028  -7.590  -5.265  0.00  0.00     0.101 HD
ENDBRANCH  15  16
ENDBRANCH  14  15
BRANCH  14  18
HETATM   18  C           1     -19.797  -4.658  -6.701  0.00  0.00     0.197 C 
HETATM   19  O           1     -19.205  -4.346  -7.758  0.00  0.00    -0.646 OA
HETATM   20  O           1     -19.253  -4.451  -5.595  0.00  0.00    -0.646 OA
ENDBRANCH  14  18
ENDBRANCH   2  14
TORSDOF 9
ENDMDL
MODEL 9
REMARK VINA RESULT:      -4.4      2.028      5.825
REMARK  9 active torsions:
REMARK  status: ('A' for Active; 'I' for Inactive)
REMARK    1  A    between atoms: S_2  and  C_3 
REMARK    2  A    between atoms: C_3  and  C_4 
REMARK    3  A    between atoms: C_4  and  C_5 
REMARK    4  A    between atoms: C_4  and  N_8 
REMARK       I    between atoms: N_8  and  C_9 
REMARK    5  A    between atoms: C_9  and  C_10 
REMARK    6  A    between atoms: C_10  and  C_11 
REMARK    7  A    between atoms: C_10  and  N_15 
REMARK    8  A    between atoms: C_11  and  C_12 
REMARK    9  A    between atoms: C_12  and  Se_13 
ROOT
HETATM    1  H           1     -36.068  -3.229 -12.547  0.00  0.00     0.163 HD
HETATM    2  N           1     -35.359  -3.088 -11.840  0.00  0.00    -0.344 N 
HETATM    3  C           1     -35.299  -1.903 -11.157  0.00  0.00     0.249 C 
HETATM    4  O           1     -34.452  -1.734 -10.312  0.00  0.00    -0.271 OA
ENDROOT
BRANCH   3   5
HETATM    5  C           1     -36.291  -0.807 -11.459  0.00  0.00     0.274 C 
BRANCH   5   6
HETATM    6  C           1     -36.013  -0.236 -12.843  0.00  0.00     0.042 C 
BRANCH   6   7
HETATM    7  C           1     -37.295  -0.250 -13.666  0.00  0.00     0.003 C 
BRANCH   7   8
HETATM    8 Se           1     -36.932   0.451 -15.447  0.00  0.00     0.000 Se
HETATM    9  C           1     -35.595  -0.898 -15.885  0.00  0.00     0.000 C 
ENDBRANCH   7   8
ENDBRANCH   6   7
ENDBRANCH   5   6
BRANCH   5  10
HETATM   10  N           1     -36.160   0.281 -10.435  0.00  0.00    -0.067 N 
HETATM   11  H           1     -36.168   1.212 -10.911  0.00  0.00     0.275 HD
HETATM   12  H           1     -36.959   0.227  -9.765  0.00  0.00     0.275 HD
HETATM   13  H           1     -35.261   0.164  -9.915  0.00  0.00     0.275 HD
ENDBRANCH   5  10
ENDBRANCH   3   5
BRANCH   2  14
HETATM   14  C           1     -34.405  -4.141 -11.549  0.00  0.00     0.194 C 
BRANCH  14  15
HETATM   15  C           1     -35.099  -5.493 -11.646  0.00  0.00     0.106 C 
BRANCH  15  16
HETATM   16  S           1     -34.525  -6.566 -10.299  0.00  0.00    -0.180 SA
HETATM   17  H           1     -35.693  -7.209 -10.123  0.00  0.00     0.101 HD
ENDBRANCH  15  16
ENDBRANCH  14  15
BRANCH  14  18
HETATM   18  C           1     -33.273  -4.083 -12.545  0.00  0.00     0.197 C 
HETATM   19  O           1     -32.103  -4.321 -12.175  0.00  0.00    -0.646 OA
HETATM   20  O           1     -33.506  -3.797 -13.739  0.00  0.00    -0.646 OA
ENDBRANCH  14  18
ENDBRANCH   2  14
TORSDOF 9
ENDMDL
