MODEL 1
REMARK VINA RESULT:      -7.6      0.000      0.000
REMARK  10 active torsions:
REMARK  status: ('A' for Active; 'I' for Inactive)
REMARK    1  A    between atoms: C_5  and  C_14 
REMARK    2  A    between atoms: C_7  and  C_15 
REMARK       I    between atoms: C_12  and  N_26 
REMARK    3  A    between atoms: C_12  and  C_13 
REMARK    4  A    between atoms: C_13  and  C_14 
REMARK    5  A    between atoms: C_13  and  N_27 
REMARK    6  A    between atoms: C_15  and  C_25 
REMARK    7  A    between atoms: C_15  and  N_26 
REMARK       I    between atoms: N_17  and  C_18 
REMARK       I    between atoms: C_18  and  N_19 
REMARK    8  A    between atoms: N_20  and  C_21 
REMARK    9  A    between atoms: C_21  and  C_22 
REMARK   10  A    between atoms: C_22  and  C_25 
ROOT
HETATM    1  C           1     -22.704  -3.774  -9.576  0.00  0.00     0.185 C 
ENDROOT
BRANCH   1   2
HETATM    2  C           1     -24.206  -3.828  -9.705  0.00  0.00     0.196 C 
HETATM    3  O           1     -24.888  -2.799  -9.508  0.00  0.00    -0.646 OA
HETATM    4  O           1     -24.769  -4.902 -10.009  0.00  0.00    -0.646 OA
ENDBRANCH   1   2
BRANCH   1   5
HETATM    5  C           1     -22.070  -3.897 -10.957  0.00  0.00     0.038 C 
BRANCH   5   6
HETATM    6  C           1     -22.366  -2.640 -11.764  0.00  0.00     0.023 C 
BRANCH   6   7
HETATM    7  C           1     -23.112  -3.017 -13.037  0.00  0.00     0.138 C 
BRANCH   7   8
HETATM    8  N           1     -23.863  -1.853 -13.528  0.00  0.00    -0.227 N 
HETATM    9  H           1     -24.577  -1.390 -12.911  0.00  0.00     0.177 HD
HETATM   10  C           1     -23.650  -1.407 -14.693  0.00  0.00     0.665 C 
HETATM   11  N           1     -24.314  -0.378 -15.128  0.00  0.00    -0.235 N 
HETATM   12  N           1     -22.790  -1.965 -15.436  0.00  0.00    -0.235 N 
HETATM   13  H           1     -24.138  -0.010 -16.090  0.00  0.00     0.174 HD
HETATM   14  H           1     -25.024   0.083 -14.514  0.00  0.00     0.174 HD
HETATM   15  H           1     -22.612  -1.595 -16.403  0.00  0.00     0.174 HD
HETATM   16  H           1     -22.253  -2.796 -15.085  0.00  0.00     0.174 HD
ENDBRANCH   7   8
ENDBRANCH   6   7
ENDBRANCH   5   6
ENDBRANCH   1   5
BRANCH   1  17
HETATM   17  N           1     -22.251  -4.867  -8.738  0.00  0.00    -0.345 N 
HETATM   18  H           1     -22.449  -5.823  -9.004  0.00  0.00     0.163 HD
HETATM   19  C           1     -21.557  -4.605  -7.588  0.00  0.00     0.249 C 
HETATM   20  O           1     -21.321  -3.463  -7.271  0.00  0.00    -0.271 OA
BRANCH  19  21
HETATM   21  C           1     -21.086  -5.743  -6.715  0.00  0.00     0.284 C 
BRANCH  21  22
HETATM   22  C           1     -20.845  -5.232  -5.300  0.00  0.00     0.155 C 
BRANCH  22  23
HETATM   23  C           1     -21.205  -6.310  -4.308  0.00  0.00     0.175 C 
HETATM   24  O           1     -20.732  -7.460  -4.435  0.00  0.00    -0.648 OA
HETATM   25  O           1     -21.975  -6.052  -3.357  0.00  0.00    -0.648 OA
ENDBRANCH  22  23
ENDBRANCH  21  22
BRANCH  21  26
HETATM   26  N           1     -19.808  -6.300  -7.269  0.00  0.00    -0.066 N 
HETATM   27  H           1     -19.458  -5.678  -8.032  0.00  0.00     0.275 HD
HETATM   28  H           1     -19.094  -6.355  -6.508  0.00  0.00     0.275 HD
HETATM   29  H           1     -19.983  -7.256  -7.653  0.00  0.00     0.275 HD
ENDBRANCH  21  26
ENDBRANCH  19  21
ENDBRANCH   1  17
TORSDOF 10
ENDMDL
MODEL 2
REMARK VINA RESULT:      -7.2     12.275     13.988
REMARK  10 active torsions:
REMARK  status: ('A' for Active; 'I' for Inactive)
REMARK    1  A    between atoms: C_5  and  C_14 
REMARK    2  A    between atoms: C_7  and  C_15 
REMARK       I    between atoms: C_12  and  N_26 
REMARK    3  A    between atoms: C_12  and  C_13 
REMARK    4  A    between atoms: C_13  and  C_14 
REMARK    5  A    between atoms: C_13  and  N_27 
REMARK    6  A    between atoms: C_15  and  C_25 
REMARK    7  A    between atoms: C_15  and  N_26 
REMARK       I    between atoms: N_17  and  C_18 
REMARK       I    between atoms: C_18  and  N_19 
REMARK    8  A    between atoms: N_20  and  C_21 
REMARK    9  A    between atoms: C_21  and  C_22 
REMARK   10  A    between atoms: C_22  and  C_25 
ROOT
HETATM    1  C           1     -35.874  -0.457 -10.904  0.00  0.00     0.185 C 
ENDROOT
BRANCH   1   2
HETATM    2  C           1     -37.112  -0.232 -10.070  0.00  0.00     0.196 C 
HETATM    3  O           1     -38.061   0.440 -10.528  0.00  0.00    -0.646 OA
HETATM    4  O           1     -37.188  -0.719  -8.921  0.00  0.00    -0.646 OA
ENDBRANCH   1   2
BRANCH   1   5
HETATM    5  C           1     -36.105   0.079 -12.311  0.00  0.00     0.038 C 
BRANCH   5   6
HETATM    6  C           1     -34.763   0.343 -12.980  0.00  0.00     0.023 C 
BRANCH   6   7
HETATM    7  C           1     -34.982   1.112 -14.275  0.00  0.00     0.138 C 
BRANCH   7   8
HETATM    8  N           1     -35.104   0.164 -15.393  0.00  0.00    -0.227 N 
HETATM    9  H           1     -34.295  -0.456 -15.646  0.00  0.00     0.177 HD
HETATM   10  C           1     -36.185   0.096 -16.049  0.00  0.00     0.665 C 
HETATM   11  N           1     -36.293  -0.742 -17.037  0.00  0.00    -0.235 N 
HETATM   12  N           1     -37.159   0.843 -15.742  0.00  0.00    -0.235 N 
HETATM   13  H           1     -37.185  -0.799 -17.579  0.00  0.00     0.174 HD
HETATM   14  H           1     -35.488  -1.359 -17.290  0.00  0.00     0.174 HD
HETATM   15  H           1     -38.056   0.786 -16.286  0.00  0.00     0.174 HD
HETATM   16  H           1     -37.072   1.520 -14.944  0.00  0.00     0.174 HD
ENDBRANCH   7   8
ENDBRANCH   6   7
ENDBRANCH   5   6
ENDBRANCH   1   5
BRANCH   1  17
HETATM   17  N           1     -35.587  -1.877 -10.969  0.00  0.00    -0.345 N 
HETATM   18  H           1     -36.306  -2.525 -11.262  0.00  0.00     0.163 HD
HETATM   19  C           1     -34.343  -2.339 -10.632  0.00  0.00     0.249 C 
HETATM   20  O           1     -33.485  -1.564 -10.281  0.00  0.00    -0.271 OA
BRANCH  19  21
HETATM   21  C           1     -34.043  -3.817 -10.699  0.00  0.00     0.284 C 
BRANCH  21  22
HETATM   22  C           1     -33.313  -4.129 -11.998  0.00  0.00     0.155 C 
BRANCH  22  23
HETATM   23  C           1     -34.296  -4.125 -13.143  0.00  0.00     0.175 C 
HETATM   24  O           1     -34.454  -3.091 -13.827  0.00  0.00    -0.648 OA
HETATM   25  O           1     -34.952  -5.157 -13.408  0.00  0.00    -0.648 OA
ENDBRANCH  22  23
ENDBRANCH  21  22
BRANCH  21  26
HETATM   26  N           1     -35.329  -4.589 -10.651  0.00  0.00    -0.066 N 
HETATM   27  H           1     -35.401  -5.198 -11.497  0.00  0.00     0.275 HD
HETATM   28  H           1     -35.346  -5.182  -9.791  0.00  0.00     0.275 HD
HETATM   29  H           1     -36.134  -3.923 -10.632  0.00  0.00     0.275 HD
ENDBRANCH  21  26
ENDBRANCH  19  21
ENDBRANCH   1  17
TORSDOF 10
ENDMDL
MODEL 3
REMARK VINA RESULT:      -7.1      1.504      1.902
REMARK  10 active torsions:
REMARK  status: ('A' for Active; 'I' for Inactive)
REMARK    1  A    between atoms: C_5  and  C_14 
REMARK    2  A    between atoms: C_7  and  C_15 
REMARK       I    between atoms: C_12  and  N_26 
REMARK    3  A    between atoms: C_12  and  C_13 
REMARK    4  A    between atoms: C_13  and  C_14 
REMARK    5  A    between atoms: C_13  and  N_27 
REMARK    6  A    between atoms: C_15  and  C_25 
REMARK    7  A    between atoms: C_15  and  N_26 
REMARK       I    between atoms: N_17  and  C_18 
REMARK       I    between atoms: C_18  and  N_19 
REMARK    8  A    between atoms: N_20  and  C_21 
REMARK    9  A    between atoms: C_21  and  C_22 
REMARK   10  A    between atoms: C_22  and  C_25 
ROOT
HETATM    1  C           1     -22.648  -3.967  -9.116  0.00  0.00     0.185 C 
ENDROOT
BRANCH   1   2
HETATM    2  C           1     -24.106  -3.881  -9.497  0.00  0.00     0.196 C 
HETATM    3  O           1     -24.680  -2.771  -9.528  0.00  0.00    -0.646 OA
HETATM    4  O           1     -24.739  -4.921  -9.781  0.00  0.00    -0.646 OA
ENDBRANCH   1   2
BRANCH   1   5
HETATM    5  C           1     -21.870  -4.651 -10.233  0.00  0.00     0.038 C 
BRANCH   5   6
HETATM    6  C           1     -20.743  -3.739 -10.698  0.00  0.00     0.023 C 
BRANCH   6   7
HETATM    7  C           1     -21.288  -2.724 -11.694  0.00  0.00     0.138 C 
BRANCH   7   8
HETATM    8  N           1     -21.904  -3.429 -12.826  0.00  0.00    -0.227 N 
HETATM    9  H           1     -21.389  -4.214 -13.299  0.00  0.00     0.177 HD
HETATM   10  C           1     -23.054  -3.091 -13.232  0.00  0.00     0.665 C 
HETATM   11  N           1     -23.599  -3.715 -14.234  0.00  0.00    -0.235 N 
HETATM   12  N           1     -23.673  -2.146 -12.663  0.00  0.00    -0.235 N 
HETATM   13  H           1     -24.549  -3.437 -14.570  0.00  0.00     0.174 HD
HETATM   14  H           1     -23.088  -4.496 -14.705  0.00  0.00     0.174 HD
HETATM   15  H           1     -24.628  -1.865 -13.000  0.00  0.00     0.174 HD
HETATM   16  H           1     -23.233  -1.642 -11.854  0.00  0.00     0.174 HD
ENDBRANCH   7   8
ENDBRANCH   6   7
ENDBRANCH   5   6
ENDBRANCH   1   5
BRANCH   1  17
HETATM   17  N           1     -22.513  -4.734  -7.894  0.00  0.00    -0.345 N 
HETATM   18  H           1     -23.178  -5.466  -7.679  0.00  0.00     0.163 HD
HETATM   19  C           1     -21.485  -4.467  -7.029  0.00  0.00     0.249 C 
HETATM   20  O           1     -20.692  -3.593  -7.285  0.00  0.00    -0.271 OA
BRANCH  19  21
HETATM   21  C           1     -21.344  -5.265  -5.756  0.00  0.00     0.284 C 
BRANCH  21  22
HETATM   22  C           1     -20.268  -6.327  -5.938  0.00  0.00     0.155 C 
BRANCH  22  23
HETATM   23  C           1     -20.679  -7.590  -5.221  0.00  0.00     0.175 C 
HETATM   24  O           1     -21.156  -8.548  -5.867  0.00  0.00    -0.648 OA
HETATM   25  O           1     -20.543  -7.678  -3.981  0.00  0.00    -0.648 OA
ENDBRANCH  22  23
ENDBRANCH  21  22
BRANCH  21  26
HETATM   26  N           1     -22.651  -5.929  -5.436  0.00  0.00    -0.066 N 
HETATM   27  H           1     -22.494  -6.951  -5.280  0.00  0.00     0.275 HD
HETATM   28  H           1     -23.055  -5.503  -4.571  0.00  0.00     0.275 HD
HETATM   29  H           1     -23.313  -5.796  -6.233  0.00  0.00     0.275 HD
ENDBRANCH  21  26
ENDBRANCH  19  21
ENDBRANCH   1  17
TORSDOF 10
ENDMDL
MODEL 4
REMARK VINA RESULT:      -6.6     12.216     13.885
REMARK  10 active torsions:
REMARK  status: ('A' for Active; 'I' for Inactive)
REMARK    1  A    between atoms: C_5  and  C_14 
REMARK    2  A    between atoms: C_7  and  C_15 
REMARK       I    between atoms: C_12  and  N_26 
REMARK    3  A    between atoms: C_12  and  C_13 
REMARK    4  A    between atoms: C_13  and  C_14 
REMARK    5  A    between atoms: C_13  and  N_27 
REMARK    6  A    between atoms: C_15  and  C_25 
REMARK    7  A    between atoms: C_15  and  N_26 
REMARK       I    between atoms: N_17  and  C_18 
REMARK       I    between atoms: C_18  and  N_19 
REMARK    8  A    between atoms: N_20  and  C_21 
REMARK    9  A    between atoms: C_21  and  C_22 
REMARK   10  A    between atoms: C_22  and  C_25 
ROOT
HETATM    1  C           1     -35.879  -0.157 -14.766  0.00  0.00     0.185 C 
ENDROOT
BRANCH   1   2
HETATM    2  C           1     -37.385  -0.187 -14.679  0.00  0.00     0.196 C 
HETATM    3  O           1     -37.943  -0.690 -13.679  0.00  0.00    -0.646 OA
HETATM    4  O           1     -38.075   0.290 -15.606  0.00  0.00    -0.646 OA
ENDBRANCH   1   2
BRANCH   1   5
HETATM    5  C           1     -35.443  -0.556 -16.171  0.00  0.00     0.038 C 
BRANCH   5   6
HETATM    6  C           1     -35.362  -2.073 -16.265  0.00  0.00     0.023 C 
BRANCH   6   7
HETATM    7  C           1     -34.215  -2.466 -17.186  0.00  0.00     0.138 C 
BRANCH   7   8
HETATM    8  N           1     -33.622  -3.728 -16.720  0.00  0.00    -0.227 N 
HETATM    9  H           1     -34.200  -4.406 -16.164  0.00  0.00     0.177 HD
HETATM   10  C           1     -32.415  -3.997 -16.989  0.00  0.00     0.665 C 
HETATM   11  N           1     -31.890  -5.113 -16.577  0.00  0.00    -0.235 N 
HETATM   12  N           1     -31.719  -3.179 -17.659  0.00  0.00    -0.235 N 
HETATM   13  H           1     -30.894  -5.335 -16.799  0.00  0.00     0.174 HD
HETATM   14  H           1     -32.465  -5.788 -16.024  0.00  0.00     0.174 HD
HETATM   15  H           1     -30.717  -3.402 -17.882  0.00  0.00     0.174 HD
HETATM   16  H           1     -32.143  -2.278 -17.991  0.00  0.00     0.174 HD
ENDBRANCH   7   8
ENDBRANCH   6   7
ENDBRANCH   5   6
ENDBRANCH   1   5
BRANCH   1  17
HETATM   17  N           1     -35.320  -1.086 -13.805  0.00  0.00    -0.345 N 
HETATM   18  H           1     -35.277  -2.074 -14.022  0.00  0.00     0.163 HD
HETATM   19  C           1     -34.850  -0.628 -12.604  0.00  0.00     0.249 C 
HETATM   20  O           1     -34.902   0.550 -12.344  0.00  0.00    -0.271 OA
BRANCH  19  21
HETATM   21  C           1     -34.269  -1.596 -11.602  0.00  0.00     0.284 C 
BRANCH  21  22
HETATM   22  C           1     -34.418  -3.019 -12.124  0.00  0.00     0.155 C 
BRANCH  22  23
HETATM   23  C           1     -34.921  -3.912 -11.016  0.00  0.00     0.175 C 
HETATM   24  O           1     -34.112  -4.581 -10.338  0.00  0.00    -0.648 OA
HETATM   25  O           1     -36.146  -3.981 -10.776  0.00  0.00    -0.648 OA
ENDBRANCH  22  23
ENDBRANCH  21  22
BRANCH  21  26
HETATM   26  N           1     -34.999  -1.464 -10.298  0.00  0.00    -0.066 N 
HETATM   27  H           1     -34.440  -0.869  -9.645  0.00  0.00     0.275 HD
HETATM   28  H           1     -35.930  -1.020 -10.465  0.00  0.00     0.275 HD
HETATM   29  H           1     -35.134  -2.411  -9.877  0.00  0.00     0.275 HD
ENDBRANCH  21  26
ENDBRANCH  19  21
ENDBRANCH   1  17
TORSDOF 10
ENDMDL
MODEL 5
REMARK VINA RESULT:      -6.6      2.168      2.983
REMARK  10 active torsions:
REMARK  status: ('A' for Active; 'I' for Inactive)
REMARK    1  A    between atoms: C_5  and  C_14 
REMARK    2  A    between atoms: C_7  and  C_15 
REMARK       I    between atoms: C_12  and  N_26 
REMARK    3  A    between atoms: C_12  and  C_13 
REMARK    4  A    between atoms: C_13  and  C_14 
REMARK    5  A    between atoms: C_13  and  N_27 
REMARK    6  A    between atoms: C_15  and  C_25 
REMARK    7  A    between atoms: C_15  and  N_26 
REMARK       I    between atoms: N_17  and  C_18 
REMARK       I    between atoms: C_18  and  N_19 
REMARK    8  A    between atoms: N_20  and  C_21 
REMARK    9  A    between atoms: C_21  and  C_22 
REMARK   10  A    between atoms: C_22  and  C_25 
ROOT
HETATM    1  C           1     -21.789  -4.708  -8.538  0.00  0.00     0.185 C 
ENDROOT
BRANCH   1   2
HETATM    2  C           1     -20.471  -4.209  -9.079  0.00  0.00     0.196 C 
HETATM    3  O           1     -20.221  -4.304 -10.300  0.00  0.00    -0.646 OA
HETATM    4  O           1     -19.631  -3.701  -8.306  0.00  0.00    -0.646 OA
ENDBRANCH   1   2
BRANCH   1   5
HETATM    5  C           1     -22.904  -3.759  -8.958  0.00  0.00     0.038 C 
BRANCH   5   6
HETATM    6  C           1     -24.000  -4.545  -9.664  0.00  0.00     0.023 C 
BRANCH   6   7
HETATM    7  C           1     -23.610  -4.771 -11.118  0.00  0.00     0.138 C 
BRANCH   7   8
HETATM    8  N           1     -24.040  -3.620 -11.925  0.00  0.00    -0.227 N 
HETATM    9  H           1     -25.029  -3.271 -11.856  0.00  0.00     0.177 HD
HETATM   10  C           1     -23.221  -3.051 -12.704  0.00  0.00     0.665 C 
HETATM   11  N           1     -23.601  -2.034 -13.418  0.00  0.00    -0.235 N 
HETATM   12  N           1     -22.030  -3.473 -12.787  0.00  0.00    -0.235 N 
HETATM   13  H           1     -22.925  -1.564 -14.061  0.00  0.00     0.174 HD
HETATM   14  H           1     -24.584  -1.686 -13.350  0.00  0.00     0.174 HD
HETATM   15  H           1     -21.349  -3.001 -13.433  0.00  0.00     0.174 HD
HETATM   16  H           1     -21.722  -4.294 -12.210  0.00  0.00     0.174 HD
ENDBRANCH   7   8
ENDBRANCH   6   7
ENDBRANCH   5   6
ENDBRANCH   1   5
BRANCH   1  17
HETATM   17  N           1     -21.725  -4.768  -7.091  0.00  0.00    -0.345 N 
HETATM   18  H           1     -21.972  -3.956  -6.540  0.00  0.00     0.163 HD
HETATM   19  C           1     -21.330  -5.922  -6.471  0.00  0.00     0.249 C 
HETATM   20  O           1     -21.034  -6.891  -7.128  0.00  0.00    -0.271 OA
BRANCH  19  21
HETATM   21  C           1     -21.262  -5.984  -4.964  0.00  0.00     0.284 C 
BRANCH  21  22
HETATM   22  C           1     -20.400  -7.166  -4.541  0.00  0.00     0.155 C 
BRANCH  22  23
HETATM   23  C           1     -21.225  -8.121  -3.713  0.00  0.00     0.175 C 
HETATM   24  O           1     -21.843  -9.055  -4.268  0.00  0.00    -0.648 OA
HETATM   25  O           1     -21.288  -7.979  -2.472  0.00  0.00    -0.648 OA
ENDBRANCH  22  23
ENDBRANCH  21  22
BRANCH  21  26
HETATM   26  N           1     -22.646  -6.152  -4.409  0.00  0.00    -0.066 N 
HETATM   27  H           1     -23.252  -5.368  -4.740  0.00  0.00     0.275 HD
HETATM   28  H           1     -23.043  -7.062  -4.736  0.00  0.00     0.275 HD
HETATM   29  H           1     -22.606  -6.144  -3.365  0.00  0.00     0.275 HD
ENDBRANCH  21  26
ENDBRANCH  19  21
ENDBRANCH   1  17
TORSDOF 10
ENDMDL
MODEL 6
REMARK VINA RESULT:      -6.6      2.324      7.598
REMARK  10 active torsions:
REMARK  status: ('A' for Active; 'I' for Inactive)
REMARK    1  A    between atoms: C_5  and  C_14 
REMARK    2  A    between atoms: C_7  and  C_15 
REMARK       I    between atoms: C_12  and  N_26 
REMARK    3  A    between atoms: C_12  and  C_13 
REMARK    4  A    between atoms: C_13  and  C_14 
REMARK    5  A    between atoms: C_13  and  N_27 
REMARK    6  A    between atoms: C_15  and  C_25 
REMARK    7  A    between atoms: C_15  and  N_26 
REMARK       I    between atoms: N_17  and  C_18 
REMARK       I    between atoms: C_18  and  N_19 
REMARK    8  A    between atoms: N_20  and  C_21 
REMARK    9  A    between atoms: C_21  and  C_22 
REMARK   10  A    between atoms: C_22  and  C_25 
ROOT
HETATM    1  C           1     -21.816  -4.376  -8.243  0.00  0.00     0.185 C 
ENDROOT
BRANCH   1   2
HETATM    2  C           1     -23.014  -4.583  -7.348  0.00  0.00     0.196 C 
HETATM    3  O           1     -24.153  -4.249  -7.741  0.00  0.00    -0.646 OA
HETATM    4  O           1     -22.867  -5.088  -6.214  0.00  0.00    -0.646 OA
ENDBRANCH   1   2
BRANCH   1   5
HETATM    5  C           1     -20.720  -3.657  -7.466  0.00  0.00     0.038 C 
BRANCH   5   6
HETATM    6  C           1     -19.427  -4.457  -7.555  0.00  0.00     0.023 C 
BRANCH   6   7
HETATM    7  C           1     -19.696  -5.904  -7.167  0.00  0.00     0.138 C 
BRANCH   7   8
HETATM    8  N           1     -20.031  -5.974  -5.737  0.00  0.00    -0.227 N 
HETATM    9  H           1     -19.671  -5.240  -5.077  0.00  0.00     0.177 HD
HETATM   10  C           1     -20.752  -6.918  -5.301  0.00  0.00     0.665 C 
HETATM   11  N           1     -21.047  -6.980  -4.037  0.00  0.00    -0.235 N 
HETATM   12  N           1     -21.185  -7.802  -6.097  0.00  0.00    -0.235 N 
HETATM   13  H           1     -21.642  -7.760  -3.677  0.00  0.00     0.174 HD
HETATM   14  H           1     -20.689  -6.251  -3.380  0.00  0.00     0.174 HD
HETATM   15  H           1     -21.783  -8.587  -5.735  0.00  0.00     0.174 HD
HETATM   16  H           1     -20.946  -7.752  -7.118  0.00  0.00     0.174 HD
ENDBRANCH   7   8
ENDBRANCH   6   7
ENDBRANCH   5   6
ENDBRANCH   1   5
BRANCH   1  17
HETATM   17  N           1     -22.201  -3.576  -9.388  0.00  0.00    -0.345 N 
HETATM   18  H           1     -22.876  -2.829  -9.280  0.00  0.00     0.163 HD
HETATM   19  C           1     -21.653  -3.831 -10.616  0.00  0.00     0.249 C 
HETATM   20  O           1     -20.849  -4.723 -10.746  0.00  0.00    -0.271 OA
BRANCH  19  21
HETATM   21  C           1     -22.054  -2.999 -11.810  0.00  0.00     0.284 C 
BRANCH  21  22
HETATM   22  C           1     -23.560  -2.770 -11.788  0.00  0.00     0.155 C 
BRANCH  22  23
HETATM   23  C           1     -24.114  -2.931 -13.182  0.00  0.00     0.175 C 
HETATM   24  O           1     -24.596  -4.027 -13.540  0.00  0.00    -0.648 OA
HETATM   25  O           1     -24.093  -1.967 -13.978  0.00  0.00    -0.648 OA
ENDBRANCH  22  23
ENDBRANCH  21  22
BRANCH  21  26
HETATM   26  N           1     -21.677  -3.719 -13.071  0.00  0.00    -0.066 N 
HETATM   27  H           1     -21.065  -3.105 -13.653  0.00  0.00     0.275 HD
HETATM   28  H           1     -21.163  -4.596 -12.828  0.00  0.00     0.275 HD
HETATM   29  H           1     -22.542  -3.958 -13.607  0.00  0.00     0.275 HD
ENDBRANCH  21  26
ENDBRANCH  19  21
ENDBRANCH   1  17
TORSDOF 10
ENDMDL
MODEL 7
REMARK VINA RESULT:      -6.4      2.004      2.501
REMARK  10 active torsions:
REMARK  status: ('A' for Active; 'I' for Inactive)
REMARK    1  A    between atoms: C_5  and  C_14 
REMARK    2  A    between atoms: C_7  and  C_15 
REMARK       I    between atoms: C_12  and  N_26 
REMARK    3  A    between atoms: C_12  and  C_13 
REMARK    4  A    between atoms: C_13  and  C_14 
REMARK    5  A    between atoms: C_13  and  N_27 
REMARK    6  A    between atoms: C_15  and  C_25 
REMARK    7  A    between atoms: C_15  and  N_26 
REMARK       I    between atoms: N_17  and  C_18 
REMARK       I    between atoms: C_18  and  N_19 
REMARK    8  A    between atoms: N_20  and  C_21 
REMARK    9  A    between atoms: C_21  and  C_22 
REMARK   10  A    between atoms: C_22  and  C_25 
ROOT
HETATM    1  C           1     -21.973  -4.746 -10.806  0.00  0.00     0.185 C 
ENDROOT
BRANCH   1   2
HETATM    2  C           1     -20.993  -3.681 -11.236  0.00  0.00     0.196 C 
HETATM    3  O           1     -21.395  -2.523 -11.476  0.00  0.00    -0.646 OA
HETATM    4  O           1     -19.780  -3.959 -11.353  0.00  0.00    -0.646 OA
ENDBRANCH   1   2
BRANCH   1   5
HETATM    5  C           1     -23.159  -4.762 -11.762  0.00  0.00     0.038 C 
BRANCH   5   6
HETATM    6  C           1     -24.182  -3.725 -11.317  0.00  0.00     0.023 C 
BRANCH   6   7
HETATM    7  C           1     -24.629  -2.903 -12.518  0.00  0.00     0.138 C 
BRANCH   7   8
HETATM    8  N           1     -23.646  -3.043 -13.601  0.00  0.00    -0.227 N 
HETATM    9  H           1     -23.085  -3.927 -13.690  0.00  0.00     0.177 HD
HETATM   10  C           1     -23.475  -2.099 -14.427  0.00  0.00     0.665 C 
HETATM   11  N           1     -22.605  -2.224 -15.386  0.00  0.00    -0.235 N 
HETATM   12  N           1     -24.151  -1.035 -14.320  0.00  0.00    -0.235 N 
HETATM   13  H           1     -22.464  -1.444 -16.068  0.00  0.00     0.174 HD
HETATM   14  H           1     -22.047  -3.103 -15.475  0.00  0.00     0.174 HD
HETATM   15  H           1     -24.009  -0.251 -15.005  0.00  0.00     0.174 HD
HETATM   16  H           1     -24.853  -0.935 -13.546  0.00  0.00     0.174 HD
ENDBRANCH   7   8
ENDBRANCH   6   7
ENDBRANCH   5   6
ENDBRANCH   1   5
BRANCH   1  17
HETATM   17  N           1     -22.438  -4.460  -9.463  0.00  0.00    -0.345 N 
HETATM   18  H           1     -23.295  -3.941  -9.325  0.00  0.00     0.163 HD
HETATM   19  C           1     -21.717  -4.892  -8.383  0.00  0.00     0.249 C 
HETATM   20  O           1     -20.693  -5.511  -8.548  0.00  0.00    -0.271 OA
BRANCH  19  21
HETATM   21  C           1     -22.201  -4.594  -6.984  0.00  0.00     0.284 C 
BRANCH  21  22
HETATM   22  C           1     -21.912  -5.786  -6.081  0.00  0.00     0.155 C 
BRANCH  22  23
HETATM   23  C           1     -20.924  -5.383  -5.015  0.00  0.00     0.175 C 
HETATM   24  O           1     -19.994  -4.594  -5.292  0.00  0.00    -0.648 OA
HETATM   25  O           1     -21.035  -5.836  -3.855  0.00  0.00    -0.648 OA
ENDBRANCH  22  23
ENDBRANCH  21  22
BRANCH  21  26
HETATM   26  N           1     -23.678  -4.335  -7.013  0.00  0.00    -0.066 N 
HETATM   27  H           1     -23.859  -3.395  -7.433  0.00  0.00     0.275 HD
HETATM   28  H           1     -24.149  -5.070  -7.586  0.00  0.00     0.275 HD
HETATM   29  H           1     -24.054  -4.358  -6.038  0.00  0.00     0.275 HD
ENDBRANCH  21  26
ENDBRANCH  19  21
ENDBRANCH   1  17
TORSDOF 10
ENDMDL
MODEL 8
REMARK VINA RESULT:      -6.4      3.353      4.716
REMARK  10 active torsions:
REMARK  status: ('A' for Active; 'I' for Inactive)
REMARK    1  A    between atoms: C_5  and  C_14 
REMARK    2  A    between atoms: C_7  and  C_15 
REMARK       I    between atoms: C_12  and  N_26 
REMARK    3  A    between atoms: C_12  and  C_13 
REMARK    4  A    between atoms: C_13  and  C_14 
REMARK    5  A    between atoms: C_13  and  N_27 
REMARK    6  A    between atoms: C_15  and  C_25 
REMARK    7  A    between atoms: C_15  and  N_26 
REMARK       I    between atoms: N_17  and  C_18 
REMARK       I    between atoms: C_18  and  N_19 
REMARK    8  A    between atoms: N_20  and  C_21 
REMARK    9  A    between atoms: C_21  and  C_22 
REMARK   10  A    between atoms: C_22  and  C_25 
ROOT
HETATM    1  C           1     -21.055  -5.748  -6.534  0.00  0.00     0.185 C 
ENDROOT
BRANCH   1   2
HETATM    2  C           1     -19.898  -4.847  -6.180  0.00  0.00     0.196 C 
HETATM    3  O           1     -19.020  -4.592  -7.032  0.00  0.00    -0.646 OA
HETATM    4  O           1     -19.817  -4.355  -5.033  0.00  0.00    -0.646 OA
ENDBRANCH   1   2
BRANCH   1   5
HETATM    5  C           1     -22.173  -4.920  -7.155  0.00  0.00     0.038 C 
BRANCH   5   6
HETATM    6  C           1     -21.999  -4.888  -8.668  0.00  0.00     0.023 C 
BRANCH   6   7
HETATM    7  C           1     -22.587  -3.597  -9.220  0.00  0.00     0.138 C 
BRANCH   7   8
HETATM    8  N           1     -24.023  -3.540  -8.912  0.00  0.00    -0.227 N 
HETATM    9  H           1     -24.348  -3.594  -7.914  0.00  0.00     0.177 HD
HETATM   10  C           1     -24.867  -3.427  -9.848  0.00  0.00     0.665 C 
HETATM   11  N           1     -26.137  -3.377  -9.576  0.00  0.00    -0.235 N 
HETATM   12  N           1     -24.475  -3.363 -11.049  0.00  0.00    -0.235 N 
HETATM   13  H           1     -26.835  -3.284 -10.348  0.00  0.00     0.174 HD
HETATM   14  H           1     -26.462  -3.431  -8.583  0.00  0.00     0.174 HD
HETATM   15  H           1     -25.175  -3.269 -11.827  0.00  0.00     0.174 HD
HETATM   16  H           1     -23.449  -3.403 -11.270  0.00  0.00     0.174 HD
ENDBRANCH   7   8
ENDBRANCH   6   7
ENDBRANCH   5   6
ENDBRANCH   1   5
BRANCH   1  17
HETATM   17  N           1     -21.546  -6.398  -5.334  0.00  0.00    -0.345 N 
HETATM   18  H           1     -22.234  -5.936  -4.754  0.00  0.00     0.163 HD
HETATM   19  C           1     -21.077  -7.637  -4.987  0.00  0.00     0.249 C 
HETATM   20  O           1     -20.255  -8.188  -5.679  0.00  0.00    -0.271 OA
BRANCH  19  21
HETATM   21  C           1     -21.587  -8.313  -3.737  0.00  0.00     0.284 C 
BRANCH  21  22
HETATM   22  C           1     -20.955  -7.663  -2.513  0.00  0.00     0.155 C 
BRANCH  22  23
HETATM   23  C           1     -21.977  -6.796  -1.820  0.00  0.00     0.175 C 
HETATM   24  O           1     -22.434  -5.786  -2.398  0.00  0.00    -0.648 OA
HETATM   25  O           1     -22.368  -7.088  -0.668  0.00  0.00    -0.648 OA
ENDBRANCH  22  23
ENDBRANCH  21  22
BRANCH  21  26
HETATM   26  N           1     -21.223  -9.768  -3.774  0.00  0.00    -0.066 N 
HETATM   27  H           1     -20.514  -9.931  -4.524  0.00  0.00     0.275 HD
HETATM   28  H           1     -20.824 -10.049  -2.850  0.00  0.00     0.275 HD
HETATM   29  H           1     -22.078 -10.335  -3.973  0.00  0.00     0.275 HD
ENDBRANCH  21  26
ENDBRANCH  19  21
ENDBRANCH   1  17
TORSDOF 10
ENDMDL
MODEL 9
REMARK VINA RESULT:      -6.3      3.635      9.381
REMARK  10 active torsions:
REMARK  status: ('A' for Active; 'I' for Inactive)
REMARK    1  A    between atoms: C_5  and  C_14 
REMARK    2  A    between atoms: C_7  and  C_15 
REMARK       I    between atoms: C_12  and  N_26 
REMARK    3  A    between atoms: C_12  and  C_13 
REMARK    4  A    between atoms: C_13  and  C_14 
REMARK    5  A    between atoms: C_13  and  N_27 
REMARK    6  A    between atoms: C_15  and  C_25 
REMARK    7  A    between atoms: C_15  and  N_26 
REMARK       I    between atoms: N_17  and  C_18 
REMARK       I    between atoms: C_18  and  N_19 
REMARK    8  A    between atoms: N_20  and  C_21 
REMARK    9  A    between atoms: C_21  and  C_22 
REMARK   10  A    between atoms: C_22  and  C_25 
ROOT
HETATM    1  C           1     -21.253  -6.048  -5.327  0.00  0.00     0.185 C 
ENDROOT
BRANCH   1   2
HETATM    2  C           1     -20.686  -7.347  -5.846  0.00  0.00     0.196 C 
HETATM    3  O           1     -21.351  -8.401  -5.755  0.00  0.00    -0.646 OA
HETATM    4  O           1     -19.549  -7.368  -6.366  0.00  0.00    -0.646 OA
ENDBRANCH   1   2
BRANCH   1   5
HETATM    5  C           1     -22.192  -6.333  -4.161  0.00  0.00     0.038 C 
BRANCH   5   6
HETATM    6  C           1     -21.403  -6.313  -2.859  0.00  0.00     0.023 C 
BRANCH   6   7
HETATM    7  C           1     -22.309  -6.732  -1.709  0.00  0.00     0.138 C 
BRANCH   7   8
HETATM    8  N           1     -21.539  -7.529  -0.743  0.00  0.00    -0.227 N 
HETATM    9  H           1     -20.510  -7.682  -0.891  0.00  0.00     0.177 HD
HETATM   10  C           1     -22.115  -8.030   0.266  0.00  0.00     0.665 C 
HETATM   11  N           1     -21.435  -8.735   1.120  0.00  0.00    -0.235 N 
HETATM   12  N           1     -23.355  -7.845   0.443  0.00  0.00    -0.235 N 
HETATM   13  H           1     -21.910  -9.150   1.953  0.00  0.00     0.174 HD
HETATM   14  H           1     -20.411  -8.888   0.974  0.00  0.00     0.174 HD
HETATM   15  H           1     -23.834  -8.262   1.281  0.00  0.00     0.174 HD
HETATM   16  H           1     -23.905  -7.276  -0.247  0.00  0.00     0.174 HD
ENDBRANCH   7   8
ENDBRANCH   6   7
ENDBRANCH   5   6
ENDBRANCH   1   5
BRANCH   1  17
HETATM   17  N           1     -21.987  -5.385  -6.387  0.00  0.00    -0.345 N 
HETATM   18  H           1     -22.948  -5.641  -6.574  0.00  0.00     0.163 HD
HETATM   19  C           1     -21.380  -4.412  -7.134  0.00  0.00     0.249 C 
HETATM   20  O           1     -20.233  -4.106  -6.911  0.00  0.00    -0.271 OA
BRANCH  19  21
HETATM   21  C           1     -22.143  -3.721  -8.238  0.00  0.00     0.284 C 
BRANCH  21  22
HETATM   22  C           1     -23.576  -4.238  -8.266  0.00  0.00     0.155 C 
BRANCH  22  23
HETATM   23  C           1     -24.125  -4.123  -9.666  0.00  0.00     0.175 C 
HETATM   24  O           1     -24.072  -5.103 -10.440  0.00  0.00    -0.648 OA
HETATM   25  O           1     -24.635  -3.049 -10.052  0.00  0.00    -0.648 OA
ENDBRANCH  22  23
ENDBRANCH  21  22
BRANCH  21  26
HETATM   26  N           1     -21.484  -4.007  -9.555  0.00  0.00    -0.066 N 
HETATM   27  H           1     -20.928  -4.889  -9.482  0.00  0.00     0.275 HD
HETATM   28  H           1     -22.216  -4.115 -10.293  0.00  0.00     0.275 HD
HETATM   29  H           1     -20.850  -3.215  -9.805  0.00  0.00     0.275 HD
ENDBRANCH  21  26
ENDBRANCH  19  21
ENDBRANCH   1  17
TORSDOF 10
ENDMDL
