MODEL 1
REMARK VINA RESULT:      -7.9      0.000      0.000
REMARK  9 active torsions:
REMARK  status: ('A' for Active; 'I' for Inactive)
REMARK    1  A    between atoms: C_2  and  C_3 
REMARK    2  A    between atoms: C_2  and  N_6 
REMARK       I    between atoms: N_6  and  C_7 
REMARK    3  A    between atoms: C_7  and  C_8 
REMARK    4  A    between atoms: C_8  and  C_9 
REMARK    5  A    between atoms: C_8  and  N_21 
REMARK    6  A    between atoms: C_9  and  C_10 
REMARK    7  A    between atoms: C_13  and  O_14 
REMARK    8  A    between atoms: O_14  and  P_15 
REMARK    9  A    between atoms: P_15  and  O_16 
ROOT
HETATM    1  C           1     -20.961  -4.950  -6.221  0.00  0.00     0.278 C 
ENDROOT
BRANCH   1   2
HETATM    2  C           1     -21.654  -5.932  -5.309  0.00  0.00     0.249 C 
HETATM    3  N           1     -20.936  -6.609  -4.361  0.00  0.00    -0.345 N 
HETATM    4  H           1     -19.940  -6.452  -4.271  0.00  0.00     0.163 HD
HETATM    5  O           1     -22.843  -6.121  -5.415  0.00  0.00    -0.271 OA
BRANCH   3   6
HETATM    6  C           1     -21.602  -7.554  -3.484  0.00  0.00     0.181 C 
HETATM    7  C           1     -20.720  -8.781  -3.296  0.00  0.00     0.043 C 
BRANCH   6   8
HETATM    8  C           1     -21.851  -6.905  -2.144  0.00  0.00     0.196 C 
HETATM    9  O           1     -21.795  -7.590  -1.099  0.00  0.00    -0.646 OA
HETATM   10  O           1     -22.114  -5.685  -2.079  0.00  0.00    -0.646 OA
ENDBRANCH   6   8
ENDBRANCH   3   6
ENDBRANCH   1   2
BRANCH   1  11
HETATM   11  C           1     -20.609  -5.637  -7.534  0.00  0.00     0.081 C 
BRANCH  11  12
HETATM   12  C           1     -21.159  -4.842  -8.677  0.00  0.00    -0.056 A 
HETATM   13  C           1     -20.376  -4.611  -9.808  0.00  0.00     0.010 A 
HETATM   14  C           1     -20.888  -3.871 -10.873  0.00  0.00     0.038 A 
HETATM   15  C           1     -22.185  -3.362 -10.807  0.00  0.00     0.081 A 
HETATM   16  C           1     -22.970  -3.593  -9.677  0.00  0.00     0.038 A 
HETATM   17  C           1     -22.456  -4.333  -8.612  0.00  0.00     0.010 A 
BRANCH  15  18
HETATM   18  O           1     -22.683  -2.642 -11.843  0.00  0.00    -0.247 OA
BRANCH  18  19
HETATM   19  P           1     -23.846  -3.313 -12.741  0.00  0.00     0.411 P 
HETATM   20  O           1     -25.168  -2.961 -12.176  0.00  0.00    -0.624 OA
HETATM   21  O           1     -23.751  -2.807 -14.129  0.00  0.00    -0.624 OA
BRANCH  19  22
HETATM   22  O           1     -23.671  -4.919 -12.740  0.00  0.00    -0.300 OA
HETATM   23  H           1     -23.315  -5.124 -13.588  0.00  0.00     0.223 HD
ENDBRANCH  19  22
ENDBRANCH  18  19
ENDBRANCH  15  18
ENDBRANCH  11  12
ENDBRANCH   1  11
BRANCH   1  24
HETATM   24  N           1     -19.708  -4.456  -5.564  0.00  0.00    -0.066 N 
HETATM   25  H           1     -19.947  -3.995  -4.657  0.00  0.00     0.275 HD
HETATM   26  H           1     -19.067  -5.262  -5.387  0.00  0.00     0.275 HD
HETATM   27  H           1     -19.235  -3.766  -6.190  0.00  0.00     0.275 HD
ENDBRANCH   1  24
TORSDOF 9
ENDMDL
MODEL 2
REMARK VINA RESULT:      -7.8      1.570      2.263
REMARK  9 active torsions:
REMARK  status: ('A' for Active; 'I' for Inactive)
REMARK    1  A    between atoms: C_2  and  C_3 
REMARK    2  A    between atoms: C_2  and  N_6 
REMARK       I    between atoms: N_6  and  C_7 
REMARK    3  A    between atoms: C_7  and  C_8 
REMARK    4  A    between atoms: C_8  and  C_9 
REMARK    5  A    between atoms: C_8  and  N_21 
REMARK    6  A    between atoms: C_9  and  C_10 
REMARK    7  A    between atoms: C_13  and  O_14 
REMARK    8  A    between atoms: O_14  and  P_15 
REMARK    9  A    between atoms: P_15  and  O_16 
ROOT
HETATM    1  C           1     -21.938  -4.681  -6.997  0.00  0.00     0.278 C 
ENDROOT
BRANCH   1   2
HETATM    2  C           1     -21.245  -5.359  -5.841  0.00  0.00     0.249 C 
HETATM    3  N           1     -21.974  -6.072  -4.928  0.00  0.00    -0.345 N 
HETATM    4  H           1     -22.979  -6.143  -5.027  0.00  0.00     0.163 HD
HETATM    5  O           1     -20.045  -5.274  -5.721  0.00  0.00    -0.271 OA
BRANCH   3   6
HETATM    6  C           1     -21.309  -6.723  -3.816  0.00  0.00     0.181 C 
HETATM    7  C           1     -21.946  -6.274  -2.509  0.00  0.00     0.043 C 
BRANCH   6   8
HETATM    8  C           1     -21.448  -8.219  -3.955  0.00  0.00     0.196 C 
HETATM    9  O           1     -21.468  -8.743  -5.090  0.00  0.00    -0.646 OA
HETATM   10  O           1     -21.544  -8.936  -2.934  0.00  0.00    -0.646 OA
ENDBRANCH   6   8
ENDBRANCH   3   6
ENDBRANCH   1   2
BRANCH   1  11
HETATM   11  C           1     -21.533  -5.357  -8.301  0.00  0.00     0.081 C 
BRANCH  11  12
HETATM   12  C           1     -21.884  -4.469  -9.454  0.00  0.00    -0.056 A 
HETATM   13  C           1     -23.203  -4.060  -9.643  0.00  0.00     0.010 A 
HETATM   14  C           1     -23.530  -3.232 -10.718  0.00  0.00     0.038 A 
HETATM   15  C           1     -22.536  -2.814 -11.602  0.00  0.00     0.081 A 
HETATM   16  C           1     -21.215  -3.222 -11.412  0.00  0.00     0.038 A 
HETATM   17  C           1     -20.890  -4.050 -10.337  0.00  0.00     0.010 A 
BRANCH  15  18
HETATM   18  O           1     -22.853  -2.009 -12.645  0.00  0.00    -0.247 OA
BRANCH  18  19
HETATM   19  P           1     -23.445  -2.698 -13.981  0.00  0.00     0.411 P 
HETATM   20  O           1     -24.303  -3.843 -13.604  0.00  0.00    -0.624 OA
HETATM   21  O           1     -24.245  -1.707 -14.734  0.00  0.00    -0.624 OA
BRANCH  19  22
HETATM   22  O           1     -22.227  -3.220 -14.905  0.00  0.00    -0.300 OA
HETATM   23  H           1     -21.497  -3.308 -14.317  0.00  0.00     0.223 HD
ENDBRANCH  19  22
ENDBRANCH  18  19
ENDBRANCH  15  18
ENDBRANCH  11  12
ENDBRANCH   1  11
BRANCH   1  24
HETATM   24  N           1     -21.540  -3.236  -7.040  0.00  0.00    -0.066 N 
HETATM   25  H           1     -20.996  -2.998  -6.179  0.00  0.00     0.275 HD
HETATM   26  H           1     -20.950  -3.062  -7.884  0.00  0.00     0.275 HD
HETATM   27  H           1     -22.397  -2.640  -7.085  0.00  0.00     0.275 HD
ENDBRANCH   1  24
TORSDOF 9
ENDMDL
MODEL 3
REMARK VINA RESULT:      -7.3      2.004      2.389
REMARK  9 active torsions:
REMARK  status: ('A' for Active; 'I' for Inactive)
REMARK    1  A    between atoms: C_2  and  C_3 
REMARK    2  A    between atoms: C_2  and  N_6 
REMARK       I    between atoms: N_6  and  C_7 
REMARK    3  A    between atoms: C_7  and  C_8 
REMARK    4  A    between atoms: C_8  and  C_9 
REMARK    5  A    between atoms: C_8  and  N_21 
REMARK    6  A    between atoms: C_9  and  C_10 
REMARK    7  A    between atoms: C_13  and  O_14 
REMARK    8  A    between atoms: O_14  and  P_15 
REMARK    9  A    between atoms: P_15  and  O_16 
ROOT
HETATM    1  C           1     -21.085  -5.338  -6.472  0.00  0.00     0.278 C 
ENDROOT
BRANCH   1   2
HETATM    2  C           1     -20.923  -6.491  -5.513  0.00  0.00     0.249 C 
HETATM    3  N           1     -20.238  -7.612  -5.899  0.00  0.00    -0.345 N 
HETATM    4  H           1     -19.840  -7.667  -6.828  0.00  0.00     0.163 HD
HETATM    5  O           1     -21.399  -6.427  -4.404  0.00  0.00    -0.271 OA
BRANCH   3   6
HETATM    6  C           1     -20.083  -8.721  -4.977  0.00  0.00     0.181 C 
HETATM    7  C           1     -21.109  -9.798  -5.301  0.00  0.00     0.043 C 
BRANCH   6   8
HETATM    8  C           1     -18.693  -9.294  -5.111  0.00  0.00     0.196 C 
HETATM    9  O           1     -18.238  -9.570  -6.242  0.00  0.00    -0.646 OA
HETATM   10  O           1     -17.998  -9.493  -4.091  0.00  0.00    -0.646 OA
ENDBRANCH   6   8
ENDBRANCH   3   6
ENDBRANCH   1   2
BRANCH   1  11
HETATM   11  C           1     -20.528  -5.727  -7.835  0.00  0.00     0.081 C 
BRANCH  11  12
HETATM   12  C           1     -21.137  -4.859  -8.891  0.00  0.00    -0.056 A 
HETATM   13  C           1     -20.369  -4.435  -9.974  0.00  0.00     0.010 A 
HETATM   14  C           1     -20.938  -3.626 -10.959  0.00  0.00     0.038 A 
HETATM   15  C           1     -22.275  -3.242 -10.859  0.00  0.00     0.081 A 
HETATM   16  C           1     -23.044  -3.667  -9.775  0.00  0.00     0.038 A 
HETATM   17  C           1     -22.475  -4.476  -8.791  0.00  0.00     0.010 A 
BRANCH  15  18
HETATM   18  O           1     -22.827  -2.457 -11.815  0.00  0.00    -0.247 OA
BRANCH  18  19
HETATM   19  P           1     -23.570  -3.179 -13.053  0.00  0.00     0.411 P 
HETATM   20  O           1     -24.955  -2.669 -13.163  0.00  0.00    -0.624 OA
HETATM   21  O           1     -22.836  -2.890 -14.306  0.00  0.00    -0.624 OA
BRANCH  19  22
HETATM   22  O           1     -23.603  -4.776 -12.806  0.00  0.00    -0.300 OA
HETATM   23  H           1     -24.244  -5.102 -13.413  0.00  0.00     0.223 HD
ENDBRANCH  19  22
ENDBRANCH  18  19
ENDBRANCH  15  18
ENDBRANCH  11  12
ENDBRANCH   1  11
BRANCH   1  24
HETATM   24  N           1     -20.341  -4.146  -5.950  0.00  0.00    -0.066 N 
HETATM   25  H           1     -21.014  -3.367  -5.765  0.00  0.00     0.275 HD
HETATM   26  H           1     -19.852  -4.402  -5.063  0.00  0.00     0.275 HD
HETATM   27  H           1     -19.638  -3.836  -6.658  0.00  0.00     0.275 HD
ENDBRANCH   1  24
TORSDOF 9
ENDMDL
MODEL 4
REMARK VINA RESULT:      -7.3      1.994      2.579
REMARK  9 active torsions:
REMARK  status: ('A' for Active; 'I' for Inactive)
REMARK    1  A    between atoms: C_2  and  C_3 
REMARK    2  A    between atoms: C_2  and  N_6 
REMARK       I    between atoms: N_6  and  C_7 
REMARK    3  A    between atoms: C_7  and  C_8 
REMARK    4  A    between atoms: C_8  and  C_9 
REMARK    5  A    between atoms: C_8  and  N_21 
REMARK    6  A    between atoms: C_9  and  C_10 
REMARK    7  A    between atoms: C_13  and  O_14 
REMARK    8  A    between atoms: O_14  and  P_15 
REMARK    9  A    between atoms: P_15  and  O_16 
ROOT
HETATM    1  C           1     -20.596  -5.131  -6.117  0.00  0.00     0.278 C 
ENDROOT
BRANCH   1   2
HETATM    2  C           1     -20.063  -6.542  -6.084  0.00  0.00     0.249 C 
HETATM    3  N           1     -20.367  -7.365  -5.033  0.00  0.00    -0.345 N 
HETATM    4  H           1     -20.950  -7.027  -4.278  0.00  0.00     0.163 HD
HETATM    5  O           1     -19.366  -6.947  -6.985  0.00  0.00    -0.271 OA
BRANCH   3   6
HETATM    6  C           1     -19.855  -8.722  -5.001  0.00  0.00     0.181 C 
HETATM    7  C           1     -19.150  -8.967  -3.674  0.00  0.00     0.043 C 
BRANCH   6   8
HETATM    8  C           1     -20.998  -9.695  -5.150  0.00  0.00     0.196 C 
HETATM    9  O           1     -21.082 -10.408  -6.173  0.00  0.00    -0.646 OA
HETATM   10  O           1     -21.862  -9.787  -4.251  0.00  0.00    -0.646 OA
ENDBRANCH   6   8
ENDBRANCH   3   6
ENDBRANCH   1   2
BRANCH   1  11
HETATM   11  C           1     -19.933  -4.363  -7.253  0.00  0.00     0.081 C 
BRANCH  11  12
HETATM   12  C           1     -20.788  -4.449  -8.479  0.00  0.00    -0.056 A 
HETATM   13  C           1     -22.175  -4.508  -8.360  0.00  0.00     0.010 A 
HETATM   14  C           1     -22.972  -4.587  -9.502  0.00  0.00     0.038 A 
HETATM   15  C           1     -22.379  -4.608 -10.765  0.00  0.00     0.081 A 
HETATM   16  C           1     -20.990  -4.548 -10.885  0.00  0.00     0.038 A 
HETATM   17  C           1     -20.195  -4.469  -9.741  0.00  0.00     0.010 A 
BRANCH  15  18
HETATM   18  O           1     -23.153  -4.685 -11.875  0.00  0.00    -0.247 OA
BRANCH  18  19
HETATM   19  P           1     -23.740  -3.310 -12.486  0.00  0.00     0.411 P 
HETATM   20  O           1     -25.065  -3.033 -11.889  0.00  0.00    -0.624 OA
HETATM   21  O           1     -22.815  -2.197 -12.175  0.00  0.00    -0.624 OA
BRANCH  19  22
HETATM   22  O           1     -23.891  -3.452 -14.088  0.00  0.00    -0.300 OA
HETATM   23  H           1     -24.765  -3.775 -14.222  0.00  0.00     0.223 HD
ENDBRANCH  19  22
ENDBRANCH  18  19
ENDBRANCH  15  18
ENDBRANCH  11  12
ENDBRANCH   1  11
BRANCH   1  24
HETATM   24  N           1     -20.295  -4.453  -4.814  0.00  0.00    -0.066 N 
HETATM   25  H           1     -21.186  -4.124  -4.377  0.00  0.00     0.275 HD
HETATM   26  H           1     -19.822  -5.128  -4.171  0.00  0.00     0.275 HD
HETATM   27  H           1     -19.668  -3.635  -4.983  0.00  0.00     0.275 HD
ENDBRANCH   1  24
TORSDOF 9
ENDMDL
MODEL 5
REMARK VINA RESULT:      -6.9      3.713      9.014
REMARK  9 active torsions:
REMARK  status: ('A' for Active; 'I' for Inactive)
REMARK    1  A    between atoms: C_2  and  C_3 
REMARK    2  A    between atoms: C_2  and  N_6 
REMARK       I    between atoms: N_6  and  C_7 
REMARK    3  A    between atoms: C_7  and  C_8 
REMARK    4  A    between atoms: C_8  and  C_9 
REMARK    5  A    between atoms: C_8  and  N_21 
REMARK    6  A    between atoms: C_9  and  C_10 
REMARK    7  A    between atoms: C_13  and  O_14 
REMARK    8  A    between atoms: O_14  and  P_15 
REMARK    9  A    between atoms: P_15  and  O_16 
ROOT
HETATM    1  C           1     -21.173  -5.541  -6.520  0.00  0.00     0.278 C 
ENDROOT
BRANCH   1   2
HETATM    2  C           1     -21.641  -4.449  -7.450  0.00  0.00     0.249 C 
HETATM    3  N           1     -22.277  -4.771  -8.618  0.00  0.00    -0.345 N 
HETATM    4  H           1     -22.434  -5.742  -8.859  0.00  0.00     0.163 HD
HETATM    5  O           1     -21.455  -3.290  -7.164  0.00  0.00    -0.271 OA
BRANCH   3   6
HETATM    6  C           1     -22.727  -3.722  -9.513  0.00  0.00     0.181 C 
HETATM    7  C           1     -22.040  -3.877 -10.863  0.00  0.00     0.043 C 
BRANCH   6   8
HETATM    8  C           1     -24.221  -3.824  -9.696  0.00  0.00     0.196 C 
HETATM    9  O           1     -24.744  -4.928  -9.963  0.00  0.00    -0.646 OA
HETATM   10  O           1     -24.937  -2.806  -9.581  0.00  0.00    -0.646 OA
ENDBRANCH   6   8
ENDBRANCH   3   6
ENDBRANCH   1   2
BRANCH   1  11
HETATM   11  C           1     -22.308  -5.930  -5.580  0.00  0.00     0.081 C 
BRANCH  11  12
HETATM   12  C           1     -21.777  -6.814  -4.496  0.00  0.00    -0.056 A 
HETATM   13  C           1     -21.362  -8.112  -4.793  0.00  0.00     0.010 A 
HETATM   14  C           1     -20.867  -8.936  -3.782  0.00  0.00     0.038 A 
HETATM   15  C           1     -20.786  -8.461  -2.473  0.00  0.00     0.081 A 
HETATM   16  C           1     -21.200  -7.162  -2.175  0.00  0.00     0.038 A 
HETATM   17  C           1     -21.695  -6.339  -3.187  0.00  0.00     0.010 A 
BRANCH  15  18
HETATM   18  O           1     -20.305  -9.261  -1.491  0.00  0.00    -0.247 OA
BRANCH  18  19
HETATM   19  P           1     -21.342  -9.801  -0.377  0.00  0.00     0.411 P 
HETATM   20  O           1     -22.699  -9.874  -0.962  0.00  0.00    -0.624 OA
HETATM   21  O           1     -20.925 -11.148   0.074  0.00  0.00    -0.624 OA
BRANCH  19  22
HETATM   22  O           1     -21.353  -8.791   0.884  0.00  0.00    -0.300 OA
HETATM   23  H           1     -21.563  -7.949   0.519  0.00  0.00     0.223 HD
ENDBRANCH  19  22
ENDBRANCH  18  19
ENDBRANCH  15  18
ENDBRANCH  11  12
ENDBRANCH   1  11
BRANCH   1  24
HETATM   24  N           1     -20.008  -5.047  -5.717  0.00  0.00    -0.066 N 
HETATM   25  H           1     -20.333  -4.324  -5.036  0.00  0.00     0.275 HD
HETATM   26  H           1     -19.579  -5.846  -5.197  0.00  0.00     0.275 HD
HETATM   27  H           1     -19.297  -4.627  -6.357  0.00  0.00     0.275 HD
ENDBRANCH   1  24
TORSDOF 9
ENDMDL
MODEL 6
REMARK VINA RESULT:      -6.8     13.177     16.276
REMARK  9 active torsions:
REMARK  status: ('A' for Active; 'I' for Inactive)
REMARK    1  A    between atoms: C_2  and  C_3 
REMARK    2  A    between atoms: C_2  and  N_6 
REMARK       I    between atoms: N_6  and  C_7 
REMARK    3  A    between atoms: C_7  and  C_8 
REMARK    4  A    between atoms: C_8  and  C_9 
REMARK    5  A    between atoms: C_8  and  N_21 
REMARK    6  A    between atoms: C_9  and  C_10 
REMARK    7  A    between atoms: C_13  and  O_14 
REMARK    8  A    between atoms: O_14  and  P_15 
REMARK    9  A    between atoms: P_15  and  O_16 
ROOT
HETATM    1  C           1     -36.206  -0.315 -11.757  0.00  0.00     0.278 C 
ENDROOT
BRANCH   1   2
HETATM    2  C           1     -36.772  -0.176 -13.149  0.00  0.00     0.249 C 
HETATM    3  N           1     -36.071   0.502 -14.109  0.00  0.00    -0.345 N 
HETATM    4  H           1     -35.172   0.910 -13.886  0.00  0.00     0.163 HD
HETATM    5  O           1     -37.846  -0.663 -13.416  0.00  0.00    -0.271 OA
BRANCH   3   6
HETATM    6  C           1     -36.615   0.635 -15.447  0.00  0.00     0.181 C 
HETATM    7  C           1     -36.150   1.952 -16.055  0.00  0.00     0.043 C 
BRANCH   6   8
HETATM    8  C           1     -36.133  -0.510 -16.302  0.00  0.00     0.196 C 
HETATM    9  O           1     -36.843  -0.928 -17.243  0.00  0.00    -0.646 OA
HETATM   10  O           1     -35.026  -1.042 -16.070  0.00  0.00    -0.646 OA
ENDBRANCH   6   8
ENDBRANCH   3   6
ENDBRANCH   1   2
BRANCH   1  11
HETATM   11  C           1     -34.693  -0.471 -11.837  0.00  0.00     0.081 C 
BRANCH  11  12
HETATM   12  C           1     -34.330  -1.913 -11.669  0.00  0.00    -0.056 A 
HETATM   13  C           1     -33.914  -2.388 -10.425  0.00  0.00     0.010 A 
HETATM   14  C           1     -33.576  -3.732 -10.268  0.00  0.00     0.038 A 
HETATM   15  C           1     -33.656  -4.602 -11.356  0.00  0.00     0.081 A 
HETATM   16  C           1     -34.073  -4.128 -12.600  0.00  0.00     0.038 A 
HETATM   17  C           1     -34.410  -2.783 -12.756  0.00  0.00     0.010 A 
BRANCH  15  18
HETATM   18  O           1     -33.328  -5.908 -11.204  0.00  0.00    -0.247 OA
BRANCH  18  19
HETATM   19  P           1     -34.489  -6.932 -10.745  0.00  0.00     0.411 P 
HETATM   20  O           1     -33.877  -8.115 -10.102  0.00  0.00    -0.624 OA
HETATM   21  O           1     -35.390  -6.258  -9.783  0.00  0.00    -0.624 OA
BRANCH  19  22
HETATM   22  O           1     -35.337  -7.400 -12.038  0.00  0.00    -0.300 OA
HETATM   23  H           1     -34.725  -7.879 -12.570  0.00  0.00     0.223 HD
ENDBRANCH  19  22
ENDBRANCH  18  19
ENDBRANCH  15  18
ENDBRANCH  11  12
ENDBRANCH   1  11
BRANCH   1  24
HETATM   24  N           1     -36.798  -1.522 -11.095  0.00  0.00    -0.066 N 
HETATM   25  H           1     -37.669  -1.806 -11.599  0.00  0.00     0.275 HD
HETATM   26  H           1     -36.110  -2.308 -11.122  0.00  0.00     0.275 HD
HETATM   27  H           1     -37.030  -1.296 -10.101  0.00  0.00     0.275 HD
ENDBRANCH   1  24
TORSDOF 9
ENDMDL
MODEL 7
REMARK VINA RESULT:      -6.5      3.814      9.013
REMARK  9 active torsions:
REMARK  status: ('A' for Active; 'I' for Inactive)
REMARK    1  A    between atoms: C_2  and  C_3 
REMARK    2  A    between atoms: C_2  and  N_6 
REMARK       I    between atoms: N_6  and  C_7 
REMARK    3  A    between atoms: C_7  and  C_8 
REMARK    4  A    between atoms: C_8  and  C_9 
REMARK    5  A    between atoms: C_8  and  N_21 
REMARK    6  A    between atoms: C_9  and  C_10 
REMARK    7  A    between atoms: C_13  and  O_14 
REMARK    8  A    between atoms: O_14  and  P_15 
REMARK    9  A    between atoms: P_15  and  O_16 
ROOT
HETATM    1  C           1     -23.535  -3.605 -11.180  0.00  0.00     0.278 C 
ENDROOT
BRANCH   1   2
HETATM    2  C           1     -23.914  -3.329 -12.614  0.00  0.00     0.249 C 
HETATM    3  N           1     -23.667  -2.100 -13.164  0.00  0.00    -0.345 N 
HETATM    4  H           1     -23.230  -1.376 -12.608  0.00  0.00     0.163 HD
HETATM    5  O           1     -24.437  -4.193 -13.278  0.00  0.00    -0.271 OA
BRANCH   3   6
HETATM    6  C           1     -24.031  -1.835 -14.542  0.00  0.00     0.181 C 
HETATM    7  C           1     -24.629  -0.439 -14.650  0.00  0.00     0.043 C 
BRANCH   6   8
HETATM    8  C           1     -22.802  -1.924 -15.413  0.00  0.00     0.196 C 
HETATM    9  O           1     -22.379  -0.905 -16.001  0.00  0.00    -0.646 OA
HETATM   10  O           1     -22.208  -3.015 -15.547  0.00  0.00    -0.646 OA
ENDBRANCH   6   8
ENDBRANCH   3   6
ENDBRANCH   1   2
BRANCH   1  11
HETATM   11  C           1     -22.039  -3.388 -10.998  0.00  0.00     0.081 C 
BRANCH  11  12
HETATM   12  C           1     -21.621  -3.886  -9.650  0.00  0.00    -0.056 A 
HETATM   13  C           1     -20.413  -4.565  -9.500  0.00  0.00     0.010 A 
HETATM   14  C           1     -20.024  -5.029  -8.243  0.00  0.00     0.038 A 
HETATM   15  C           1     -20.845  -4.812  -7.136  0.00  0.00     0.081 A 
HETATM   16  C           1     -22.053  -4.131  -7.285  0.00  0.00     0.038 A 
HETATM   17  C           1     -22.441  -3.668  -8.543  0.00  0.00     0.010 A 
BRANCH  15  18
HETATM   18  O           1     -20.467  -5.262  -5.915  0.00  0.00    -0.247 OA
BRANCH  18  19
HETATM   19  P           1     -21.210  -6.569  -5.326  0.00  0.00     0.411 P 
HETATM   20  O           1     -21.281  -7.610  -6.375  0.00  0.00    -0.624 OA
HETATM   21  O           1     -20.451  -7.088  -4.166  0.00  0.00    -0.624 OA
BRANCH  19  22
HETATM   22  O           1     -22.705  -6.175  -4.856  0.00  0.00    -0.300 OA
HETATM   23  H           1     -23.274  -6.694  -5.397  0.00  0.00     0.223 HD
ENDBRANCH  19  22
ENDBRANCH  18  19
ENDBRANCH  15  18
ENDBRANCH  11  12
ENDBRANCH   1  11
BRANCH   1  24
HETATM   24  N           1     -23.879  -5.023 -10.836  0.00  0.00    -0.066 N 
HETATM   25  H           1     -23.080  -5.648 -11.088  0.00  0.00     0.275 HD
HETATM   26  H           1     -24.069  -5.096  -9.811  0.00  0.00     0.275 HD
HETATM   27  H           1     -24.730  -5.314 -11.369  0.00  0.00     0.275 HD
ENDBRANCH   1  24
TORSDOF 9
ENDMDL
MODEL 8
REMARK VINA RESULT:      -6.5      3.886      8.753
REMARK  9 active torsions:
REMARK  status: ('A' for Active; 'I' for Inactive)
REMARK    1  A    between atoms: C_2  and  C_3 
REMARK    2  A    between atoms: C_2  and  N_6 
REMARK       I    between atoms: N_6  and  C_7 
REMARK    3  A    between atoms: C_7  and  C_8 
REMARK    4  A    between atoms: C_8  and  C_9 
REMARK    5  A    between atoms: C_8  and  N_21 
REMARK    6  A    between atoms: C_9  and  C_10 
REMARK    7  A    between atoms: C_13  and  O_14 
REMARK    8  A    between atoms: O_14  and  P_15 
REMARK    9  A    between atoms: P_15  and  O_16 
ROOT
HETATM    1  C           1     -21.027  -5.395  -6.609  0.00  0.00     0.278 C 
ENDROOT
BRANCH   1   2
HETATM    2  C           1     -21.571  -4.345  -7.546  0.00  0.00     0.249 C 
HETATM    3  N           1     -22.191  -4.720  -8.707  0.00  0.00    -0.345 N 
HETATM    4  H           1     -22.285  -5.701  -8.938  0.00  0.00     0.163 HD
HETATM    5  O           1     -21.459  -3.174  -7.272  0.00  0.00    -0.271 OA
BRANCH   3   6
HETATM    6  C           1     -22.714  -3.711  -9.609  0.00  0.00     0.181 C 
HETATM    7  C           1     -22.111  -3.906 -10.993  0.00  0.00     0.043 C 
BRANCH   6   8
HETATM    8  C           1     -24.214  -3.841  -9.692  0.00  0.00     0.196 C 
HETATM    9  O           1     -24.732  -4.948  -9.955  0.00  0.00    -0.646 OA
HETATM   10  O           1     -24.940  -2.841  -9.499  0.00  0.00    -0.646 OA
ENDBRANCH   6   8
ENDBRANCH   3   6
ENDBRANCH   1   2
BRANCH   1  11
HETATM   11  C           1     -22.117  -5.821  -5.634  0.00  0.00     0.081 C 
BRANCH  11  12
HETATM   12  C           1     -21.610  -6.936  -4.774  0.00  0.00    -0.056 A 
HETATM   13  C           1     -21.442  -6.740  -3.404  0.00  0.00     0.010 A 
HETATM   14  C           1     -20.970  -7.780  -2.602  0.00  0.00     0.038 A 
HETATM   15  C           1     -20.667  -9.016  -3.172  0.00  0.00     0.081 A 
HETATM   16  C           1     -20.836  -9.213  -4.542  0.00  0.00     0.038 A 
HETATM   17  C           1     -21.308  -8.173  -5.343  0.00  0.00     0.010 A 
BRANCH  15  18
HETATM   18  O           1     -20.209 -10.026  -2.393  0.00  0.00    -0.247 OA
BRANCH  18  19
HETATM   19  P           1     -18.671 -10.485  -2.574  0.00  0.00     0.411 P 
HETATM   20  O           1     -17.822  -9.291  -2.782  0.00  0.00    -0.624 OA
HETATM   21  O           1     -18.224 -11.204  -1.360  0.00  0.00    -0.624 OA
BRANCH  19  22
HETATM   22  O           1     -18.547 -11.463  -3.854  0.00  0.00    -0.300 OA
HETATM   23  H           1     -18.902 -10.969  -4.573  0.00  0.00     0.223 HD
ENDBRANCH  19  22
ENDBRANCH  18  19
ENDBRANCH  15  18
ENDBRANCH  11  12
ENDBRANCH   1  11
BRANCH   1  24
HETATM   24  N           1     -19.867  -4.830  -5.845  0.00  0.00    -0.066 N 
HETATM   25  H           1     -20.210  -4.399  -4.957  0.00  0.00     0.275 HD
HETATM   26  H           1     -19.191  -5.595  -5.622  0.00  0.00     0.275 HD
HETATM   27  H           1     -19.391  -4.101  -6.423  0.00  0.00     0.275 HD
ENDBRANCH   1  24
TORSDOF 9
ENDMDL
MODEL 9
REMARK VINA RESULT:      -6.5      3.407      8.416
REMARK  9 active torsions:
REMARK  status: ('A' for Active; 'I' for Inactive)
REMARK    1  A    between atoms: C_2  and  C_3 
REMARK    2  A    between atoms: C_2  and  N_6 
REMARK       I    between atoms: N_6  and  C_7 
REMARK    3  A    between atoms: C_7  and  C_8 
REMARK    4  A    between atoms: C_8  and  C_9 
REMARK    5  A    between atoms: C_8  and  N_21 
REMARK    6  A    between atoms: C_9  and  C_10 
REMARK    7  A    between atoms: C_13  and  O_14 
REMARK    8  A    between atoms: O_14  and  P_15 
REMARK    9  A    between atoms: P_15  and  O_16 
ROOT
HETATM    1  C           1     -20.368  -4.862  -8.137  0.00  0.00     0.278 C 
ENDROOT
BRANCH   1   2
HETATM    2  C           1     -21.021  -4.291  -9.372  0.00  0.00     0.249 C 
HETATM    3  N           1     -22.374  -4.403  -9.544  0.00  0.00    -0.345 N 
HETATM    4  H           1     -22.938  -4.868  -8.844  0.00  0.00     0.163 HD
HETATM    5  O           1     -20.350  -3.736 -10.209  0.00  0.00    -0.271 OA
BRANCH   3   6
HETATM    6  C           1     -23.002  -3.855 -10.731  0.00  0.00     0.181 C 
HETATM    7  C           1     -23.126  -4.944 -11.788  0.00  0.00     0.043 C 
BRANCH   6   8
HETATM    8  C           1     -24.375  -3.338 -10.380  0.00  0.00     0.196 C 
HETATM    9  O           1     -24.690  -3.165  -9.183  0.00  0.00    -0.646 OA
HETATM   10  O           1     -25.198  -3.082 -11.286  0.00  0.00    -0.646 OA
ENDBRANCH   6   8
ENDBRANCH   3   6
ENDBRANCH   1   2
BRANCH   1  11
HETATM   11  C           1     -21.289  -4.668  -6.939  0.00  0.00     0.081 C 
BRANCH  11  12
HETATM   12  C           1     -21.235  -5.883  -6.066  0.00  0.00    -0.056 A 
HETATM   13  C           1     -22.341  -6.238  -5.296  0.00  0.00     0.010 A 
HETATM   14  C           1     -22.292  -7.371  -4.482  0.00  0.00     0.038 A 
HETATM   15  C           1     -21.134  -8.148  -4.441  0.00  0.00     0.081 A 
HETATM   16  C           1     -20.027  -7.794  -5.213  0.00  0.00     0.038 A 
HETATM   17  C           1     -20.078  -6.661  -6.025  0.00  0.00     0.010 A 
BRANCH  15  18
HETATM   18  O           1     -21.085  -9.248  -3.651  0.00  0.00    -0.247 OA
BRANCH  18  19
HETATM   19  P           1     -20.844  -9.035  -2.069  0.00  0.00     0.411 P 
HETATM   20  O           1     -19.863 -10.031  -1.582  0.00  0.00    -0.624 OA
HETATM   21  O           1     -20.323  -7.670  -1.829  0.00  0.00    -0.624 OA
BRANCH  19  22
HETATM   22  O           1     -22.240  -9.224  -1.279  0.00  0.00    -0.300 OA
HETATM   23  H           1     -22.144  -8.719  -0.490  0.00  0.00     0.223 HD
ENDBRANCH  19  22
ENDBRANCH  18  19
ENDBRANCH  15  18
ENDBRANCH  11  12
ENDBRANCH   1  11
BRANCH   1  24
HETATM   24  N           1     -19.069  -4.156  -7.887  0.00  0.00    -0.066 N 
HETATM   25  H           1     -18.641  -4.514  -7.004  0.00  0.00     0.275 HD
HETATM   26  H           1     -18.418  -4.332  -8.686  0.00  0.00     0.275 HD
HETATM   27  H           1     -19.242  -3.129  -7.798  0.00  0.00     0.275 HD
ENDBRANCH   1  24
TORSDOF 9
ENDMDL
