MODEL 1
REMARK VINA RESULT:      -6.3      0.000      0.000
REMARK  13 active torsions:
REMARK  status: ('A' for Active; 'I' for Inactive)
REMARK    1  A    between atoms: C_6  and  C_16 
REMARK    2  A    between atoms: C_6  and  C_25 
REMARK    3  A    between atoms: C_7  and  C_25 
REMARK    4  A    between atoms: C_12  and  C_14 
REMARK    5  A    between atoms: C_12  and  N_15 
REMARK    6  A    between atoms: C_14  and  C_24 
REMARK    7  A    between atoms: C_16  and  C_18 
REMARK    8  A    between atoms: C_18  and  N_19 
REMARK       I    between atoms: C_21  and  N_22 
REMARK    9  A    between atoms: C_21  and  C_26 
REMARK   10  A    between atoms: N_22  and  C_25 
REMARK   11  A    between atoms: N_23  and  C_26 
REMARK   12  A    between atoms: C_24  and  C_27 
REMARK   13  A    between atoms: C_26  and  C_27 
ROOT
HETATM    1  O           1     -21.622  -3.574  -7.270  0.00  0.00    -0.271 OA
HETATM    2  C           1     -21.652  -4.699  -7.709  0.00  0.00     0.249 C 
HETATM    3  N           1     -22.163  -4.934  -8.957  0.00  0.00    -0.345 N 
HETATM    4  H           1     -22.188  -5.876  -9.325  0.00  0.00     0.163 HD
ENDROOT
BRANCH   2   5
HETATM    5  C           1     -21.125  -5.846  -6.882  0.00  0.00     0.274 C 
BRANCH   5   6
HETATM    6  N           1     -19.752  -6.218  -7.360  0.00  0.00    -0.067 N 
HETATM    7  H           1     -19.719  -6.165  -8.402  0.00  0.00     0.275 HD
HETATM    8  H           1     -19.052  -5.556  -6.954  0.00  0.00     0.275 HD
HETATM    9  H           1     -19.529  -7.192  -7.053  0.00  0.00     0.275 HD
ENDBRANCH   5   6
BRANCH   5  10
HETATM   10  C           1     -21.057  -5.428  -5.419  0.00  0.00     0.042 C 
BRANCH  10  11
HETATM   11  C           1     -21.936  -6.351  -4.586  0.00  0.00     0.004 C 
BRANCH  11  12
HETATM   12  C           1     -21.059  -7.230  -3.704  0.00  0.00     0.027 C 
BRANCH  12  13
HETATM   13  C           1     -21.558  -7.168  -2.267  0.00  0.00     0.229 C 
BRANCH  13  14
HETATM   14  N           1     -22.368  -5.920  -2.072  0.00  0.00    -0.079 N 
HETATM   15  H           1     -22.982  -6.031  -1.234  0.00  0.00     0.274 HD
HETATM   16  H           1     -21.727  -5.108  -1.930  0.00  0.00     0.274 HD
HETATM   17  H           1     -22.960  -5.753  -2.917  0.00  0.00     0.274 HD
ENDBRANCH  13  14
ENDBRANCH  12  13
ENDBRANCH  11  12
ENDBRANCH  10  11
ENDBRANCH   5  10
ENDBRANCH   2   5
BRANCH   3  18
HETATM   18  C           1     -22.670  -3.832  -9.752  0.00  0.00     0.185 C 
BRANCH  18  19
HETATM   19  C           1     -22.190  -3.981 -11.190  0.00  0.00     0.038 C 
BRANCH  19  20
HETATM   20  C           1     -22.505  -2.709 -11.966  0.00  0.00     0.030 C 
BRANCH  20  21
HETATM   21  C           1     -23.362  -3.053 -13.178  0.00  0.00     0.230 C 
BRANCH  21  22
HETATM   22  N           1     -22.516  -3.011 -14.416  0.00  0.00    -0.079 N 
HETATM   23  H           1     -23.019  -2.482 -15.164  0.00  0.00     0.274 HD
HETATM   24  H           1     -21.610  -2.535 -14.203  0.00  0.00     0.274 HD
HETATM   25  H           1     -22.330  -3.986 -14.744  0.00  0.00     0.274 HD
ENDBRANCH  21  22
ENDBRANCH  20  21
ENDBRANCH  19  20
ENDBRANCH  18  19
BRANCH  18  26
HETATM   26  C           1     -24.178  -3.842  -9.720  0.00  0.00     0.196 C 
HETATM   27  O           1     -24.801  -4.900  -9.957  0.00  0.00    -0.646 OA
HETATM   28  O           1     -24.805  -2.793  -9.457  0.00  0.00    -0.646 OA
ENDBRANCH  18  26
ENDBRANCH   3  18
TORSDOF 13
ENDMDL
MODEL 2
REMARK VINA RESULT:      -5.9     11.643     13.509
REMARK  13 active torsions:
REMARK  status: ('A' for Active; 'I' for Inactive)
REMARK    1  A    between atoms: C_6  and  C_16 
REMARK    2  A    between atoms: C_6  and  C_25 
REMARK    3  A    between atoms: C_7  and  C_25 
REMARK    4  A    between atoms: C_12  and  C_14 
REMARK    5  A    between atoms: C_12  and  N_15 
REMARK    6  A    between atoms: C_14  and  C_24 
REMARK    7  A    between atoms: C_16  and  C_18 
REMARK    8  A    between atoms: C_18  and  N_19 
REMARK       I    between atoms: C_21  and  N_22 
REMARK    9  A    between atoms: C_21  and  C_26 
REMARK   10  A    between atoms: N_22  and  C_25 
REMARK   11  A    between atoms: N_23  and  C_26 
REMARK   12  A    between atoms: C_24  and  C_27 
REMARK   13  A    between atoms: C_26  and  C_27 
ROOT
HETATM    1  O           1     -26.416  -5.845 -17.193  0.00  0.00    -0.271 OA
HETATM    2  C           1     -26.588  -6.297 -18.301  0.00  0.00     0.249 C 
HETATM    3  N           1     -27.839  -6.690 -18.693  0.00  0.00    -0.345 N 
HETATM    4  H           1     -27.984  -7.068 -19.620  0.00  0.00     0.163 HD
ENDROOT
BRANCH   2   5
HETATM    5  C           1     -25.424  -6.427 -19.252  0.00  0.00     0.274 C 
BRANCH   5   6
HETATM    6  N           1     -24.411  -7.371 -18.676  0.00  0.00    -0.067 N 
HETATM    7  H           1     -24.387  -8.247 -19.244  0.00  0.00     0.275 HD
HETATM    8  H           1     -23.468  -6.920 -18.691  0.00  0.00     0.275 HD
HETATM    9  H           1     -24.672  -7.602 -17.690  0.00  0.00     0.275 HD
ENDBRANCH   5   6
BRANCH   5  10
HETATM   10  C           1     -25.918  -6.967 -20.588  0.00  0.00     0.042 C 
BRANCH  10  11
HETATM   11  C           1     -24.971  -8.054 -21.078  0.00  0.00     0.004 C 
BRANCH  11  12
HETATM   12  C           1     -24.223  -7.561 -22.309  0.00  0.00     0.027 C 
BRANCH  12  13
HETATM   13  C           1     -22.980  -8.413 -22.525  0.00  0.00     0.229 C 
BRANCH  13  14
HETATM   14  N           1     -22.623  -9.110 -21.244  0.00  0.00    -0.079 N 
HETATM   15  H           1     -22.843  -8.487 -20.436  0.00  0.00     0.274 HD
HETATM   16  H           1     -23.175  -9.994 -21.165  0.00  0.00     0.274 HD
HETATM   17  H           1     -21.603  -9.335 -21.243  0.00  0.00     0.274 HD
ENDBRANCH  13  14
ENDBRANCH  12  13
ENDBRANCH  11  12
ENDBRANCH  10  11
ENDBRANCH   5  10
ENDBRANCH   2   5
BRANCH   3  18
HETATM   18  C           1     -28.958  -6.565 -17.779  0.00  0.00     0.185 C 
BRANCH  18  19
HETATM   19  C           1     -29.877  -5.446 -18.252  0.00  0.00     0.038 C 
BRANCH  19  20
HETATM   20  C           1     -31.029  -5.284 -17.268  0.00  0.00     0.030 C 
BRANCH  20  21
HETATM   21  C           1     -31.693  -3.930 -17.484  0.00  0.00     0.230 C 
BRANCH  21  22
HETATM   22  N           1     -33.066  -3.946 -16.880  0.00  0.00    -0.079 N 
HETATM   23  H           1     -33.766  -4.207 -17.610  0.00  0.00     0.274 HD
HETATM   24  H           1     -33.097  -4.644 -16.103  0.00  0.00     0.274 HD
HETATM   25  H           1     -33.292  -2.997 -16.505  0.00  0.00     0.274 HD
ENDBRANCH  21  22
ENDBRANCH  20  21
ENDBRANCH  19  20
ENDBRANCH  18  19
BRANCH  18  26
HETATM   26  C           1     -29.724  -7.865 -17.742  0.00  0.00     0.196 C 
HETATM   27  O           1     -30.436  -8.197 -18.714  0.00  0.00    -0.646 OA
HETATM   28  O           1     -29.645  -8.609 -16.741  0.00  0.00    -0.646 OA
ENDBRANCH  18  26
ENDBRANCH   3  18
TORSDOF 13
ENDMDL
MODEL 3
REMARK VINA RESULT:      -5.8      2.244      6.972
REMARK  13 active torsions:
REMARK  status: ('A' for Active; 'I' for Inactive)
REMARK    1  A    between atoms: C_6  and  C_16 
REMARK    2  A    between atoms: C_6  and  C_25 
REMARK    3  A    between atoms: C_7  and  C_25 
REMARK    4  A    between atoms: C_12  and  C_14 
REMARK    5  A    between atoms: C_12  and  N_15 
REMARK    6  A    between atoms: C_14  and  C_24 
REMARK    7  A    between atoms: C_16  and  C_18 
REMARK    8  A    between atoms: C_18  and  N_19 
REMARK       I    between atoms: C_21  and  N_22 
REMARK    9  A    between atoms: C_21  and  C_26 
REMARK   10  A    between atoms: N_22  and  C_25 
REMARK   11  A    between atoms: N_23  and  C_26 
REMARK   12  A    between atoms: C_24  and  C_27 
REMARK   13  A    between atoms: C_26  and  C_27 
ROOT
HETATM    1  O           1     -21.789  -3.269  -8.404  0.00  0.00    -0.271 OA
HETATM    2  C           1     -22.519  -4.178  -8.086  0.00  0.00     0.249 C 
HETATM    3  N           1     -22.182  -4.993  -7.039  0.00  0.00    -0.345 N 
HETATM    4  H           1     -22.793  -5.754  -6.774  0.00  0.00     0.163 HD
ENDROOT
BRANCH   2   5
HETATM    5  C           1     -23.802  -4.417  -8.845  0.00  0.00     0.274 C 
BRANCH   5   6
HETATM    6  N           1     -24.551  -3.124  -8.978  0.00  0.00    -0.067 N 
HETATM    7  H           1     -24.018  -2.361  -8.506  0.00  0.00     0.275 HD
HETATM    8  H           1     -24.669  -2.893  -9.990  0.00  0.00     0.275 HD
HETATM    9  H           1     -25.492  -3.220  -8.531  0.00  0.00     0.275 HD
ENDBRANCH   5   6
BRANCH   5  10
HETATM   10  C           1     -23.479  -4.960 -10.230  0.00  0.00     0.042 C 
BRANCH  10  11
HETATM   11  C           1     -23.919  -3.955 -11.286  0.00  0.00     0.004 C 
BRANCH  11  12
HETATM   12  C           1     -22.784  -3.725 -12.274  0.00  0.00     0.027 C 
BRANCH  12  13
HETATM   13  C           1     -21.869  -2.625 -11.752  0.00  0.00     0.229 C 
BRANCH  13  14
HETATM   14  N           1     -20.533  -3.210 -11.400  0.00  0.00    -0.079 N 
HETATM   15  H           1     -20.586  -4.252 -11.450  0.00  0.00     0.274 HD
HETATM   16  H           1     -19.813  -2.863 -12.073  0.00  0.00     0.274 HD
HETATM   17  H           1     -20.271  -2.921 -10.430  0.00  0.00     0.274 HD
ENDBRANCH  13  14
ENDBRANCH  12  13
ENDBRANCH  11  12
ENDBRANCH  10  11
ENDBRANCH   5  10
ENDBRANCH   2   5
BRANCH   3  18
HETATM   18  C           1     -20.949  -4.764  -6.311  0.00  0.00     0.185 C 
BRANCH  18  19
HETATM   19  C           1     -21.001  -5.507  -4.982  0.00  0.00     0.038 C 
BRANCH  19  20
HETATM   20  C           1     -22.175  -6.477  -4.987  0.00  0.00     0.030 C 
BRANCH  20  21
HETATM   21  C           1     -21.684  -7.871  -4.616  0.00  0.00     0.230 C 
BRANCH  21  22
HETATM   22  N           1     -21.093  -8.532  -5.825  0.00  0.00    -0.079 N 
HETATM   23  H           1     -21.526  -9.474  -5.954  0.00  0.00     0.274 HD
HETATM   24  H           1     -21.281  -7.945  -6.669  0.00  0.00     0.274 HD
HETATM   25  H           1     -20.062  -8.637  -5.695  0.00  0.00     0.274 HD
ENDBRANCH  21  22
ENDBRANCH  20  21
ENDBRANCH  19  20
ENDBRANCH  18  19
BRANCH  18  26
HETATM   26  C           1     -19.784  -5.267  -7.125  0.00  0.00     0.196 C 
HETATM   27  O           1     -18.821  -4.509  -7.374  0.00  0.00    -0.646 OA
HETATM   28  O           1     -19.779  -6.443  -7.550  0.00  0.00    -0.646 OA
ENDBRANCH  18  26
ENDBRANCH   3  18
TORSDOF 13
ENDMDL
MODEL 4
REMARK VINA RESULT:      -5.8      1.790      2.084
REMARK  13 active torsions:
REMARK  status: ('A' for Active; 'I' for Inactive)
REMARK    1  A    between atoms: C_6  and  C_16 
REMARK    2  A    between atoms: C_6  and  C_25 
REMARK    3  A    between atoms: C_7  and  C_25 
REMARK    4  A    between atoms: C_12  and  C_14 
REMARK    5  A    between atoms: C_12  and  N_15 
REMARK    6  A    between atoms: C_14  and  C_24 
REMARK    7  A    between atoms: C_16  and  C_18 
REMARK    8  A    between atoms: C_18  and  N_19 
REMARK       I    between atoms: C_21  and  N_22 
REMARK    9  A    between atoms: C_21  and  C_26 
REMARK   10  A    between atoms: N_22  and  C_25 
REMARK   11  A    between atoms: N_23  and  C_26 
REMARK   12  A    between atoms: C_24  and  C_27 
REMARK   13  A    between atoms: C_26  and  C_27 
ROOT
HETATM    1  O           1     -21.351  -3.494  -7.937  0.00  0.00    -0.271 OA
HETATM    2  C           1     -22.321  -4.167  -7.683  0.00  0.00     0.249 C 
HETATM    3  N           1     -23.321  -4.303  -8.606  0.00  0.00    -0.345 N 
HETATM    4  H           1     -24.134  -4.867  -8.393  0.00  0.00     0.163 HD
ENDROOT
BRANCH   2   5
HETATM    5  C           1     -22.430  -4.859  -6.346  0.00  0.00     0.274 C 
BRANCH   5   6
HETATM    6  N           1     -23.862  -5.223  -6.087  0.00  0.00    -0.067 N 
HETATM    7  H           1     -24.329  -5.464  -6.989  0.00  0.00     0.275 HD
HETATM    8  H           1     -23.900  -6.046  -5.444  0.00  0.00     0.275 HD
HETATM    9  H           1     -24.353  -4.413  -5.645  0.00  0.00     0.275 HD
ENDBRANCH   5   6
BRANCH   5  10
HETATM   10  C           1     -21.579  -6.122  -6.356  0.00  0.00     0.042 C 
BRANCH  10  11
HETATM   11  C           1     -21.931  -6.982  -5.150  0.00  0.00     0.004 C 
BRANCH  11  12
HETATM   12  C           1     -20.910  -6.751  -4.044  0.00  0.00     0.027 C 
BRANCH  12  13
HETATM   13  C           1     -21.536  -7.082  -2.696  0.00  0.00     0.229 C 
BRANCH  13  14
HETATM   14  N           1     -22.419  -5.949  -2.262  0.00  0.00    -0.079 N 
HETATM   15  H           1     -23.336  -6.328  -1.937  0.00  0.00     0.274 HD
HETATM   16  H           1     -21.959  -5.428  -1.482  0.00  0.00     0.274 HD
HETATM   17  H           1     -22.576  -5.302  -3.068  0.00  0.00     0.274 HD
ENDBRANCH  13  14
ENDBRANCH  12  13
ENDBRANCH  11  12
ENDBRANCH  10  11
ENDBRANCH   5  10
ENDBRANCH   2   5
BRANCH   3  18
HETATM   18  C           1     -23.217  -3.639  -9.891  0.00  0.00     0.185 C 
BRANCH  18  19
HETATM   19  C           1     -22.602  -4.594 -10.907  0.00  0.00     0.038 C 
BRANCH  19  20
HETATM   20  C           1     -21.685  -3.818 -11.843  0.00  0.00     0.030 C 
BRANCH  20  21
HETATM   21  C           1     -20.306  -3.686 -11.209  0.00  0.00     0.230 C 
BRANCH  21  22
HETATM   22  N           1     -20.021  -4.899 -10.375  0.00  0.00    -0.079 N 
HETATM   23  H           1     -20.859  -5.524 -10.369  0.00  0.00     0.274 HD
HETATM   24  H           1     -19.206  -5.415 -10.778  0.00  0.00     0.274 HD
HETATM   25  H           1     -19.799  -4.605  -9.397  0.00  0.00     0.274 HD
ENDBRANCH  21  22
ENDBRANCH  20  21
ENDBRANCH  19  20
ENDBRANCH  18  19
BRANCH  18  26
HETATM   26  C           1     -24.592  -3.226 -10.356  0.00  0.00     0.196 C 
HETATM   27  O           1     -24.851  -3.183 -11.578  0.00  0.00    -0.646 OA
HETATM   28  O           1     -25.471  -2.927  -9.519  0.00  0.00    -0.646 OA
ENDBRANCH  18  26
ENDBRANCH   3  18
TORSDOF 13
ENDMDL
MODEL 5
REMARK VINA RESULT:      -5.7      1.608      7.882
REMARK  13 active torsions:
REMARK  status: ('A' for Active; 'I' for Inactive)
REMARK    1  A    between atoms: C_6  and  C_16 
REMARK    2  A    between atoms: C_6  and  C_25 
REMARK    3  A    between atoms: C_7  and  C_25 
REMARK    4  A    between atoms: C_12  and  C_14 
REMARK    5  A    between atoms: C_12  and  N_15 
REMARK    6  A    between atoms: C_14  and  C_24 
REMARK    7  A    between atoms: C_16  and  C_18 
REMARK    8  A    between atoms: C_18  and  N_19 
REMARK       I    between atoms: C_21  and  N_22 
REMARK    9  A    between atoms: C_21  and  C_26 
REMARK   10  A    between atoms: N_22  and  C_25 
REMARK   11  A    between atoms: N_23  and  C_26 
REMARK   12  A    between atoms: C_24  and  C_27 
REMARK   13  A    between atoms: C_26  and  C_27 
ROOT
HETATM    1  O           1     -21.912  -3.223  -7.845  0.00  0.00    -0.271 OA
HETATM    2  C           1     -22.539  -4.236  -8.042  0.00  0.00     0.249 C 
HETATM    3  N           1     -22.339  -5.331  -7.246  0.00  0.00    -0.345 N 
HETATM    4  H           1     -22.865  -6.180  -7.411  0.00  0.00     0.163 HD
ENDROOT
BRANCH   2   5
HETATM    5  C           1     -23.542  -4.295  -9.168  0.00  0.00     0.274 C 
BRANCH   5   6
HETATM    6  N           1     -24.545  -3.192  -9.002  0.00  0.00    -0.067 N 
HETATM    7  H           1     -25.424  -3.441  -9.508  0.00  0.00     0.275 HD
HETATM    8  H           1     -24.753  -3.061  -7.987  0.00  0.00     0.275 HD
HETATM    9  H           1     -24.155  -2.306  -9.396  0.00  0.00     0.275 HD
ENDBRANCH   5   6
BRANCH   5  10
HETATM   10  C           1     -22.822  -4.130 -10.500  0.00  0.00     0.042 C 
BRANCH  10  11
HETATM   11  C           1     -23.572  -3.123 -11.362  0.00  0.00     0.004 C 
BRANCH  11  12
HETATM   12  C           1     -22.669  -2.647 -12.492  0.00  0.00     0.027 C 
BRANCH  12  13
HETATM   13  C           1     -23.420  -2.736 -13.814  0.00  0.00     0.229 C 
BRANCH  13  14
HETATM   14  N           1     -22.438  -2.910 -14.936  0.00  0.00    -0.079 N 
HETATM   15  H           1     -22.480  -2.080 -15.567  0.00  0.00     0.274 HD
HETATM   16  H           1     -21.474  -3.002 -14.543  0.00  0.00     0.274 HD
HETATM   17  H           1     -22.677  -3.772 -15.477  0.00  0.00     0.274 HD
ENDBRANCH  13  14
ENDBRANCH  12  13
ENDBRANCH  11  12
ENDBRANCH  10  11
ENDBRANCH   5  10
ENDBRANCH   2   5
BRANCH   3  18
HETATM   18  C           1     -21.375  -5.274  -6.164  0.00  0.00     0.185 C 
BRANCH  18  19
HETATM   19  C           1     -21.730  -6.319  -5.114  0.00  0.00     0.038 C 
BRANCH  19  20
HETATM   20  C           1     -21.007  -5.997  -3.812  0.00  0.00     0.030 C 
BRANCH  20  21
HETATM   21  C           1     -21.678  -6.737  -2.662  0.00  0.00     0.230 C 
BRANCH  21  22
HETATM   22  N           1     -22.311  -5.746  -1.732  0.00  0.00    -0.079 N 
HETATM   23  H           1     -22.670  -4.932  -2.280  0.00  0.00     0.274 HD
HETATM   24  H           1     -23.105  -6.201  -1.226  0.00  0.00     0.274 HD
HETATM   25  H           1     -21.601  -5.414  -1.040  0.00  0.00     0.274 HD
ENDBRANCH  21  22
ENDBRANCH  20  21
ENDBRANCH  19  20
ENDBRANCH  18  19
BRANCH  18  26
HETATM   26  C           1     -19.995  -5.553  -6.707  0.00  0.00     0.196 C 
HETATM   27  O           1     -19.731  -6.672  -7.197  0.00  0.00    -0.646 OA
HETATM   28  O           1     -19.117  -4.665  -6.667  0.00  0.00    -0.646 OA
ENDBRANCH  18  26
ENDBRANCH   3  18
TORSDOF 13
ENDMDL
MODEL 6
REMARK VINA RESULT:      -5.7      2.546      8.004
REMARK  13 active torsions:
REMARK  status: ('A' for Active; 'I' for Inactive)
REMARK    1  A    between atoms: C_6  and  C_16 
REMARK    2  A    between atoms: C_6  and  C_25 
REMARK    3  A    between atoms: C_7  and  C_25 
REMARK    4  A    between atoms: C_12  and  C_14 
REMARK    5  A    between atoms: C_12  and  N_15 
REMARK    6  A    between atoms: C_14  and  C_24 
REMARK    7  A    between atoms: C_16  and  C_18 
REMARK    8  A    between atoms: C_18  and  N_19 
REMARK       I    between atoms: C_21  and  N_22 
REMARK    9  A    between atoms: C_21  and  C_26 
REMARK   10  A    between atoms: N_22  and  C_25 
REMARK   11  A    between atoms: N_23  and  C_26 
REMARK   12  A    between atoms: C_24  and  C_27 
REMARK   13  A    between atoms: C_26  and  C_27 
ROOT
HETATM    1  O           1     -19.806  -4.723  -6.457  0.00  0.00    -0.271 OA
HETATM    2  C           1     -20.831  -5.172  -6.913  0.00  0.00     0.249 C 
HETATM    3  N           1     -21.516  -6.142  -6.233  0.00  0.00    -0.345 N 
HETATM    4  H           1     -22.374  -6.518  -6.615  0.00  0.00     0.163 HD
ENDROOT
BRANCH   2   5
HETATM    5  C           1     -21.355  -4.665  -8.234  0.00  0.00     0.274 C 
BRANCH   5   6
HETATM    6  N           1     -22.357  -3.576  -7.990  0.00  0.00    -0.067 N 
HETATM    7  H           1     -22.670  -3.607  -6.994  0.00  0.00     0.275 HD
HETATM    8  H           1     -21.919  -2.649  -8.189  0.00  0.00     0.275 HD
HETATM    9  H           1     -23.181  -3.714  -8.619  0.00  0.00     0.275 HD
ENDBRANCH   5   6
BRANCH   5  10
HETATM   10  C           1     -20.200  -4.114  -9.061  0.00  0.00     0.042 C 
BRANCH  10  11
HETATM   11  C           1     -20.424  -4.444 -10.530  0.00  0.00     0.004 C 
BRANCH  11  12
HETATM   12  C           1     -20.717  -3.164 -11.301  0.00  0.00     0.027 C 
BRANCH  12  13
HETATM   13  C           1     -22.147  -3.200 -11.823  0.00  0.00     0.229 C 
BRANCH  13  14
HETATM   14  N           1     -22.132  -3.384 -13.312  0.00  0.00    -0.079 N 
HETATM   15  H           1     -21.245  -3.858 -13.595  0.00  0.00     0.274 HD
HETATM   16  H           1     -22.948  -3.971 -13.598  0.00  0.00     0.274 HD
HETATM   17  H           1     -22.193  -2.452 -13.779  0.00  0.00     0.274 HD
ENDBRANCH  13  14
ENDBRANCH  12  13
ENDBRANCH  11  12
ENDBRANCH  10  11
ENDBRANCH   5  10
ENDBRANCH   2   5
BRANCH   3  18
HETATM   18  C           1     -21.013  -6.629  -4.963  0.00  0.00     0.185 C 
BRANCH  18  19
HETATM   19  C           1     -22.141  -6.637  -3.940  0.00  0.00     0.038 C 
BRANCH  19  20
HETATM   20  C           1     -21.589  -6.257  -2.572  0.00  0.00     0.030 C 
BRANCH  20  21
HETATM   21  C           1     -21.658  -7.463  -1.644  0.00  0.00     0.230 C 
BRANCH  21  22
HETATM   22  N           1     -22.476  -7.117  -0.435  0.00  0.00    -0.079 N 
HETATM   23  H           1     -23.491  -7.152  -0.679  0.00  0.00     0.274 HD
HETATM   24  H           1     -22.278  -7.805   0.327  0.00  0.00     0.274 HD
HETATM   25  H           1     -22.229  -6.156  -0.110  0.00  0.00     0.274 HD
ENDBRANCH  21  22
ENDBRANCH  20  21
ENDBRANCH  19  20
ENDBRANCH  18  19
BRANCH  18  26
HETATM   26  C           1     -20.482  -8.031  -5.139  0.00  0.00     0.196 C 
HETATM   27  O           1     -19.434  -8.380  -4.553  0.00  0.00    -0.646 OA
HETATM   28  O           1     -21.091  -8.843  -5.868  0.00  0.00    -0.646 OA
ENDBRANCH  18  26
ENDBRANCH   3  18
TORSDOF 13
ENDMDL
MODEL 7
REMARK VINA RESULT:      -5.6      2.905      7.461
REMARK  13 active torsions:
REMARK  status: ('A' for Active; 'I' for Inactive)
REMARK    1  A    between atoms: C_6  and  C_16 
REMARK    2  A    between atoms: C_6  and  C_25 
REMARK    3  A    between atoms: C_7  and  C_25 
REMARK    4  A    between atoms: C_12  and  C_14 
REMARK    5  A    between atoms: C_12  and  N_15 
REMARK    6  A    between atoms: C_14  and  C_24 
REMARK    7  A    between atoms: C_16  and  C_18 
REMARK    8  A    between atoms: C_18  and  N_19 
REMARK       I    between atoms: C_21  and  N_22 
REMARK    9  A    between atoms: C_21  and  C_26 
REMARK   10  A    between atoms: N_22  and  C_25 
REMARK   11  A    between atoms: N_23  and  C_26 
REMARK   12  A    between atoms: C_24  and  C_27 
REMARK   13  A    between atoms: C_26  and  C_27 
ROOT
HETATM    1  O           1     -22.596  -5.494  -5.848  0.00  0.00    -0.271 OA
HETATM    2  C           1     -21.394  -5.473  -5.727  0.00  0.00     0.249 C 
HETATM    3  N           1     -20.776  -6.346  -4.874  0.00  0.00    -0.345 N 
HETATM    4  H           1     -19.769  -6.329  -4.773  0.00  0.00     0.163 HD
ENDROOT
BRANCH   2   5
HETATM    5  C           1     -20.574  -4.483  -6.518  0.00  0.00     0.274 C 
BRANCH   5   6
HETATM    6  N           1     -19.561  -5.219  -7.343  0.00  0.00    -0.067 N 
HETATM    7  H           1     -20.043  -5.725  -8.118  0.00  0.00     0.275 HD
HETATM    8  H           1     -18.877  -4.537  -7.744  0.00  0.00     0.275 HD
HETATM    9  H           1     -19.054  -5.907  -6.740  0.00  0.00     0.275 HD
ENDBRANCH   5   6
BRANCH   5  10
HETATM   10  C           1     -21.490  -3.682  -7.434  0.00  0.00     0.042 C 
BRANCH  10  11
HETATM   11  C           1     -21.248  -4.094  -8.880  0.00  0.00     0.004 C 
BRANCH  11  12
HETATM   12  C           1     -22.529  -4.672  -9.466  0.00  0.00     0.027 C 
BRANCH  12  13
HETATM   13  C           1     -23.731  -3.956  -8.865  0.00  0.00     0.229 C 
BRANCH  13  14
HETATM   14  N           1     -24.956  -4.270  -9.674  0.00  0.00    -0.079 N 
HETATM   15  H           1     -25.698  -4.655  -9.046  0.00  0.00     0.274 HD
HETATM   16  H           1     -25.303  -3.398 -10.132  0.00  0.00     0.274 HD
HETATM   17  H           1     -24.718  -4.977 -10.405  0.00  0.00     0.274 HD
ENDBRANCH  13  14
ENDBRANCH  12  13
ENDBRANCH  11  12
ENDBRANCH  10  11
ENDBRANCH   5  10
ENDBRANCH   2   5
BRANCH   3  18
HETATM   18  C           1     -21.564  -7.298  -4.115  0.00  0.00     0.185 C 
BRANCH  18  19
HETATM   19  C           1     -20.923  -8.677  -4.209  0.00  0.00     0.038 C 
BRANCH  19  20
HETATM   20  C           1     -19.594  -8.570  -4.946  0.00  0.00     0.030 C 
BRANCH  20  21
HETATM   21  C           1     -18.552  -9.429  -4.240  0.00  0.00     0.230 C 
BRANCH  21  22
HETATM   22  N           1     -18.604  -9.166  -2.764  0.00  0.00    -0.079 N 
HETATM   23  H           1     -18.586  -8.136  -2.592  0.00  0.00     0.274 HD
HETATM   24  H           1     -19.484  -9.569  -2.370  0.00  0.00     0.274 HD
HETATM   25  H           1     -17.779  -9.611  -2.302  0.00  0.00     0.274 HD
ENDBRANCH  21  22
ENDBRANCH  20  21
ENDBRANCH  19  20
ENDBRANCH  18  19
BRANCH  18  26
HETATM   26  C           1     -21.618  -6.865  -2.670  0.00  0.00     0.196 C 
HETATM   27  O           1     -22.384  -5.940  -2.324  0.00  0.00    -0.646 OA
HETATM   28  O           1     -20.898  -7.432  -1.820  0.00  0.00    -0.646 OA
ENDBRANCH  18  26
ENDBRANCH   3  18
TORSDOF 13
ENDMDL
MODEL 8
REMARK VINA RESULT:      -5.5     10.057     13.143
REMARK  13 active torsions:
REMARK  status: ('A' for Active; 'I' for Inactive)
REMARK    1  A    between atoms: C_6  and  C_16 
REMARK    2  A    between atoms: C_6  and  C_25 
REMARK    3  A    between atoms: C_7  and  C_25 
REMARK    4  A    between atoms: C_12  and  C_14 
REMARK    5  A    between atoms: C_12  and  N_15 
REMARK    6  A    between atoms: C_14  and  C_24 
REMARK    7  A    between atoms: C_16  and  C_18 
REMARK    8  A    between atoms: C_18  and  N_19 
REMARK       I    between atoms: C_21  and  N_22 
REMARK    9  A    between atoms: C_21  and  C_26 
REMARK   10  A    between atoms: N_22  and  C_25 
REMARK   11  A    between atoms: N_23  and  C_26 
REMARK   12  A    between atoms: C_24  and  C_27 
REMARK   13  A    between atoms: C_26  and  C_27 
ROOT
HETATM    1  O           1     -28.037  -5.508 -19.279  0.00  0.00    -0.271 OA
HETATM    2  C           1     -27.034  -6.175 -19.381  0.00  0.00     0.249 C 
HETATM    3  N           1     -26.410  -6.648 -18.258  0.00  0.00    -0.345 N 
HETATM    4  H           1     -25.571  -7.206 -18.343  0.00  0.00     0.163 HD
ENDROOT
BRANCH   2   5
HETATM    5  C           1     -26.469  -6.486 -20.745  0.00  0.00     0.274 C 
BRANCH   5   6
HETATM    6  N           1     -25.390  -5.498 -21.077  0.00  0.00    -0.067 N 
HETATM    7  H           1     -24.592  -5.992 -21.532  0.00  0.00     0.275 HD
HETATM    8  H           1     -25.770  -4.774 -21.728  0.00  0.00     0.275 HD
HETATM    9  H           1     -25.059  -5.037 -20.199  0.00  0.00     0.275 HD
ENDBRANCH   5   6
BRANCH   5  10
HETATM   10  C           1     -25.885  -7.893 -20.744  0.00  0.00     0.042 C 
BRANCH  10  11
HETATM   11  C           1     -24.368  -7.813 -20.844  0.00  0.00     0.004 C 
BRANCH  11  12
HETATM   12  C           1     -23.934  -8.133 -22.268  0.00  0.00     0.027 C 
BRANCH  12  13
HETATM   13  C           1     -22.502  -8.653 -22.258  0.00  0.00     0.229 C 
BRANCH  13  14
HETATM   14  N           1     -21.990  -8.683 -20.848  0.00  0.00    -0.079 N 
HETATM   15  H           1     -20.977  -8.935 -20.851  0.00  0.00     0.274 HD
HETATM   16  H           1     -22.116  -7.742 -20.412  0.00  0.00     0.274 HD
HETATM   17  H           1     -22.524  -9.395 -20.299  0.00  0.00     0.274 HD
ENDBRANCH  13  14
ENDBRANCH  12  13
ENDBRANCH  11  12
ENDBRANCH  10  11
ENDBRANCH   5  10
ENDBRANCH   2   5
BRANCH   3  18
HETATM   18  C           1     -26.953  -6.349 -16.947  0.00  0.00     0.185 C 
BRANCH  18  19
HETATM   19  C           1     -28.055  -7.347 -16.615  0.00  0.00     0.038 C 
BRANCH  19  20
HETATM   20  C           1     -29.375  -6.607 -16.440  0.00  0.00     0.030 C 
BRANCH  20  21
HETATM   21  C           1     -30.384  -7.121 -17.459  0.00  0.00     0.230 C 
BRANCH  21  22
HETATM   22  N           1     -29.745  -8.184 -18.303  0.00  0.00    -0.079 N 
HETATM   23  H           1     -28.824  -8.452 -17.889  0.00  0.00     0.274 HD
HETATM   24  H           1     -30.368  -9.022 -18.337  0.00  0.00     0.274 HD
HETATM   25  H           1     -29.599  -7.818 -19.271  0.00  0.00     0.274 HD
ENDBRANCH  21  22
ENDBRANCH  20  21
ENDBRANCH  19  20
ENDBRANCH  18  19
BRANCH  18  26
HETATM   26  C           1     -25.856  -6.447 -15.916  0.00  0.00     0.196 C 
HETATM   27  O           1     -25.068  -5.491 -15.749  0.00  0.00    -0.646 OA
HETATM   28  O           1     -25.736  -7.484 -15.227  0.00  0.00    -0.646 OA
ENDBRANCH  18  26
ENDBRANCH   3  18
TORSDOF 13
ENDMDL
MODEL 9
REMARK VINA RESULT:      -5.5      3.077      7.583
REMARK  13 active torsions:
REMARK  status: ('A' for Active; 'I' for Inactive)
REMARK    1  A    between atoms: C_6  and  C_16 
REMARK    2  A    between atoms: C_6  and  C_25 
REMARK    3  A    between atoms: C_7  and  C_25 
REMARK    4  A    between atoms: C_12  and  C_14 
REMARK    5  A    between atoms: C_12  and  N_15 
REMARK    6  A    between atoms: C_14  and  C_24 
REMARK    7  A    between atoms: C_16  and  C_18 
REMARK    8  A    between atoms: C_18  and  N_19 
REMARK       I    between atoms: C_21  and  N_22 
REMARK    9  A    between atoms: C_21  and  C_26 
REMARK   10  A    between atoms: N_22  and  C_25 
REMARK   11  A    between atoms: N_23  and  C_26 
REMARK   12  A    between atoms: C_24  and  C_27 
REMARK   13  A    between atoms: C_26  and  C_27 
ROOT
HETATM    1  O           1     -19.969  -4.336  -5.234  0.00  0.00    -0.271 OA
HETATM    2  C           1     -20.539  -4.892  -6.142  0.00  0.00     0.249 C 
HETATM    3  N           1     -21.019  -6.163  -5.974  0.00  0.00    -0.345 N 
HETATM    4  H           1     -21.496  -6.629  -6.735  0.00  0.00     0.163 HD
ENDROOT
BRANCH   2   5
HETATM    5  C           1     -20.722  -4.186  -7.464  0.00  0.00     0.274 C 
BRANCH   5   6
HETATM    6  N           1     -19.878  -4.855  -8.508  0.00  0.00    -0.067 N 
HETATM    7  H           1     -19.097  -4.220  -8.786  0.00  0.00     0.275 HD
HETATM    8  H           1     -19.486  -5.743  -8.122  0.00  0.00     0.275 HD
HETATM    9  H           1     -20.467  -5.069  -9.345  0.00  0.00     0.275 HD
ENDBRANCH   5   6
BRANCH   5  10
HETATM   10  C           1     -22.186  -4.251  -7.876  0.00  0.00     0.042 C 
BRANCH  10  11
HETATM   11  C           1     -22.336  -3.739  -9.302  0.00  0.00     0.004 C 
BRANCH  11  12
HETATM   12  C           1     -23.374  -4.576 -10.038  0.00  0.00     0.027 C 
BRANCH  12  13
HETATM   13  C           1     -24.433  -3.661 -10.638  0.00  0.00     0.229 C 
BRANCH  13  14
HETATM   14  N           1     -25.570  -3.508  -9.670  0.00  0.00    -0.079 N 
HETATM   15  H           1     -25.555  -2.546  -9.265  0.00  0.00     0.274 HD
HETATM   16  H           1     -26.474  -3.665 -10.169  0.00  0.00     0.274 HD
HETATM   17  H           1     -25.469  -4.210  -8.902  0.00  0.00     0.274 HD
ENDBRANCH  13  14
ENDBRANCH  12  13
ENDBRANCH  11  12
ENDBRANCH  10  11
ENDBRANCH   5  10
ENDBRANCH   2   5
BRANCH   3  18
HETATM   18  C           1     -20.844  -6.841  -4.705  0.00  0.00     0.185 C 
BRANCH  18  19
HETATM   19  C           1     -22.112  -6.697  -3.873  0.00  0.00     0.038 C 
BRANCH  19  20
HETATM   20  C           1     -21.754  -6.176  -2.487  0.00  0.00     0.030 C 
BRANCH  20  21
HETATM   21  C           1     -21.899  -7.300  -1.469  0.00  0.00     0.230 C 
BRANCH  21  22
HETATM   22  N           1     -20.588  -8.013  -1.322  0.00  0.00    -0.079 N 
HETATM   23  H           1     -19.805  -7.341  -1.484  0.00  0.00     0.274 HD
HETATM   24  H           1     -20.513  -8.408  -0.357  0.00  0.00     0.274 HD
HETATM   25  H           1     -20.533  -8.788  -2.021  0.00  0.00     0.274 HD
ENDBRANCH  21  22
ENDBRANCH  20  21
ENDBRANCH  19  20
ENDBRANCH  18  19
BRANCH  18  26
HETATM   26  C           1     -20.567  -8.304  -4.952  0.00  0.00     0.196 C 
HETATM   27  O           1     -21.099  -8.885  -5.922  0.00  0.00    -0.646 OA
HETATM   28  O           1     -19.804  -8.934  -4.187  0.00  0.00    -0.646 OA
ENDBRANCH  18  26
ENDBRANCH   3  18
TORSDOF 13
ENDMDL
