MODEL 1
REMARK VINA RESULT:      -6.5      0.000      0.000
REMARK  5 active torsions:
REMARK  status: ('A' for Active; 'I' for Inactive)
REMARK       I    between atoms: N_2  and  C_12 
REMARK    1  A    between atoms: O_6  and  C_15 
REMARK    2  A    between atoms: C_9  and  C_14 
REMARK    3  A    between atoms: N_11  and  C_16 
REMARK    4  A    between atoms: C_12  and  C_16 
REMARK    5  A    between atoms: C_15  and  C_16 
ROOT
HETATM    1  N           1     -23.097  -3.388 -12.022  0.00  0.00    -0.336 N 
HETATM    2  C           1     -21.988  -2.645 -11.430  0.00  0.00     0.127 C 
HETATM    3  C           1     -21.195  -3.707 -10.688  0.00  0.00     0.022 C 
HETATM    4  C           1     -22.192  -4.823 -10.403  0.00  0.00     0.038 C 
HETATM    5  C           1     -23.635  -3.228 -13.270  0.00  0.00     0.253 C 
HETATM    6  C           1     -23.507  -4.338 -10.992  0.00  0.00     0.188 C 
HETATM    7  O           1     -24.559  -3.923 -13.623  0.00  0.00    -0.271 OA
ENDROOT
BRANCH   5   8
HETATM    8  C           1     -23.075  -2.185 -14.206  0.00  0.00     0.298 C 
BRANCH   8   9
HETATM    9  N           1     -22.385  -2.862 -15.352  0.00  0.00    -0.064 N 
HETATM   10  H           1     -22.686  -3.862 -15.399  0.00  0.00     0.275 HD
HETATM   11  H           1     -22.638  -2.381 -16.245  0.00  0.00     0.275 HD
HETATM   12  H           1     -21.351  -2.815 -15.213  0.00  0.00     0.275 HD
ENDBRANCH   8   9
BRANCH   8  13
HETATM   13  C           1     -24.209  -1.317 -14.737  0.00  0.00     0.206 C 
BRANCH  13  14
HETATM   14  O           1     -23.676  -0.270 -15.502  0.00  0.00    -0.398 OA
ATOM     15  HO          1     -24.381   0.195 -15.937  1.00  0.00     0.209 HD
ENDBRANCH  13  14
ENDBRANCH   8  13
ENDBRANCH   5   8
BRANCH   6  16
HETATM   16  C           1     -24.348  -3.659  -9.939  0.00  0.00     0.196 C 
HETATM   17  O           1     -25.404  -3.075 -10.264  0.00  0.00    -0.646 OA
HETATM   18  O           1     -23.989  -3.679  -8.743  0.00  0.00    -0.646 OA
ENDBRANCH   6  16
TORSDOF 5
ENDMDL
MODEL 2
REMARK VINA RESULT:      -6.1     11.109     12.042
REMARK  5 active torsions:
REMARK  status: ('A' for Active; 'I' for Inactive)
REMARK       I    between atoms: N_2  and  C_12 
REMARK    1  A    between atoms: O_6  and  C_15 
REMARK    2  A    between atoms: C_9  and  C_14 
REMARK    3  A    between atoms: N_11  and  C_16 
REMARK    4  A    between atoms: C_12  and  C_16 
REMARK    5  A    between atoms: C_15  and  C_16 
ROOT
HETATM    1  N           1     -34.749  -2.543 -12.398  0.00  0.00    -0.336 N 
HETATM    2  C           1     -34.939  -2.539 -10.951  0.00  0.00     0.127 C 
HETATM    3  C           1     -33.563  -2.875 -10.403  0.00  0.00     0.022 C 
HETATM    4  C           1     -32.858  -3.622 -11.528  0.00  0.00     0.038 C 
HETATM    5  C           1     -35.278  -1.671 -13.312  0.00  0.00     0.253 C 
HETATM    6  C           1     -33.870  -3.680 -12.660  0.00  0.00     0.188 C 
HETATM    7  O           1     -35.029  -1.803 -14.487  0.00  0.00    -0.271 OA
ENDROOT
BRANCH   5   8
HETATM    8  C           1     -36.173  -0.547 -12.851  0.00  0.00     0.298 C 
BRANCH   8   9
HETATM    9  N           1     -35.336   0.543 -12.251  0.00  0.00    -0.064 N 
HETATM   10  H           1     -34.686   0.133 -11.544  0.00  0.00     0.275 HD
HETATM   11  H           1     -34.781   1.011 -13.003  0.00  0.00     0.275 HD
HETATM   12  H           1     -35.957   1.245 -11.790  0.00  0.00     0.275 HD
ENDBRANCH   8   9
BRANCH   8  13
HETATM   13  C           1     -36.948   0.006 -14.041  0.00  0.00     0.206 C 
BRANCH  13  14
HETATM   14  O           1     -38.029  -0.840 -14.328  0.00  0.00    -0.398 OA
ATOM     15  HO          1     -38.541  -0.470 -15.037  1.00  0.00     0.209 HD
ENDBRANCH  13  14
ENDBRANCH   8  13
ENDBRANCH   5   8
BRANCH   6  16
HETATM   16  C           1     -34.644  -4.975 -12.622  0.00  0.00     0.196 C 
HETATM   17  O           1     -35.291  -5.345 -13.626  0.00  0.00    -0.646 OA
HETATM   18  O           1     -34.638  -5.677 -11.589  0.00  0.00    -0.646 OA
ENDBRANCH   6  16
TORSDOF 5
ENDMDL
MODEL 3
REMARK VINA RESULT:      -5.9     11.339     12.600
REMARK  5 active torsions:
REMARK  status: ('A' for Active; 'I' for Inactive)
REMARK       I    between atoms: N_2  and  C_12 
REMARK    1  A    between atoms: O_6  and  C_15 
REMARK    2  A    between atoms: C_9  and  C_14 
REMARK    3  A    between atoms: N_11  and  C_16 
REMARK    4  A    between atoms: C_12  and  C_16 
REMARK    5  A    between atoms: C_15  and  C_16 
ROOT
HETATM    1  N           1     -35.043  -2.554 -11.370  0.00  0.00    -0.336 N 
HETATM    2  C           1     -35.576  -3.805 -10.838  0.00  0.00     0.127 C 
HETATM    3  C           1     -34.336  -4.625 -10.526  0.00  0.00     0.022 C 
HETATM    4  C           1     -33.248  -4.061 -11.432  0.00  0.00     0.038 C 
HETATM    5  C           1     -35.493  -1.285 -11.126  0.00  0.00     0.253 C 
HETATM    6  C           1     -33.925  -2.953 -12.221  0.00  0.00     0.188 C 
HETATM    7  O           1     -34.946  -0.340 -11.643  0.00  0.00    -0.271 OA
ENDROOT
BRANCH   5   8
HETATM    8  C           1     -36.673  -1.066 -10.211  0.00  0.00     0.298 C 
BRANCH   8   9
HETATM    9  N           1     -36.237  -0.269  -9.017  0.00  0.00    -0.064 N 
HETATM   10  H           1     -36.428   0.744  -9.186  0.00  0.00     0.275 HD
HETATM   11  H           1     -36.766  -0.587  -8.173  0.00  0.00     0.275 HD
HETATM   12  H           1     -35.214  -0.411  -8.859  0.00  0.00     0.275 HD
ENDBRANCH   8   9
BRANCH   8  13
HETATM   13  C           1     -37.762  -0.305 -10.958  0.00  0.00     0.206 C 
BRANCH  13  14
HETATM   14  O           1     -37.747  -0.677 -12.309  0.00  0.00    -0.398 OA
ATOM     15  HO          1     -37.149  -0.114 -12.787  1.00  0.00     0.209 HD
ENDBRANCH  13  14
ENDBRANCH   8  13
ENDBRANCH   5   8
BRANCH   6  16
HETATM   16  C           1     -34.419  -3.465 -13.551  0.00  0.00     0.196 C 
HETATM   17  O           1     -34.520  -4.695 -13.748  0.00  0.00    -0.646 OA
HETATM   18  O           1     -34.726  -2.661 -14.456  0.00  0.00    -0.646 OA
ENDBRANCH   6  16
TORSDOF 5
ENDMDL
MODEL 4
REMARK VINA RESULT:      -5.7      2.380      3.310
REMARK  5 active torsions:
REMARK  status: ('A' for Active; 'I' for Inactive)
REMARK       I    between atoms: N_2  and  C_12 
REMARK    1  A    between atoms: O_6  and  C_15 
REMARK    2  A    between atoms: C_9  and  C_14 
REMARK    3  A    between atoms: N_11  and  C_16 
REMARK    4  A    between atoms: C_12  and  C_16 
REMARK    5  A    between atoms: C_15  and  C_16 
ROOT
HETATM    1  N           1     -22.507  -3.751 -10.702  0.00  0.00    -0.336 N 
HETATM    2  C           1     -23.354  -4.869 -10.296  0.00  0.00     0.127 C 
HETATM    3  C           1     -23.608  -4.615  -8.821  0.00  0.00     0.022 C 
HETATM    4  C           1     -22.442  -3.751  -8.358  0.00  0.00     0.038 C 
HETATM    5  C           1     -22.572  -3.036 -11.868  0.00  0.00     0.253 C 
HETATM    6  C           1     -21.576  -3.561  -9.593  0.00  0.00     0.188 C 
HETATM    7  O           1     -21.797  -2.130 -12.065  0.00  0.00    -0.271 OA
ENDROOT
BRANCH   5   8
HETATM    8  C           1     -23.610  -3.380 -12.907  0.00  0.00     0.298 C 
BRANCH   8   9
HETATM    9  N           1     -24.977  -3.089 -12.363  0.00  0.00    -0.064 N 
HETATM   10  H           1     -25.305  -3.900 -11.793  0.00  0.00     0.275 HD
HETATM   11  H           1     -24.938  -2.234 -11.762  0.00  0.00     0.275 HD
HETATM   12  H           1     -25.639  -2.927 -13.154  0.00  0.00     0.275 HD
ENDBRANCH   8   9
BRANCH   8  13
HETATM   13  C           1     -23.374  -2.544 -14.159  0.00  0.00     0.206 C 
BRANCH  13  14
HETATM   14  O           1     -22.369  -3.138 -14.935  0.00  0.00    -0.398 OA
ATOM     15  HO          1     -22.288  -2.672 -15.759  1.00  0.00     0.209 HD
ENDBRANCH  13  14
ENDBRANCH   8  13
ENDBRANCH   5   8
BRANCH   6  16
HETATM   16  C           1     -20.472  -4.588  -9.638  0.00  0.00     0.196 C 
HETATM   17  O           1     -20.143  -5.197  -8.597  0.00  0.00    -0.646 OA
HETATM   18  O           1     -19.886  -4.830 -10.714  0.00  0.00    -0.646 OA
ENDBRANCH   6  16
TORSDOF 5
ENDMDL
MODEL 5
REMARK VINA RESULT:      -5.6      2.755      4.041
REMARK  5 active torsions:
REMARK  status: ('A' for Active; 'I' for Inactive)
REMARK       I    between atoms: N_2  and  C_12 
REMARK    1  A    between atoms: O_6  and  C_15 
REMARK    2  A    between atoms: C_9  and  C_14 
REMARK    3  A    between atoms: N_11  and  C_16 
REMARK    4  A    between atoms: C_12  and  C_16 
REMARK    5  A    between atoms: C_15  and  C_16 
ROOT
HETATM    1  N           1     -21.513  -4.483  -8.798  0.00  0.00    -0.336 N 
HETATM    2  C           1     -20.507  -3.518  -8.364  0.00  0.00     0.127 C 
HETATM    3  C           1     -19.360  -4.385  -7.875  0.00  0.00     0.022 C 
HETATM    4  C           1     -19.998  -5.717  -7.502  0.00  0.00     0.038 C 
HETATM    5  C           1     -22.314  -4.412  -9.906  0.00  0.00     0.253 C 
HETATM    6  C           1     -21.480  -5.541  -7.792  0.00  0.00     0.188 C 
HETATM    7  O           1     -23.107  -5.295 -10.136  0.00  0.00    -0.271 OA
ENDROOT
BRANCH   5   8
HETATM    8  C           1     -22.206  -3.232 -10.840  0.00  0.00     0.298 C 
BRANCH   8   9
HETATM    9  N           1     -21.152  -3.506 -11.870  0.00  0.00    -0.064 N 
HETATM   10  H           1     -20.994  -2.647 -12.444  0.00  0.00     0.275 HD
HETATM   11  H           1     -20.260  -3.775 -11.394  0.00  0.00     0.275 HD
HETATM   12  H           1     -21.464  -4.288 -12.489  0.00  0.00     0.275 HD
ENDBRANCH   8   9
BRANCH   8  13
HETATM   13  C           1     -23.545  -3.008 -11.532  0.00  0.00     0.206 C 
BRANCH  13  14
HETATM   14  O           1     -24.569  -2.995 -10.575  0.00  0.00    -0.398 OA
ATOM     15  HO          1     -25.246  -3.613 -10.827  1.00  0.00     0.209 HD
ENDBRANCH  13  14
ENDBRANCH   8  13
ENDBRANCH   5   8
BRANCH   6  16
HETATM   16  C           1     -22.224  -5.121  -6.547  0.00  0.00     0.196 C 
HETATM   17  O           1     -23.363  -4.616  -6.641  0.00  0.00    -0.646 OA
HETATM   18  O           1     -21.701  -5.278  -5.423  0.00  0.00    -0.646 OA
ENDBRANCH   6  16
TORSDOF 5
ENDMDL
MODEL 6
REMARK VINA RESULT:      -5.6     11.541     13.134
REMARK  5 active torsions:
REMARK  status: ('A' for Active; 'I' for Inactive)
REMARK       I    between atoms: N_2  and  C_12 
REMARK    1  A    between atoms: O_6  and  C_15 
REMARK    2  A    between atoms: C_9  and  C_14 
REMARK    3  A    between atoms: N_11  and  C_16 
REMARK    4  A    between atoms: C_12  and  C_16 
REMARK    5  A    between atoms: C_15  and  C_16 
ROOT
HETATM    1  N           1     -35.890  -1.031 -13.160  0.00  0.00    -0.336 N 
HETATM    2  C           1     -36.692  -0.147 -12.319  0.00  0.00     0.127 C 
HETATM    3  C           1     -37.979   0.034 -13.105  0.00  0.00     0.022 C 
HETATM    4  C           1     -37.602  -0.243 -14.555  0.00  0.00     0.038 C 
HETATM    5  C           1     -35.099  -2.074 -12.758  0.00  0.00     0.253 C 
HETATM    6  C           1     -36.116  -0.562 -14.524  0.00  0.00     0.188 C 
HETATM    7  O           1     -34.490  -2.721 -13.577  0.00  0.00    -0.271 OA
ENDROOT
BRANCH   5   8
HETATM    8  C           1     -34.988  -2.415 -11.292  0.00  0.00     0.298 C 
BRANCH   8   9
HETATM    9  N           1     -35.437  -3.829 -11.074  0.00  0.00    -0.064 N 
HETATM   10  H           1     -34.661  -4.378 -10.641  0.00  0.00     0.275 HD
HETATM   11  H           1     -36.266  -3.838 -10.437  0.00  0.00     0.275 HD
HETATM   12  H           1     -35.699  -4.256 -11.990  0.00  0.00     0.275 HD
ENDBRANCH   8   9
BRANCH   8  13
HETATM   13  C           1     -33.539  -2.268 -10.845  0.00  0.00     0.206 C 
BRANCH  13  14
HETATM   14  O           1     -32.767  -3.289 -11.417  0.00  0.00    -0.398 OA
ATOM     15  HO          1     -33.304  -3.794 -12.016  1.00  0.00     0.209 HD
ENDBRANCH  13  14
ENDBRANCH   8  13
ENDBRANCH   5   8
BRANCH   6  16
HETATM   16  C           1     -35.297   0.673 -14.809  0.00  0.00     0.196 C 
HETATM   17  O           1     -35.765   1.581 -15.529  0.00  0.00    -0.646 OA
HETATM   18  O           1     -34.150   0.788 -14.326  0.00  0.00    -0.646 OA
ENDBRANCH   6  16
TORSDOF 5
ENDMDL
MODEL 7
REMARK VINA RESULT:      -5.4      3.044      5.962
REMARK  5 active torsions:
REMARK  status: ('A' for Active; 'I' for Inactive)
REMARK       I    between atoms: N_2  and  C_12 
REMARK    1  A    between atoms: O_6  and  C_15 
REMARK    2  A    between atoms: C_9  and  C_14 
REMARK    3  A    between atoms: N_11  and  C_16 
REMARK    4  A    between atoms: C_12  and  C_16 
REMARK    5  A    between atoms: C_15  and  C_16 
ROOT
HETATM    1  N           1     -21.547  -4.357  -9.578  0.00  0.00    -0.336 N 
HETATM    2  C           1     -20.553  -4.792 -10.555  0.00  0.00     0.127 C 
HETATM    3  C           1     -20.368  -3.578 -11.449  0.00  0.00     0.022 C 
HETATM    4  C           1     -21.658  -2.780 -11.309  0.00  0.00     0.038 C 
HETATM    5  C           1     -21.565  -4.619  -8.234  0.00  0.00     0.253 C 
HETATM    6  C           1     -22.517  -3.583 -10.346  0.00  0.00     0.188 C 
HETATM    7  O           1     -22.462  -4.188  -7.547  0.00  0.00    -0.271 OA
ENDROOT
BRANCH   5   8
HETATM    8  C           1     -20.467  -5.445  -7.611  0.00  0.00     0.298 C 
BRANCH   8   9
HETATM    9  N           1     -19.374  -4.539  -7.129  0.00  0.00    -0.064 N 
HETATM   10  H           1     -18.446  -4.944  -7.387  0.00  0.00     0.275 HD
HETATM   11  H           1     -19.478  -3.599  -7.574  0.00  0.00     0.275 HD
HETATM   12  H           1     -19.436  -4.441  -6.091  0.00  0.00     0.275 HD
ENDBRANCH   8   9
BRANCH   8  13
HETATM   13  C           1     -21.029  -6.232  -6.434  0.00  0.00     0.206 C 
BRANCH  13  14
HETATM   14  O           1     -21.015  -5.429  -5.285  0.00  0.00    -0.398 OA
ATOM     15  HO          1     -20.743  -5.948  -4.538  1.00  0.00     0.209 HD
ENDBRANCH  13  14
ENDBRANCH   8  13
ENDBRANCH   5   8
BRANCH   6  16
HETATM   16  C           1     -23.457  -4.494 -11.097  0.00  0.00     0.196 C 
HETATM   17  O           1     -23.687  -4.292 -12.309  0.00  0.00    -0.646 OA
HETATM   18  O           1     -24.006  -5.449 -10.509  0.00  0.00    -0.646 OA
ENDBRANCH   6  16
TORSDOF 5
ENDMDL
MODEL 8
REMARK VINA RESULT:      -5.4     15.272     16.956
REMARK  5 active torsions:
REMARK  status: ('A' for Active; 'I' for Inactive)
REMARK       I    between atoms: N_2  and  C_12 
REMARK    1  A    between atoms: O_6  and  C_15 
REMARK    2  A    between atoms: C_9  and  C_14 
REMARK    3  A    between atoms: N_11  and  C_16 
REMARK    4  A    between atoms: C_12  and  C_16 
REMARK    5  A    between atoms: C_15  and  C_16 
ROOT
HETATM    1  N           1     -12.453   5.478 -20.854  0.00  0.00    -0.336 N 
HETATM    2  C           1     -12.627   5.839 -22.258  0.00  0.00     0.127 C 
HETATM    3  C           1     -14.135   5.881 -22.438  0.00  0.00     0.022 C 
HETATM    4  C           1     -14.692   4.981 -21.341  0.00  0.00     0.038 C 
HETATM    5  C           1     -11.534   5.980 -19.972  0.00  0.00     0.253 C 
HETATM    6  C           1     -13.472   4.465 -20.595  0.00  0.00     0.188 C 
HETATM    7  O           1     -11.510   5.581 -18.832  0.00  0.00    -0.271 OA
ENDROOT
BRANCH   5   8
HETATM    8  C           1     -10.551   7.032 -20.424  0.00  0.00     0.298 C 
BRANCH   8   9
HETATM    9  N           1     -10.443   8.097 -19.374  0.00  0.00    -0.064 N 
HETATM   10  H           1     -10.435   7.655 -18.428  0.00  0.00     0.275 HD
HETATM   11  H           1      -9.557   8.636 -19.513  0.00  0.00     0.275 HD
HETATM   12  H           1     -11.259   8.745 -19.451  0.00  0.00     0.275 HD
ENDBRANCH   8   9
BRANCH   8  13
HETATM   13  C           1      -9.185   6.392 -20.639  0.00  0.00     0.206 C 
BRANCH  13  14
HETATM   14  O           1      -8.789   5.730 -19.468  0.00  0.00    -0.398 OA
ATOM     15  HO          1      -9.389   5.015 -19.290  1.00  0.00     0.209 HD
ENDBRANCH  13  14
ENDBRANCH   8  13
ENDBRANCH   5   8
BRANCH   6  16
HETATM   16  C           1     -13.043   3.122 -21.133  0.00  0.00     0.196 C 
HETATM   17  O           1     -11.908   2.674 -20.860  0.00  0.00    -0.646 OA
HETATM   18  O           1     -13.820   2.459 -21.851  0.00  0.00    -0.646 OA
ENDBRANCH   6  16
TORSDOF 5
ENDMDL
MODEL 9
REMARK VINA RESULT:      -5.4      3.377      6.182
REMARK  5 active torsions:
REMARK  status: ('A' for Active; 'I' for Inactive)
REMARK       I    between atoms: N_2  and  C_12 
REMARK    1  A    between atoms: O_6  and  C_15 
REMARK    2  A    between atoms: C_9  and  C_14 
REMARK    3  A    between atoms: N_11  and  C_16 
REMARK    4  A    between atoms: C_12  and  C_16 
REMARK    5  A    between atoms: C_15  and  C_16 
ROOT
HETATM    1  N           1     -22.149  -4.259  -9.294  0.00  0.00    -0.336 N 
HETATM    2  C           1     -23.412  -3.573  -9.037  0.00  0.00     0.127 C 
HETATM    3  C           1     -24.402  -4.282  -9.946  0.00  0.00     0.022 C 
HETATM    4  C           1     -23.557  -4.883 -11.063  0.00  0.00     0.038 C 
HETATM    5  C           1     -21.193  -4.616  -8.382  0.00  0.00     0.253 C 
HETATM    6  C           1     -22.128  -4.481 -10.738  0.00  0.00     0.188 C 
HETATM    7  O           1     -20.191  -5.183  -8.748  0.00  0.00    -0.271 OA
ENDROOT
BRANCH   5   8
HETATM    8  C           1     -21.391  -4.300  -6.920  0.00  0.00     0.298 C 
BRANCH   8   9
HETATM    9  N           1     -22.526  -5.119  -6.382  0.00  0.00    -0.064 N 
HETATM   10  H           1     -22.710  -5.923  -7.023  0.00  0.00     0.275 HD
HETATM   11  H           1     -22.278  -5.480  -5.433  0.00  0.00     0.275 HD
HETATM   12  H           1     -23.382  -4.523  -6.313  0.00  0.00     0.275 HD
ENDBRANCH   8   9
BRANCH   8  13
HETATM   13  C           1     -20.118  -4.633  -6.151  0.00  0.00     0.206 C 
BRANCH  13  14
HETATM   14  O           1     -20.056  -6.015  -5.924  0.00  0.00    -0.398 OA
ATOM     15  HO          1     -19.165  -6.261  -5.706  1.00  0.00     0.209 HD
ENDBRANCH  13  14
ENDBRANCH   8  13
ENDBRANCH   5   8
BRANCH   6  16
HETATM   16  C           1     -21.746  -3.218 -11.469  0.00  0.00     0.196 C 
HETATM   17  O           1     -22.561  -2.676 -12.247  0.00  0.00    -0.646 OA
HETATM   18  O           1     -20.616  -2.714 -11.299  0.00  0.00    -0.646 OA
ENDBRANCH   6  16
TORSDOF 5
ENDMDL
