MODEL 1
REMARK VINA RESULT:      -7.1      0.000      0.000
REMARK  8 active torsions:
REMARK  status: ('A' for Active; 'I' for Inactive)
REMARK    1  A    between atoms: C_2  and  C_3 
REMARK    2  A    between atoms: C_2  and  C_10 
REMARK    3  A    between atoms: C_2  and  N_20 
REMARK       I    between atoms: C_3  and  N_18 
REMARK    4  A    between atoms: C_8  and  C_11 
REMARK    5  A    between atoms: C_10  and  C_21 
REMARK    6  A    between atoms: C_11  and  C_12 
REMARK    7  A    between atoms: C_11  and  N_18 
REMARK    8  A    between atoms: C_12  and  C_17 
ROOT
HETATM    1  C           1     -34.120  -3.924 -12.629  0.00  0.00     0.278 C 
ENDROOT
BRANCH   1   2
HETATM    2  C           1     -34.306  -2.461 -12.307  0.00  0.00     0.249 C 
HETATM    3  O           1     -33.842  -2.004 -11.289  0.00  0.00    -0.271 OA
HETATM    4  N           1     -34.998  -1.654 -13.169  0.00  0.00    -0.344 N 
HETATM    5  H           1     -35.386  -2.037 -14.020  0.00  0.00     0.163 HD
BRANCH   4   6
HETATM    6  C           1     -35.176  -0.248 -12.859  0.00  0.00     0.195 C 
BRANCH   6   7
HETATM    7  C           1     -36.348  -0.085 -11.921  0.00  0.00     0.197 C 
HETATM    8  O           1     -37.478  -0.505 -12.254  0.00  0.00    -0.646 OA
HETATM    9  O           1     -36.189   0.471 -10.813  0.00  0.00    -0.646 OA
ENDBRANCH   6   7
BRANCH   6  10
HETATM   10  C           1     -35.444   0.526 -14.143  0.00  0.00     0.149 C 
BRANCH  10  11
HETATM   11  C           1     -35.735  -0.442 -15.262  0.00  0.00     0.175 C 
HETATM   12  O           1     -36.913  -0.795 -15.494  0.00  0.00    -0.648 OA
HETATM   13  O           1     -34.801  -0.892 -15.960  0.00  0.00    -0.648 OA
ENDBRANCH  10  11
ENDBRANCH   6  10
ENDBRANCH   4   6
ENDBRANCH   1   2
BRANCH   1  14
HETATM   14  C           1     -33.044  -4.511 -11.726  0.00  0.00     0.081 C 
BRANCH  14  15
HETATM   15  C           1     -33.598  -5.692 -10.990  0.00  0.00    -0.056 A 
HETATM   16  C           1     -32.887  -6.891 -10.961  0.00  0.00     0.007 A 
HETATM   17  C           1     -33.402  -7.990 -10.276  0.00  0.00     0.001 A 
HETATM   18  C           1     -34.629  -7.891  -9.620  0.00  0.00     0.000 A 
HETATM   19  C           1     -35.340  -6.691  -9.649  0.00  0.00     0.001 A 
HETATM   20  C           1     -34.825  -5.591 -10.334  0.00  0.00     0.007 A 
ENDBRANCH  14  15
ENDBRANCH   1  14
BRANCH   1  21
HETATM   21  N           1     -33.704  -4.071 -14.063  0.00  0.00    -0.066 N 
HETATM   22  H           1     -32.745  -3.675 -14.189  0.00  0.00     0.275 HD
HETATM   23  H           1     -34.376  -3.557 -14.676  0.00  0.00     0.275 HD
HETATM   24  H           1     -33.700  -5.083 -14.322  0.00  0.00     0.275 HD
ENDBRANCH   1  21
TORSDOF 8
ENDMDL
MODEL 2
REMARK VINA RESULT:      -7.0     12.621     14.342
REMARK  8 active torsions:
REMARK  status: ('A' for Active; 'I' for Inactive)
REMARK    1  A    between atoms: C_2  and  C_3 
REMARK    2  A    between atoms: C_2  and  C_10 
REMARK    3  A    between atoms: C_2  and  N_20 
REMARK       I    between atoms: C_3  and  N_18 
REMARK    4  A    between atoms: C_8  and  C_11 
REMARK    5  A    between atoms: C_10  and  C_21 
REMARK    6  A    between atoms: C_11  and  C_12 
REMARK    7  A    between atoms: C_11  and  N_18 
REMARK    8  A    between atoms: C_12  and  C_17 
ROOT
HETATM    1  C           1     -21.117  -5.709  -6.879  0.00  0.00     0.278 C 
ENDROOT
BRANCH   1   2
HETATM    2  C           1     -21.689  -4.571  -7.687  0.00  0.00     0.249 C 
HETATM    3  O           1     -21.644  -3.443  -7.258  0.00  0.00    -0.271 OA
HETATM    4  N           1     -22.258  -4.817  -8.908  0.00  0.00    -0.344 N 
HETATM    5  H           1     -22.296  -5.762  -9.267  0.00  0.00     0.163 HD
BRANCH   4   6
HETATM    6  C           1     -22.808  -3.724  -9.684  0.00  0.00     0.195 C 
BRANCH   6   7
HETATM    7  C           1     -24.314  -3.829  -9.705  0.00  0.00     0.197 C 
HETATM    8  O           1     -25.014  -2.802  -9.573  0.00  0.00    -0.646 OA
HETATM    9  O           1     -24.861  -4.943  -9.852  0.00  0.00    -0.646 OA
ENDBRANCH   6   7
BRANCH   6  10
HETATM   10  C           1     -22.277  -3.795 -11.110  0.00  0.00     0.149 C 
BRANCH  10  11
HETATM   11  C           1     -20.772  -3.685 -11.092  0.00  0.00     0.175 C 
HETATM   12  O           1     -20.075  -4.695 -10.855  0.00  0.00    -0.648 OA
HETATM   13  O           1     -20.222  -2.584 -11.315  0.00  0.00    -0.648 OA
ENDBRANCH  10  11
ENDBRANCH   6  10
ENDBRANCH   4   6
ENDBRANCH   1   2
BRANCH   1  14
HETATM   14  C           1     -20.863  -5.241  -5.451  0.00  0.00     0.081 C 
BRANCH  14  15
HETATM   15  C           1     -21.132  -6.367  -4.501  0.00  0.00    -0.056 A 
HETATM   16  C           1     -21.308  -6.104  -3.143  0.00  0.00     0.007 A 
HETATM   17  C           1     -21.559  -7.152  -2.257  0.00  0.00     0.001 A 
HETATM   18  C           1     -21.633  -8.462  -2.730  0.00  0.00     0.000 A 
HETATM   19  C           1     -21.457  -8.724  -4.089  0.00  0.00     0.001 A 
HETATM   20  C           1     -21.206  -7.676  -4.975  0.00  0.00     0.007 A 
ENDBRANCH  14  15
ENDBRANCH   1  14
BRANCH   1  21
HETATM   21  N           1     -19.825  -6.159  -7.494  0.00  0.00    -0.066 N 
HETATM   22  H           1     -19.030  -5.880  -6.876  0.00  0.00     0.275 HD
HETATM   23  H           1     -19.710  -5.712  -8.432  0.00  0.00     0.275 HD
HETATM   24  H           1     -19.834  -7.198  -7.602  0.00  0.00     0.275 HD
ENDBRANCH   1  21
TORSDOF 8
ENDMDL
MODEL 3
REMARK VINA RESULT:      -7.0     14.053     16.454
REMARK  8 active torsions:
REMARK  status: ('A' for Active; 'I' for Inactive)
REMARK    1  A    between atoms: C_2  and  C_3 
REMARK    2  A    between atoms: C_2  and  C_10 
REMARK    3  A    between atoms: C_2  and  N_20 
REMARK       I    between atoms: C_3  and  N_18 
REMARK    4  A    between atoms: C_8  and  C_11 
REMARK    5  A    between atoms: C_10  and  C_21 
REMARK    6  A    between atoms: C_11  and  C_12 
REMARK    7  A    between atoms: C_11  and  N_18 
REMARK    8  A    between atoms: C_12  and  C_17 
ROOT
HETATM    1  C           1     -22.227  -5.145  -6.804  0.00  0.00     0.278 C 
ENDROOT
BRANCH   1   2
HETATM    2  C           1     -21.372  -5.629  -5.659  0.00  0.00     0.249 C 
HETATM    3  O           1     -20.431  -4.968  -5.287  0.00  0.00    -0.271 OA
HETATM    4  N           1     -21.663  -6.815  -5.041  0.00  0.00    -0.344 N 
HETATM    5  H           1     -22.451  -7.367  -5.352  0.00  0.00     0.163 HD
BRANCH   4   6
HETATM    6  C           1     -20.841  -7.279  -3.941  0.00  0.00     0.195 C 
BRANCH   6   7
HETATM    7  C           1     -19.946  -8.396  -4.419  0.00  0.00     0.197 C 
HETATM    8  O           1     -20.085  -8.859  -5.573  0.00  0.00    -0.646 OA
HETATM    9  O           1     -19.066  -8.859  -3.662  0.00  0.00    -0.646 OA
ENDBRANCH   6   7
BRANCH   6  10
HETATM   10  C           1     -21.735  -7.793  -2.819  0.00  0.00     0.149 C 
BRANCH  10  11
HETATM   11  C           1     -22.121  -6.646  -1.918  0.00  0.00     0.175 C 
HETATM   12  O           1     -21.865  -5.470  -2.259  0.00  0.00    -0.648 OA
HETATM   13  O           1     -22.696  -6.870  -0.831  0.00  0.00    -0.648 OA
ENDBRANCH  10  11
ENDBRANCH   6  10
ENDBRANCH   4   6
ENDBRANCH   1   2
BRANCH   1  14
HETATM   14  C           1     -21.650  -3.848  -7.357  0.00  0.00     0.081 C 
BRANCH  14  15
HETATM   15  C           1     -21.608  -3.917  -8.853  0.00  0.00    -0.056 A 
HETATM   16  C           1     -20.407  -4.200  -9.503  0.00  0.00     0.007 A 
HETATM   17  C           1     -20.367  -4.264 -10.895  0.00  0.00     0.001 A 
HETATM   18  C           1     -21.528  -4.046 -11.637  0.00  0.00     0.000 A 
HETATM   19  C           1     -22.729  -3.763 -10.986  0.00  0.00     0.001 A 
HETATM   20  C           1     -22.769  -3.699  -9.594  0.00  0.00     0.007 A 
ENDBRANCH  14  15
ENDBRANCH   1  14
BRANCH   1  21
HETATM   21  N           1     -23.625  -4.901  -6.316  0.00  0.00    -0.066 N 
HETATM   22  H           1     -24.268  -4.814  -7.134  0.00  0.00     0.275 HD
HETATM   23  H           1     -23.650  -4.019  -5.756  0.00  0.00     0.275 HD
HETATM   24  H           1     -23.928  -5.702  -5.718  0.00  0.00     0.275 HD
ENDBRANCH   1  21
TORSDOF 8
ENDMDL
MODEL 4
REMARK VINA RESULT:      -6.8     12.713     14.419
REMARK  8 active torsions:
REMARK  status: ('A' for Active; 'I' for Inactive)
REMARK    1  A    between atoms: C_2  and  C_3 
REMARK    2  A    between atoms: C_2  and  C_10 
REMARK    3  A    between atoms: C_2  and  N_20 
REMARK       I    between atoms: C_3  and  N_18 
REMARK    4  A    between atoms: C_8  and  C_11 
REMARK    5  A    between atoms: C_10  and  C_21 
REMARK    6  A    between atoms: C_11  and  C_12 
REMARK    7  A    between atoms: C_11  and  N_18 
REMARK    8  A    between atoms: C_12  and  C_17 
ROOT
HETATM    1  C           1     -21.103  -5.430  -6.534  0.00  0.00     0.278 C 
ENDROOT
BRANCH   1   2
HETATM    2  C           1     -21.623  -4.407  -7.513  0.00  0.00     0.249 C 
HETATM    3  O           1     -21.497  -3.228  -7.279  0.00  0.00    -0.271 OA
HETATM    4  N           1     -22.237  -4.814  -8.667  0.00  0.00    -0.344 N 
HETATM    5  H           1     -22.343  -5.800  -8.863  0.00  0.00     0.163 HD
BRANCH   4   6
HETATM    6  C           1     -22.738  -3.830  -9.607  0.00  0.00     0.195 C 
BRANCH   6   7
HETATM    7  C           1     -24.246  -3.887  -9.641  0.00  0.00     0.197 C 
HETATM    8  O           1     -24.825  -4.980  -9.828  0.00  0.00    -0.646 OA
HETATM    9  O           1     -24.914  -2.844  -9.483  0.00  0.00    -0.646 OA
ENDBRANCH   6   7
BRANCH   6  10
HETATM   10  C           1     -22.189  -4.129 -10.996  0.00  0.00     0.149 C 
BRANCH  10  11
HETATM   11  C           1     -20.699  -3.889 -11.011  0.00  0.00     0.175 C 
HETATM   12  O           1     -20.249  -2.768 -11.334  0.00  0.00    -0.648 OA
HETATM   13  O           1     -19.914  -4.811 -10.699  0.00  0.00    -0.648 OA
ENDBRANCH  10  11
ENDBRANCH   6  10
ENDBRANCH   4   6
ENDBRANCH   1   2
BRANCH   1  14
HETATM   14  C           1     -22.241  -5.903  -5.639  0.00  0.00     0.081 C 
BRANCH  14  15
HETATM   15  C           1     -21.692  -6.774  -4.551  0.00  0.00    -0.056 A 
HETATM   16  C           1     -21.104  -7.997  -4.868  0.00  0.00     0.007 A 
HETATM   17  C           1     -20.593  -8.808  -3.855  0.00  0.00     0.001 A 
HETATM   18  C           1     -20.672  -8.396  -2.525  0.00  0.00     0.000 A 
HETATM   19  C           1     -21.261  -7.172  -2.208  0.00  0.00     0.001 A 
HETATM   20  C           1     -21.772  -6.361  -3.221  0.00  0.00     0.007 A 
ENDBRANCH  14  15
ENDBRANCH   1  14
BRANCH   1  21
HETATM   21  N           1     -20.027  -4.813  -5.691  0.00  0.00    -0.066 N 
HETATM   22  H           1     -19.603  -4.007  -6.203  0.00  0.00     0.275 HD
HETATM   23  H           1     -19.289  -5.525  -5.490  0.00  0.00     0.275 HD
HETATM   24  H           1     -20.440  -4.476  -4.792  0.00  0.00     0.275 HD
ENDBRANCH   1  21
TORSDOF 8
ENDMDL
MODEL 5
REMARK VINA RESULT:      -6.6     13.858     16.507
REMARK  8 active torsions:
REMARK  status: ('A' for Active; 'I' for Inactive)
REMARK    1  A    between atoms: C_2  and  C_3 
REMARK    2  A    between atoms: C_2  and  C_10 
REMARK    3  A    between atoms: C_2  and  N_20 
REMARK       I    between atoms: C_3  and  N_18 
REMARK    4  A    between atoms: C_8  and  C_11 
REMARK    5  A    between atoms: C_10  and  C_21 
REMARK    6  A    between atoms: C_11  and  C_12 
REMARK    7  A    between atoms: C_11  and  N_18 
REMARK    8  A    between atoms: C_12  and  C_17 
ROOT
HETATM    1  C           1     -20.857  -4.877  -6.496  0.00  0.00     0.278 C 
ENDROOT
BRANCH   1   2
HETATM    2  C           1     -21.600  -5.798  -5.560  0.00  0.00     0.249 C 
HETATM    3  O           1     -22.808  -5.810  -5.558  0.00  0.00    -0.271 OA
HETATM    4  N           1     -20.905  -6.620  -4.715  0.00  0.00    -0.344 N 
HETATM    5  H           1     -19.894  -6.610  -4.717  0.00  0.00     0.163 HD
BRANCH   4   6
HETATM    6  C           1     -21.620  -7.505  -3.815  0.00  0.00     0.195 C 
BRANCH   6   7
HETATM    7  C           1     -21.621  -6.915  -2.426  0.00  0.00     0.197 C 
HETATM    8  O           1     -20.912  -7.424  -1.530  0.00  0.00    -0.646 OA
HETATM    9  O           1     -22.332  -5.919  -2.170  0.00  0.00    -0.646 OA
ENDBRANCH   6   7
BRANCH   6  10
HETATM   10  C           1     -20.933  -8.865  -3.786  0.00  0.00     0.149 C 
BRANCH  10  11
HETATM   11  C           1     -20.394  -9.185  -5.159  0.00  0.00     0.175 C 
HETATM   12  O           1     -19.195  -8.957  -5.429  0.00  0.00    -0.648 OA
HETATM   13  O           1     -21.147  -9.678  -6.027  0.00  0.00    -0.648 OA
ENDBRANCH  10  11
ENDBRANCH   6  10
ENDBRANCH   4   6
ENDBRANCH   1   2
BRANCH   1  14
HETATM   14  C           1     -20.580  -5.601  -7.808  0.00  0.00     0.081 C 
BRANCH  14  15
HETATM   15  C           1     -21.090  -4.778  -8.951  0.00  0.00    -0.056 A 
HETATM   16  C           1     -22.407  -4.322  -8.948  0.00  0.00     0.007 A 
HETATM   17  C           1     -22.882  -3.556 -10.012  0.00  0.00     0.001 A 
HETATM   18  C           1     -22.038  -3.246 -11.079  0.00  0.00     0.000 A 
HETATM   19  C           1     -20.720  -3.702 -11.081  0.00  0.00     0.001 A 
HETATM   20  C           1     -20.245  -4.468 -10.017  0.00  0.00     0.007 A 
ENDBRANCH  14  15
ENDBRANCH   1  14
BRANCH   1  21
HETATM   21  N           1     -19.558  -4.467  -5.868  0.00  0.00    -0.066 N 
HETATM   22  H           1     -19.238  -3.566  -6.290  0.00  0.00     0.275 HD
HETATM   23  H           1     -18.840  -5.206  -6.038  0.00  0.00     0.275 HD
HETATM   24  H           1     -19.694  -4.342  -4.840  0.00  0.00     0.275 HD
ENDBRANCH   1  21
TORSDOF 8
ENDMDL
MODEL 6
REMARK VINA RESULT:      -6.4     14.905     17.339
REMARK  8 active torsions:
REMARK  status: ('A' for Active; 'I' for Inactive)
REMARK    1  A    between atoms: C_2  and  C_3 
REMARK    2  A    between atoms: C_2  and  C_10 
REMARK    3  A    between atoms: C_2  and  N_20 
REMARK       I    between atoms: C_3  and  N_18 
REMARK    4  A    between atoms: C_8  and  C_11 
REMARK    5  A    between atoms: C_10  and  C_21 
REMARK    6  A    between atoms: C_11  and  C_12 
REMARK    7  A    between atoms: C_11  and  N_18 
REMARK    8  A    between atoms: C_12  and  C_17 
ROOT
HETATM    1  C           1     -21.673  -6.545  -5.470  0.00  0.00     0.278 C 
ENDROOT
BRANCH   1   2
HETATM    2  C           1     -20.930  -7.444  -4.513  0.00  0.00     0.249 C 
HETATM    3  O           1     -19.830  -7.855  -4.801  0.00  0.00    -0.271 OA
HETATM    4  N           1     -21.501  -7.793  -3.319  0.00  0.00    -0.344 N 
HETATM    5  H           1     -22.421  -7.449  -3.078  0.00  0.00     0.163 HD
BRANCH   4   6
HETATM    6  C           1     -20.786  -8.656  -2.399  0.00  0.00     0.195 C 
BRANCH   6   7
HETATM    7  C           1     -21.449 -10.012  -2.364  0.00  0.00     0.197 C 
HETATM    8  O           1     -21.077 -10.868  -1.533  0.00  0.00    -0.646 OA
HETATM    9  O           1     -22.369 -10.279  -3.167  0.00  0.00    -0.646 OA
ENDBRANCH   6   7
BRANCH   6  10
HETATM   10  C           1     -20.810  -8.045  -1.004  0.00  0.00     0.149 C 
BRANCH  10  11
HETATM   11  C           1     -22.204  -7.559  -0.692  0.00  0.00     0.175 C 
HETATM   12  O           1     -22.590  -6.449  -1.119  0.00  0.00    -0.648 OA
HETATM   13  O           1     -22.975  -8.266  -0.006  0.00  0.00    -0.648 OA
ENDBRANCH  10  11
ENDBRANCH   6  10
ENDBRANCH   4   6
ENDBRANCH   1   2
BRANCH   1  14
HETATM   14  C           1     -20.868  -5.273  -5.702  0.00  0.00     0.081 C 
BRANCH  14  15
HETATM   15  C           1     -21.020  -4.837  -7.127  0.00  0.00    -0.056 A 
HETATM   16  C           1     -22.187  -4.196  -7.539  0.00  0.00     0.007 A 
HETATM   17  C           1     -22.328  -3.791  -8.865  0.00  0.00     0.001 A 
HETATM   18  C           1     -21.302  -4.028  -9.780  0.00  0.00     0.000 A 
HETATM   19  C           1     -20.134  -4.669  -9.367  0.00  0.00     0.001 A 
HETATM   20  C           1     -19.993  -5.075  -8.041  0.00  0.00     0.007 A 
ENDBRANCH  14  15
ENDBRANCH   1  14
BRANCH   1  21
HETATM   21  N           1     -23.010  -6.192  -4.888  0.00  0.00    -0.066 N 
HETATM   22  H           1     -22.896  -5.409  -4.206  0.00  0.00     0.275 HD
HETATM   23  H           1     -23.409  -7.025  -4.400  0.00  0.00     0.275 HD
HETATM   24  H           1     -23.655  -5.895  -5.655  0.00  0.00     0.275 HD
ENDBRANCH   1  21
TORSDOF 8
ENDMDL
MODEL 7
REMARK VINA RESULT:      -6.4     13.607     16.176
REMARK  8 active torsions:
REMARK  status: ('A' for Active; 'I' for Inactive)
REMARK    1  A    between atoms: C_2  and  C_3 
REMARK    2  A    between atoms: C_2  and  C_10 
REMARK    3  A    between atoms: C_2  and  N_20 
REMARK       I    between atoms: C_3  and  N_18 
REMARK    4  A    between atoms: C_8  and  C_11 
REMARK    5  A    between atoms: C_10  and  C_21 
REMARK    6  A    between atoms: C_11  and  C_12 
REMARK    7  A    between atoms: C_11  and  N_18 
REMARK    8  A    between atoms: C_12  and  C_17 
ROOT
HETATM    1  C           1     -20.765  -4.248  -7.588  0.00  0.00     0.278 C 
ENDROOT
BRANCH   1   2
HETATM    2  C           1     -20.567  -4.984  -6.286  0.00  0.00     0.249 C 
HETATM    3  O           1     -20.110  -4.405  -5.329  0.00  0.00    -0.271 OA
HETATM    4  N           1     -20.908  -6.306  -6.188  0.00  0.00    -0.344 N 
HETATM    5  H           1     -21.291  -6.790  -6.989  0.00  0.00     0.163 HD
BRANCH   4   6
HETATM    6  C           1     -20.718  -7.012  -4.937  0.00  0.00     0.195 C 
BRANCH   6   7
HETATM    7  C           1     -20.265  -8.424  -5.220  0.00  0.00     0.197 C 
HETATM    8  O           1     -19.132  -8.632  -5.705  0.00  0.00    -0.646 OA
HETATM    9  O           1     -21.024  -9.385  -4.970  0.00  0.00    -0.646 OA
ENDBRANCH   6   7
BRANCH   6  10
HETATM   10  C           1     -22.033  -7.047  -4.167  0.00  0.00     0.149 C 
BRANCH  10  11
HETATM   11  C           1     -21.780  -6.688  -2.724  0.00  0.00     0.175 C 
HETATM   12  O           1     -22.522  -5.864  -2.146  0.00  0.00    -0.648 OA
HETATM   13  O           1     -20.830  -7.215  -2.105  0.00  0.00    -0.648 OA
ENDBRANCH  10  11
ENDBRANCH   6  10
ENDBRANCH   4   6
ENDBRANCH   1   2
BRANCH   1  14
HETATM   14  C           1     -21.334  -5.202  -8.630  0.00  0.00     0.081 C 
BRANCH  14  15
HETATM   15  C           1     -22.148  -4.431  -9.623  0.00  0.00    -0.056 A 
HETATM   16  C           1     -23.465  -4.084  -9.325  0.00  0.00     0.007 A 
HETATM   17  C           1     -24.223  -3.366 -10.249  0.00  0.00     0.001 A 
HETATM   18  C           1     -23.665  -2.995 -11.472  0.00  0.00     0.000 A 
HETATM   19  C           1     -22.346  -3.342 -11.770  0.00  0.00     0.001 A 
HETATM   20  C           1     -21.588  -4.060 -10.846  0.00  0.00     0.007 A 
ENDBRANCH  14  15
ENDBRANCH   1  14
BRANCH   1  21
HETATM   21  N           1     -19.447  -3.715  -8.066  0.00  0.00    -0.066 N 
HETATM   22  H           1     -18.725  -3.856  -7.324  0.00  0.00     0.275 HD
HETATM   23  H           1     -19.537  -2.696  -8.275  0.00  0.00     0.275 HD
HETATM   24  H           1     -19.160  -4.224  -8.933  0.00  0.00     0.275 HD
ENDBRANCH   1  21
TORSDOF 8
ENDMDL
MODEL 8
REMARK VINA RESULT:      -6.3     12.287     14.076
REMARK  8 active torsions:
REMARK  status: ('A' for Active; 'I' for Inactive)
REMARK    1  A    between atoms: C_2  and  C_3 
REMARK    2  A    between atoms: C_2  and  C_10 
REMARK    3  A    between atoms: C_2  and  N_20 
REMARK       I    between atoms: C_3  and  N_18 
REMARK    4  A    between atoms: C_8  and  C_11 
REMARK    5  A    between atoms: C_10  and  C_21 
REMARK    6  A    between atoms: C_11  and  C_12 
REMARK    7  A    between atoms: C_11  and  N_18 
REMARK    8  A    between atoms: C_12  and  C_17 
ROOT
HETATM    1  C           1     -19.834  -4.527  -8.246  0.00  0.00     0.278 C 
ENDROOT
BRANCH   1   2
HETATM    2  C           1     -20.386  -4.715  -9.638  0.00  0.00     0.249 C 
HETATM    3  O           1     -19.696  -5.207 -10.499  0.00  0.00    -0.271 OA
HETATM    4  N           1     -21.668  -4.329  -9.924  0.00  0.00    -0.344 N 
HETATM    5  H           1     -22.245  -3.917  -9.202  0.00  0.00     0.163 HD
BRANCH   4   6
HETATM    6  C           1     -22.198  -4.510 -11.261  0.00  0.00     0.195 C 
BRANCH   6   7
HETATM    7  C           1     -22.084  -3.214 -12.027  0.00  0.00     0.197 C 
HETATM    8  O           1     -22.643  -3.094 -13.138  0.00  0.00    -0.646 OA
HETATM    9  O           1     -21.429  -2.263 -11.550  0.00  0.00    -0.646 OA
ENDBRANCH   6   7
BRANCH   6  10
HETATM   10  C           1     -23.663  -4.921 -11.177  0.00  0.00     0.149 C 
BRANCH  10  11
HETATM   11  C           1     -24.382  -4.021 -10.203  0.00  0.00     0.175 C 
HETATM   12  O           1     -25.165  -3.142 -10.626  0.00  0.00    -0.648 OA
HETATM   13  O           1     -24.196  -4.153  -8.974  0.00  0.00    -0.648 OA
ENDBRANCH  10  11
ENDBRANCH   6  10
ENDBRANCH   4   6
ENDBRANCH   1   2
BRANCH   1  14
HETATM   14  C           1     -20.984  -4.358  -7.262  0.00  0.00     0.081 C 
BRANCH  14  15
HETATM   15  C           1     -21.063  -5.561  -6.373  0.00  0.00    -0.056 A 
HETATM   16  C           1     -22.231  -5.824  -5.659  0.00  0.00     0.007 A 
HETATM   17  C           1     -22.305  -6.944  -4.831  0.00  0.00     0.001 A 
HETATM   18  C           1     -21.209  -7.800  -4.717  0.00  0.00     0.000 A 
HETATM   19  C           1     -20.041  -7.537  -5.432  0.00  0.00     0.001 A 
HETATM   20  C           1     -19.967  -6.417  -6.260  0.00  0.00     0.007 A 
ENDBRANCH  14  15
ENDBRANCH   1  14
BRANCH   1  21
HETATM   21  N           1     -18.965  -3.305  -8.214  0.00  0.00    -0.066 N 
HETATM   22  H           1     -19.463  -2.512  -8.678  0.00  0.00     0.275 HD
HETATM   23  H           1     -18.072  -3.499  -8.719  0.00  0.00     0.275 HD
HETATM   24  H           1     -18.757  -3.053  -7.222  0.00  0.00     0.275 HD
ENDBRANCH   1  21
TORSDOF 8
ENDMDL
MODEL 9
REMARK VINA RESULT:      -6.2      4.610      6.288
REMARK  8 active torsions:
REMARK  status: ('A' for Active; 'I' for Inactive)
REMARK    1  A    between atoms: C_2  and  C_3 
REMARK    2  A    between atoms: C_2  and  C_10 
REMARK    3  A    between atoms: C_2  and  N_20 
REMARK       I    between atoms: C_3  and  N_18 
REMARK    4  A    between atoms: C_8  and  C_11 
REMARK    5  A    between atoms: C_10  and  C_21 
REMARK    6  A    between atoms: C_11  and  C_12 
REMARK    7  A    between atoms: C_11  and  N_18 
REMARK    8  A    between atoms: C_12  and  C_17 
ROOT
HETATM    1  C           1     -33.012  -4.534 -16.654  0.00  0.00     0.278 C 
ENDROOT
BRANCH   1   2
HETATM    2  C           1     -33.840  -4.502 -15.393  0.00  0.00     0.249 C 
HETATM    3  O           1     -34.978  -4.907 -15.408  0.00  0.00    -0.271 OA
HETATM    4  N           1     -33.301  -4.014 -14.233  0.00  0.00    -0.344 N 
HETATM    5  H           1     -32.348  -3.675 -14.221  0.00  0.00     0.163 HD
BRANCH   4   6
HETATM    6  C           1     -34.096  -3.984 -13.021  0.00  0.00     0.195 C 
BRANCH   6   7
HETATM    7  C           1     -34.626  -2.587 -12.803  0.00  0.00     0.197 C 
HETATM    8  O           1     -35.046  -1.919 -13.773  0.00  0.00    -0.646 OA
HETATM    9  O           1     -34.645  -2.099 -11.653  0.00  0.00    -0.646 OA
ENDBRANCH   6   7
BRANCH   6  10
HETATM   10  C           1     -33.231  -4.388 -11.834  0.00  0.00     0.149 C 
BRANCH  10  11
HETATM   11  C           1     -33.939  -5.456 -11.037  0.00  0.00     0.175 C 
HETATM   12  O           1     -33.399  -6.571 -10.869  0.00  0.00    -0.648 OA
HETATM   13  O           1     -35.065  -5.227 -10.545  0.00  0.00    -0.648 OA
ENDBRANCH  10  11
ENDBRANCH   6  10
ENDBRANCH   4   6
ENDBRANCH   1   2
BRANCH   1  14
HETATM   14  C           1     -31.541  -4.701 -16.293  0.00  0.00     0.081 C 
BRANCH  14  15
HETATM   15  C           1     -30.942  -5.788 -17.130  0.00  0.00    -0.056 A 
HETATM   16  C           1     -29.567  -5.811 -17.361  0.00  0.00     0.007 A 
HETATM   17  C           1     -29.008  -6.824 -18.141  0.00  0.00     0.001 A 
HETATM   18  C           1     -29.824  -7.812 -18.690  0.00  0.00     0.000 A 
HETATM   19  C           1     -31.200  -7.789 -18.458  0.00  0.00     0.001 A 
HETATM   20  C           1     -31.759  -6.777 -17.679  0.00  0.00     0.007 A 
ENDBRANCH  14  15
ENDBRANCH   1  14
BRANCH   1  21
HETATM   21  N           1     -33.198  -3.250 -17.407  0.00  0.00    -0.066 N 
HETATM   22  H           1     -34.214  -3.007 -17.433  0.00  0.00     0.275 HD
HETATM   23  H           1     -32.842  -3.363 -18.383  0.00  0.00     0.275 HD
HETATM   24  H           1     -32.669  -2.486 -16.929  0.00  0.00     0.275 HD
ENDBRANCH   1  21
TORSDOF 8
ENDMDL
