MODEL 1
REMARK VINA RESULT:      -5.5      0.000      0.000
REMARK  7 active torsions:
REMARK  status: ('A' for Active; 'I' for Inactive)
REMARK    1  A    between atoms: C_1  and  C_15 
REMARK    2  A    between atoms: C_1  and  C_8 
REMARK    3  A    between atoms: C_1  and  N_18 
REMARK    4  A    between atoms: C_2  and  C_9 
REMARK    5  A    between atoms: C_2  and  C_3 
REMARK    6  A    between atoms: C_2  and  N_5 
REMARK       I    between atoms: C_9  and  N_18 
REMARK    7  A    between atoms: C_15  and  S_17 
ROOT
HETATM    1  C           1     -21.952  -4.561  -8.044  0.00  0.00     0.249 C 
HETATM    2  H           1     -22.316  -5.608  -9.793  0.00  0.00     0.163 HD
HETATM    3  O           1     -22.018  -3.482  -7.504  0.00  0.00    -0.271 OA
HETATM    4  N           1     -22.371  -4.705  -9.340  0.00  0.00    -0.344 N 
ENDROOT
BRANCH   1   5
HETATM    5  C           1     -21.407  -5.750  -7.291  0.00  0.00     0.278 C 
BRANCH   5   6
HETATM    6  C           1     -21.546  -5.509  -5.794  0.00  0.00     0.017 C 
HETATM    7  C           1     -21.907  -6.815  -5.100  0.00  0.00     0.012 C 
HETATM    8  C           1     -20.226  -4.989  -5.240  0.00  0.00     0.012 C 
ENDBRANCH   5   6
BRANCH   5   9
HETATM    9  N           1     -19.959  -5.938  -7.635  0.00  0.00    -0.066 N 
HETATM   10  H           1     -19.369  -5.393  -6.967  0.00  0.00     0.275 HD
HETATM   11  H           1     -19.715  -6.952  -7.567  0.00  0.00     0.275 HD
HETATM   12  H           1     -19.786  -5.601  -8.609  0.00  0.00     0.275 HD
ENDBRANCH   5   9
ENDBRANCH   1   5
BRANCH   4  13
HETATM   13  C           1     -22.894  -3.562 -10.063  0.00  0.00     0.194 C 
BRANCH  13  14
HETATM   14  C           1     -22.100  -3.369 -11.349  0.00  0.00     0.106 C 
BRANCH  14  15
HETATM   15  S           1     -20.437  -4.065 -11.145  0.00  0.00    -0.180 SA
HETATM   16  H           1     -20.831  -5.191 -10.526  0.00  0.00     0.101 HD
ENDBRANCH  14  15
ENDBRANCH  13  14
BRANCH  13  17
HETATM   17  C           1     -24.345  -3.801 -10.398  0.00  0.00     0.197 C 
HETATM   18  O           1     -24.985  -4.697  -9.806  0.00  0.00    -0.646 OA
HETATM   19  O           1     -24.909  -3.102 -11.269  0.00  0.00    -0.646 OA
ENDBRANCH  13  17
ENDBRANCH   4  13
TORSDOF 7
ENDMDL
MODEL 2
REMARK VINA RESULT:      -5.1      2.955      5.608
REMARK  7 active torsions:
REMARK  status: ('A' for Active; 'I' for Inactive)
REMARK    1  A    between atoms: C_1  and  C_15 
REMARK    2  A    between atoms: C_1  and  C_8 
REMARK    3  A    between atoms: C_1  and  N_18 
REMARK    4  A    between atoms: C_2  and  C_9 
REMARK    5  A    between atoms: C_2  and  C_3 
REMARK    6  A    between atoms: C_2  and  N_5 
REMARK       I    between atoms: C_9  and  N_18 
REMARK    7  A    between atoms: C_15  and  S_17 
ROOT
HETATM    1  C           1     -22.359  -4.191  -8.011  0.00  0.00     0.249 C 
HETATM    2  H           1     -22.635  -6.222  -7.722  0.00  0.00     0.163 HD
HETATM    3  O           1     -21.848  -3.188  -7.571  0.00  0.00    -0.271 OA
HETATM    4  N           1     -22.207  -5.382  -7.354  0.00  0.00    -0.344 N 
ENDROOT
BRANCH   1   5
HETATM    5  C           1     -23.167  -4.129  -9.284  0.00  0.00     0.278 C 
BRANCH   5   6
HETATM    6  C           1     -22.362  -3.417 -10.363  0.00  0.00     0.017 C 
HETATM    7  C           1     -21.259  -4.338 -10.865  0.00  0.00     0.012 C 
HETATM    8  C           1     -23.281  -3.048 -11.520  0.00  0.00     0.012 C 
ENDBRANCH   5   6
BRANCH   5   9
HETATM    9  N           1     -24.440  -3.376  -9.032  0.00  0.00    -0.066 N 
HETATM   10  H           1     -25.220  -4.052  -8.874  0.00  0.00     0.275 HD
HETATM   11  H           1     -24.325  -2.774  -8.185  0.00  0.00     0.275 HD
HETATM   12  H           1     -24.660  -2.776  -9.859  0.00  0.00     0.275 HD
ENDBRANCH   5   9
ENDBRANCH   1   5
BRANCH   4  13
HETATM   13  C           1     -21.430  -5.440  -6.131  0.00  0.00     0.194 C 
BRANCH  13  14
HETATM   14  C           1     -21.981  -6.541  -5.232  0.00  0.00     0.106 C 
BRANCH  14  15
HETATM   15  S           1     -21.418  -6.270  -3.528  0.00  0.00    -0.180 SA
HETATM   16  H           1     -22.440  -5.475  -3.167  0.00  0.00     0.101 HD
ENDBRANCH  14  15
ENDBRANCH  13  14
BRANCH  13  17
HETATM   17  C           1     -19.989  -5.737  -6.464  0.00  0.00     0.197 C 
HETATM   18  O           1     -19.151  -4.810  -6.498  0.00  0.00    -0.646 OA
HETATM   19  O           1     -19.632  -6.911  -6.706  0.00  0.00    -0.646 OA
ENDBRANCH  13  17
ENDBRANCH   4  13
TORSDOF 7
ENDMDL
MODEL 3
REMARK VINA RESULT:      -5.0      3.789      5.175
REMARK  7 active torsions:
REMARK  status: ('A' for Active; 'I' for Inactive)
REMARK    1  A    between atoms: C_1  and  C_15 
REMARK    2  A    between atoms: C_1  and  C_8 
REMARK    3  A    between atoms: C_1  and  N_18 
REMARK    4  A    between atoms: C_2  and  C_9 
REMARK    5  A    between atoms: C_2  and  C_3 
REMARK    6  A    between atoms: C_2  and  N_5 
REMARK       I    between atoms: C_9  and  N_18 
REMARK    7  A    between atoms: C_15  and  S_17 
ROOT
HETATM    1  C           1     -21.464  -6.524  -4.271  0.00  0.00     0.249 C 
HETATM    2  H           1     -20.592  -4.659  -4.487  0.00  0.00     0.163 HD
HETATM    3  O           1     -21.972  -7.453  -4.853  0.00  0.00    -0.271 OA
HETATM    4  N           1     -21.018  -5.437  -4.974  0.00  0.00    -0.344 N 
ENDROOT
BRANCH   1   5
HETATM    5  C           1     -21.322  -6.562  -2.769  0.00  0.00     0.278 C 
BRANCH   5   6
HETATM    6  C           1     -21.368  -8.007  -2.291  0.00  0.00     0.017 C 
HETATM    7  C           1     -19.952  -8.560  -2.208  0.00  0.00     0.012 C 
HETATM    8  C           1     -22.016  -8.064  -0.914  0.00  0.00     0.012 C 
ENDBRANCH   5   6
BRANCH   5   9
HETATM    9  N           1     -22.446  -5.792  -2.142  0.00  0.00    -0.066 N 
HETATM   10  H           1     -22.222  -5.603  -1.139  0.00  0.00     0.275 HD
HETATM   11  H           1     -22.570  -4.885  -2.646  0.00  0.00     0.275 HD
HETATM   12  H           1     -23.327  -6.350  -2.204  0.00  0.00     0.275 HD
ENDBRANCH   5   9
ENDBRANCH   1   5
BRANCH   4  13
HETATM   13  C           1     -21.155  -5.402  -6.418  0.00  0.00     0.194 C 
BRANCH  13  14
HETATM   14  C           1     -21.642  -4.023  -6.847  0.00  0.00     0.106 C 
BRANCH  14  15
HETATM   15  S           1     -22.649  -4.177  -8.349  0.00  0.00    -0.180 SA
HETATM   16  H           1     -23.741  -4.667  -7.736  0.00  0.00     0.101 HD
ENDBRANCH  14  15
ENDBRANCH  13  14
BRANCH  13  17
HETATM   17  C           1     -19.819  -5.685  -7.057  0.00  0.00     0.197 C 
HETATM   18  O           1     -19.151  -4.751  -7.551  0.00  0.00    -0.646 OA
HETATM   19  O           1     -19.378  -6.855  -7.092  0.00  0.00    -0.646 OA
ENDBRANCH  13  17
ENDBRANCH   4  13
TORSDOF 7
ENDMDL
MODEL 4
REMARK VINA RESULT:      -4.9      2.310      2.786
REMARK  7 active torsions:
REMARK  status: ('A' for Active; 'I' for Inactive)
REMARK    1  A    between atoms: C_1  and  C_15 
REMARK    2  A    between atoms: C_1  and  C_8 
REMARK    3  A    between atoms: C_1  and  N_18 
REMARK    4  A    between atoms: C_2  and  C_9 
REMARK    5  A    between atoms: C_2  and  C_3 
REMARK    6  A    between atoms: C_2  and  N_5 
REMARK       I    between atoms: C_9  and  N_18 
REMARK    7  A    between atoms: C_15  and  S_17 
ROOT
HETATM    1  C           1     -21.829  -4.818  -8.331  0.00  0.00     0.249 C 
HETATM    2  H           1     -23.217  -3.411  -8.947  0.00  0.00     0.163 HD
HETATM    3  O           1     -21.030  -5.647  -8.697  0.00  0.00    -0.271 OA
HETATM    4  N           1     -22.548  -4.106  -9.253  0.00  0.00    -0.344 N 
ENDROOT
BRANCH   1   5
HETATM    5  C           1     -22.037  -4.571  -6.857  0.00  0.00     0.278 C 
BRANCH   5   6
HETATM    6  C           1     -21.164  -5.525  -6.054  0.00  0.00     0.017 C 
HETATM    7  C           1     -20.115  -4.733  -5.287  0.00  0.00     0.012 C 
HETATM    8  C           1     -22.032  -6.300  -5.072  0.00  0.00     0.012 C 
ENDBRANCH   5   6
BRANCH   5   9
HETATM    9  N           1     -23.478  -4.799  -6.510  0.00  0.00    -0.066 N 
HETATM   10  H           1     -23.560  -5.646  -5.904  0.00  0.00     0.275 HD
HETATM   11  H           1     -23.847  -3.967  -5.996  0.00  0.00     0.275 HD
HETATM   12  H           1     -24.029  -4.941  -7.386  0.00  0.00     0.275 HD
ENDBRANCH   5   9
ENDBRANCH   1   5
BRANCH   4  13
HETATM   13  C           1     -22.348  -4.345 -10.669  0.00  0.00     0.194 C 
BRANCH  13  14
HETATM   14  C           1     -23.692  -4.298 -11.386  0.00  0.00     0.106 C 
BRANCH  14  15
HETATM   15  S           1     -24.916  -3.477 -10.327  0.00  0.00    -0.180 SA
HETATM   16  H           1     -25.618  -2.922 -11.330  0.00  0.00     0.101 HD
ENDBRANCH  14  15
ENDBRANCH  13  14
BRANCH  13  17
HETATM   17  C           1     -21.439  -3.283 -11.235  0.00  0.00     0.197 C 
HETATM   18  O           1     -20.204  -3.353 -11.052  0.00  0.00    -0.646 OA
HETATM   19  O           1     -21.920  -2.331 -11.889  0.00  0.00    -0.646 OA
ENDBRANCH  13  17
ENDBRANCH   4  13
TORSDOF 7
ENDMDL
MODEL 5
REMARK VINA RESULT:      -4.8      3.583      6.170
REMARK  7 active torsions:
REMARK  status: ('A' for Active; 'I' for Inactive)
REMARK    1  A    between atoms: C_1  and  C_15 
REMARK    2  A    between atoms: C_1  and  C_8 
REMARK    3  A    between atoms: C_1  and  N_18 
REMARK    4  A    between atoms: C_2  and  C_9 
REMARK    5  A    between atoms: C_2  and  C_3 
REMARK    6  A    between atoms: C_2  and  N_5 
REMARK       I    between atoms: C_9  and  N_18 
REMARK    7  A    between atoms: C_15  and  S_17 
ROOT
HETATM    1  C           1     -21.712  -5.555  -5.776  0.00  0.00     0.249 C 
HETATM    2  H           1     -20.004  -6.403  -4.972  0.00  0.00     0.163 HD
HETATM    3  O           1     -22.920  -5.567  -5.772  0.00  0.00    -0.271 OA
HETATM    4  N           1     -21.016  -6.413  -4.969  0.00  0.00    -0.344 N 
ENDROOT
BRANCH   1   5
HETATM    5  C           1     -20.971  -4.594  -6.674  0.00  0.00     0.278 C 
BRANCH   5   6
HETATM    6  C           1     -21.352  -4.858  -8.125  0.00  0.00     0.017 C 
HETATM    7  C           1     -22.344  -3.801  -8.591  0.00  0.00     0.012 C 
HETATM    8  C           1     -20.103  -4.801  -8.995  0.00  0.00     0.012 C 
ENDBRANCH   5   6
BRANCH   5   9
HETATM    9  N           1     -19.494  -4.788  -6.502  0.00  0.00    -0.066 N 
HETATM   10  H           1     -19.315  -5.705  -6.034  0.00  0.00     0.275 HD
HETATM   11  H           1     -19.031  -4.780  -7.439  0.00  0.00     0.275 HD
HETATM   12  H           1     -19.107  -4.015  -5.915  0.00  0.00     0.275 HD
ENDBRANCH   5   9
ENDBRANCH   1   5
BRANCH   4  13
HETATM   13  C           1     -21.728  -7.336  -4.107  0.00  0.00     0.194 C 
BRANCH  13  14
HETATM   14  C           1     -21.095  -8.718  -4.209  0.00  0.00     0.106 C 
BRANCH  14  15
HETATM   15  S           1     -19.481  -8.586  -5.028  0.00  0.00    -0.180 SA
HETATM   16  H           1     -19.236  -7.319  -4.653  0.00  0.00     0.101 HD
ENDBRANCH  14  15
ENDBRANCH  13  14
BRANCH  13  17
HETATM   17  C           1     -21.652  -6.852  -2.680  0.00  0.00     0.197 C 
HETATM   18  O           1     -20.852  -7.384  -1.880  0.00  0.00    -0.646 OA
HETATM   19  O           1     -22.391  -5.918  -2.296  0.00  0.00    -0.646 OA
ENDBRANCH  13  17
ENDBRANCH   4  13
TORSDOF 7
ENDMDL
MODEL 6
REMARK VINA RESULT:      -4.7      5.884      7.812
REMARK  7 active torsions:
REMARK  status: ('A' for Active; 'I' for Inactive)
REMARK    1  A    between atoms: C_1  and  C_15 
REMARK    2  A    between atoms: C_1  and  C_8 
REMARK    3  A    between atoms: C_1  and  N_18 
REMARK    4  A    between atoms: C_2  and  C_9 
REMARK    5  A    between atoms: C_2  and  C_3 
REMARK    6  A    between atoms: C_2  and  N_5 
REMARK       I    between atoms: C_9  and  N_18 
REMARK    7  A    between atoms: C_15  and  S_17 
ROOT
HETATM    1  C           1     -21.062  -8.899  -1.544  0.00  0.00     0.249 C 
HETATM    2  H           1     -22.235  -9.265  -3.209  0.00  0.00     0.163 HD
HETATM    3  O           1     -20.196  -8.197  -1.078  0.00  0.00    -0.271 OA
HETATM    4  N           1     -21.510  -8.677  -2.819  0.00  0.00    -0.344 N 
ENDROOT
BRANCH   1   5
HETATM    5  C           1     -21.646 -10.022  -0.723  0.00  0.00     0.278 C 
BRANCH   5   6
HETATM    6  C           1     -23.136  -9.781  -0.521  0.00  0.00     0.017 C 
HETATM    7  C           1     -23.793 -11.055  -0.009  0.00  0.00     0.012 C 
HETATM    8  C           1     -23.336  -8.664   0.494  0.00  0.00     0.012 C 
ENDBRANCH   5   6
BRANCH   5   9
HETATM    9  N           1     -20.963 -10.072   0.612  0.00  0.00    -0.066 N 
HETATM   10  H           1     -21.674  -9.967   1.371  0.00  0.00     0.275 HD
HETATM   11  H           1     -20.476 -10.991   0.718  0.00  0.00     0.275 HD
HETATM   12  H           1     -20.266  -9.297   0.676  0.00  0.00     0.275 HD
ENDBRANCH   5   9
ENDBRANCH   1   5
BRANCH   4  13
HETATM   13  C           1     -20.948  -7.598  -3.607  0.00  0.00     0.194 C 
BRANCH  13  14
HETATM   14  C           1     -20.612  -8.111  -5.002  0.00  0.00     0.106 C 
BRANCH  14  15
HETATM   15  S           1     -19.154  -9.188  -4.918  0.00  0.00    -0.180 SA
HETATM   16  H           1     -18.358  -8.298  -4.300  0.00  0.00     0.101 HD
ENDBRANCH  14  15
ENDBRANCH  13  14
BRANCH  13  17
HETATM   17  C           1     -21.949  -6.475  -3.711  0.00  0.00     0.197 C 
HETATM   18  O           1     -22.401  -5.941  -2.674  0.00  0.00    -0.646 OA
HETATM   19  O           1     -22.330  -6.078  -4.834  0.00  0.00    -0.646 OA
ENDBRANCH  13  17
ENDBRANCH   4  13
TORSDOF 7
ENDMDL
MODEL 7
REMARK VINA RESULT:      -4.5      5.430      7.349
REMARK  7 active torsions:
REMARK  status: ('A' for Active; 'I' for Inactive)
REMARK    1  A    between atoms: C_1  and  C_15 
REMARK    2  A    between atoms: C_1  and  C_8 
REMARK    3  A    between atoms: C_1  and  N_18 
REMARK    4  A    between atoms: C_2  and  C_9 
REMARK    5  A    between atoms: C_2  and  C_3 
REMARK    6  A    between atoms: C_2  and  N_5 
REMARK       I    between atoms: C_9  and  N_18 
REMARK    7  A    between atoms: C_15  and  S_17 
ROOT
HETATM    1  C           1     -20.916  -8.480  -1.972  0.00  0.00     0.249 C 
HETATM    2  H           1     -22.517  -8.206  -3.254  0.00  0.00     0.163 HD
HETATM    3  O           1     -19.726  -8.328  -1.826  0.00  0.00    -0.271 OA
HETATM    4  N           1     -21.521  -8.079  -3.133  0.00  0.00    -0.344 N 
ENDROOT
BRANCH   1   5
HETATM    5  C           1     -21.735  -9.114  -0.874  0.00  0.00     0.278 C 
BRANCH   5   6
HETATM    6  C           1     -21.838  -8.153   0.303  0.00  0.00     0.017 C 
HETATM    7  C           1     -23.297  -7.998   0.706  0.00  0.00     0.012 C 
HETATM    8  C           1     -21.042  -8.703   1.478  0.00  0.00     0.012 C 
ENDBRANCH   5   6
BRANCH   5   9
HETATM    9  N           1     -21.072 -10.383  -0.426  0.00  0.00    -0.066 N 
HETATM   10  H           1     -21.155 -10.472   0.612  0.00  0.00     0.275 HD
HETATM   11  H           1     -21.539 -11.198  -0.883  0.00  0.00     0.275 HD
HETATM   12  H           1     -20.063 -10.362  -0.695  0.00  0.00     0.275 HD
ENDBRANCH   5   9
ENDBRANCH   1   5
BRANCH   4  13
HETATM   13  C           1     -20.733  -7.470  -4.187  0.00  0.00     0.194 C 
BRANCH  13  14
HETATM   14  C           1     -20.567  -8.460  -5.333  0.00  0.00     0.106 C 
BRANCH  14  15
HETATM   15  S           1     -18.968  -9.305  -5.177  0.00  0.00    -0.180 SA
HETATM   16  H           1     -19.032  -9.481  -3.845  0.00  0.00     0.101 HD
ENDBRANCH  14  15
ENDBRANCH  13  14
BRANCH  13  17
HETATM   17  C           1     -21.435  -6.233  -4.689  0.00  0.00     0.197 C 
HETATM   18  O           1     -22.684  -6.196  -4.731  0.00  0.00    -0.646 OA
HETATM   19  O           1     -20.768  -5.243  -5.062  0.00  0.00    -0.646 OA
ENDBRANCH  13  17
ENDBRANCH   4  13
TORSDOF 7
ENDMDL
MODEL 8
REMARK VINA RESULT:      -4.5      7.957      9.965
REMARK  7 active torsions:
REMARK  status: ('A' for Active; 'I' for Inactive)
REMARK    1  A    between atoms: C_1  and  C_15 
REMARK    2  A    between atoms: C_1  and  C_8 
REMARK    3  A    between atoms: C_1  and  N_18 
REMARK    4  A    between atoms: C_2  and  C_9 
REMARK    5  A    between atoms: C_2  and  C_3 
REMARK    6  A    between atoms: C_2  and  N_5 
REMARK       I    between atoms: C_9  and  N_18 
REMARK    7  A    between atoms: C_15  and  S_17 
ROOT
HETATM    1  C           1     -21.333 -10.397  -0.015  0.00  0.00     0.249 C 
HETATM    2  H           1     -22.148  -9.801  -1.822  0.00  0.00     0.163 HD
HETATM    3  O           1     -20.711 -10.038   0.957  0.00  0.00    -0.271 OA
HETATM    4  N           1     -21.627  -9.501  -1.009  0.00  0.00    -0.344 N 
ENDROOT
BRANCH   1   5
HETATM    5  C           1     -21.785 -11.832  -0.134  0.00  0.00     0.278 C 
BRANCH   5   6
HETATM    6  C           1     -23.227 -11.951   0.342  0.00  0.00     0.017 C 
HETATM    7  C           1     -24.154 -12.038  -0.862  0.00  0.00     0.012 C 
HETATM    8  C           1     -23.378 -13.207   1.190  0.00  0.00     0.012 C 
ENDBRANCH   5   6
BRANCH   5   9
HETATM    9  N           1     -20.906 -12.704   0.712  0.00  0.00    -0.066 N 
HETATM   10  H           1     -20.829 -13.650   0.275  0.00  0.00     0.275 HD
HETATM   11  H           1     -19.955 -12.275   0.781  0.00  0.00     0.275 HD
HETATM   12  H           1     -21.319 -12.794   1.667  0.00  0.00     0.275 HD
ENDBRANCH   5   9
ENDBRANCH   1   5
BRANCH   4  13
HETATM   13  C           1     -21.192  -8.123  -0.893  0.00  0.00     0.194 C 
BRANCH  13  14
HETATM   14  C           1     -20.459  -7.714  -2.165  0.00  0.00     0.106 C 
BRANCH  14  15
HETATM   15  S           1     -21.055  -8.715  -3.557  0.00  0.00    -0.180 SA
HETATM   16  H           1     -19.940  -8.601  -4.299  0.00  0.00     0.101 HD
ENDBRANCH  14  15
ENDBRANCH  13  14
BRANCH  13  17
HETATM   17  C           1     -22.393  -7.232  -0.696  0.00  0.00     0.197 C 
HETATM   18  O           1     -23.290  -7.560   0.111  0.00  0.00    -0.646 OA
HETATM   19  O           1     -22.491  -6.164  -1.339  0.00  0.00    -0.646 OA
ENDBRANCH  13  17
ENDBRANCH   4  13
TORSDOF 7
ENDMDL
MODEL 9
REMARK VINA RESULT:      -4.5      5.291      7.238
REMARK  7 active torsions:
REMARK  status: ('A' for Active; 'I' for Inactive)
REMARK    1  A    between atoms: C_1  and  C_15 
REMARK    2  A    between atoms: C_1  and  C_8 
REMARK    3  A    between atoms: C_1  and  N_18 
REMARK    4  A    between atoms: C_2  and  C_9 
REMARK    5  A    between atoms: C_2  and  C_3 
REMARK    6  A    between atoms: C_2  and  N_5 
REMARK       I    between atoms: C_9  and  N_18 
REMARK    7  A    between atoms: C_15  and  S_17 
ROOT
HETATM    1  C           1     -20.733  -8.054  -2.079  0.00  0.00     0.249 C 
HETATM    2  H           1     -22.385  -7.424  -3.154  0.00  0.00     0.163 HD
HETATM    3  O           1     -19.599  -8.463  -2.155  0.00  0.00    -0.271 OA
HETATM    4  N           1     -21.435  -7.767  -3.218  0.00  0.00    -0.344 N 
ENDROOT
BRANCH   1   5
HETATM    5  C           1     -21.376  -7.863  -0.727  0.00  0.00     0.278 C 
BRANCH   5   6
HETATM    6  C           1     -22.027  -9.166  -0.285  0.00  0.00     0.017 C 
HETATM    7  C           1     -21.127  -9.869   0.722  0.00  0.00     0.012 C 
HETATM    8  C           1     -23.373  -8.867   0.360  0.00  0.00     0.012 C 
ENDBRANCH   5   6
BRANCH   5   9
HETATM    9  N           1     -22.419  -6.789  -0.817  0.00  0.00    -0.066 N 
HETATM   10  H           1     -22.018  -5.885  -0.479  0.00  0.00     0.275 HD
HETATM   11  H           1     -22.723  -6.683  -1.812  0.00  0.00     0.275 HD
HETATM   12  H           1     -23.240  -7.050  -0.227  0.00  0.00     0.275 HD
ENDBRANCH   5   9
ENDBRANCH   1   5
BRANCH   4  13
HETATM   13  C           1     -20.817  -7.951  -4.517  0.00  0.00     0.194 C 
BRANCH  13  14
HETATM   14  C           1     -21.165  -9.334  -5.053  0.00  0.00     0.106 C 
BRANCH  14  15
HETATM   15  S           1     -19.652 -10.325  -5.203  0.00  0.00    -0.180 SA
HETATM   16  H           1     -19.948 -10.850  -6.405  0.00  0.00     0.101 HD
ENDBRANCH  14  15
ENDBRANCH  13  14
BRANCH  13  17
HETATM   17  C           1     -21.325  -6.899  -5.470  0.00  0.00     0.197 C 
HETATM   18  O           1     -22.073  -5.987  -5.055  0.00  0.00    -0.646 OA
HETATM   19  O           1     -20.999  -6.938  -6.677  0.00  0.00    -0.646 OA
ENDBRANCH  13  17
ENDBRANCH   4  13
TORSDOF 7
ENDMDL
