MODEL 1
REMARK VINA RESULT:      -6.7      0.000      0.000
REMARK  9 active torsions:
REMARK  status: ('A' for Active; 'I' for Inactive)
REMARK    1  A    between atoms: S_2  and  C_7 
REMARK    2  A    between atoms: C_3  and  C_6 
REMARK    3  A    between atoms: C_3  and  C_18 
REMARK    4  A    between atoms: C_3  and  N_22 
REMARK    5  A    between atoms: O_4  and  C_17 
REMARK       I    between atoms: C_6  and  N_12 
REMARK    6  A    between atoms: C_7  and  C_9 
REMARK    7  A    between atoms: C_8  and  C_18 
REMARK    8  A    between atoms: C_9  and  C_25 
REMARK    9  A    between atoms: C_9  and  N_12 
ROOT
HETATM    1  C           1     -22.223  -5.123  -6.953  0.00  0.00     0.278 C 
ENDROOT
BRANCH   1   2
HETATM    2  C           1     -21.342  -5.676  -5.860  0.00  0.00     0.249 C 
HETATM    3  N           1     -21.524  -6.957  -5.415  0.00  0.00    -0.344 N 
HETATM    4  H           1     -22.251  -7.534  -5.818  0.00  0.00     0.163 HD
HETATM    5  O           1     -20.474  -4.986  -5.378  0.00  0.00    -0.271 OA
BRANCH   3   6
HETATM    6  C           1     -20.678  -7.487  -4.365  0.00  0.00     0.194 C 
BRANCH   6   7
HETATM    7  C           1     -21.533  -7.862  -3.161  0.00  0.00     0.106 C 
BRANCH   7   8
HETATM    8  S           1     -21.915  -6.372  -2.199  0.00  0.00    -0.180 SA
HETATM    9  H           1     -20.751  -5.744  -2.444  0.00  0.00     0.101 HD
ENDBRANCH   7   8
ENDBRANCH   6   7
BRANCH   6  10
HETATM   10  C           1     -19.957  -8.713  -4.870  0.00  0.00     0.197 C 
HETATM   11  O           1     -18.794  -8.957  -4.485  0.00  0.00    -0.646 OA
HETATM   12  O           1     -20.525  -9.485  -5.673  0.00  0.00    -0.646 OA
ENDBRANCH   6  10
ENDBRANCH   3   6
ENDBRANCH   1   2
BRANCH   1  13
HETATM   13  C           1     -21.644  -3.809  -7.459  0.00  0.00     0.081 C 
BRANCH  13  14
HETATM   14  C           1     -21.682  -3.788  -8.955  0.00  0.00    -0.056 A 
HETATM   15  C           1     -22.879  -3.514  -9.618  0.00  0.00     0.010 A 
HETATM   16  C           1     -22.915  -3.494 -11.012  0.00  0.00     0.037 A 
HETATM   17  C           1     -21.755  -3.747 -11.743  0.00  0.00     0.065 A 
HETATM   18  C           1     -20.558  -4.020 -11.081  0.00  0.00     0.037 A 
HETATM   19  C           1     -20.522  -4.040  -9.687  0.00  0.00     0.010 A 
BRANCH  17  20
HETATM   20  O           1     -21.790  -3.727 -13.097  0.00  0.00    -0.361 OA
HETATM   21  H           1     -20.881  -3.600 -13.420  0.00  0.00     0.217 HD
ENDBRANCH  17  20
ENDBRANCH  13  14
ENDBRANCH   1  13
BRANCH   1  22
HETATM   22  N           1     -23.602  -4.886  -6.411  0.00  0.00    -0.066 N 
HETATM   23  H           1     -24.309  -5.252  -7.087  0.00  0.00     0.275 HD
HETATM   24  H           1     -23.706  -5.380  -5.496  0.00  0.00     0.275 HD
HETATM   25  H           1     -23.750  -3.861  -6.272  0.00  0.00     0.275 HD
ENDBRANCH   1  22
TORSDOF 9
ENDMDL
MODEL 2
REMARK VINA RESULT:      -6.7     13.333     16.079
REMARK  9 active torsions:
REMARK  status: ('A' for Active; 'I' for Inactive)
REMARK    1  A    between atoms: S_2  and  C_7 
REMARK    2  A    between atoms: C_3  and  C_6 
REMARK    3  A    between atoms: C_3  and  C_18 
REMARK    4  A    between atoms: C_3  and  N_22 
REMARK    5  A    between atoms: O_4  and  C_17 
REMARK       I    between atoms: C_6  and  N_12 
REMARK    6  A    between atoms: C_7  and  C_9 
REMARK    7  A    between atoms: C_8  and  C_18 
REMARK    8  A    between atoms: C_9  and  C_25 
REMARK    9  A    between atoms: C_9  and  N_12 
ROOT
HETATM    1  C           1     -34.044  -2.830 -11.545  0.00  0.00     0.278 C 
ENDROOT
BRANCH   1   2
HETATM    2  C           1     -34.694  -2.243 -12.774  0.00  0.00     0.249 C 
HETATM    3  N           1     -35.345  -1.041 -12.696  0.00  0.00    -0.344 N 
HETATM    4  H           1     -35.390  -0.547 -11.814  0.00  0.00     0.163 HD
HETATM    5  O           1     -34.641  -2.834 -13.827  0.00  0.00    -0.271 OA
BRANCH   3   6
HETATM    6  C           1     -35.970  -0.478 -13.876  0.00  0.00     0.194 C 
BRANCH   6   7
HETATM    7  C           1     -37.431  -0.166 -13.579  0.00  0.00     0.106 C 
BRANCH   7   8
HETATM    8  S           1     -37.696  -0.148 -11.784  0.00  0.00    -0.180 SA
HETATM    9  H           1     -39.030   0.009 -11.840  0.00  0.00     0.101 HD
ENDBRANCH   7   8
ENDBRANCH   6   7
BRANCH   6  10
HETATM   10  C           1     -35.255   0.794 -14.265  0.00  0.00     0.197 C 
HETATM   11  O           1     -35.529   1.359 -15.345  0.00  0.00    -0.646 OA
HETATM   12  O           1     -34.390   1.281 -13.506  0.00  0.00    -0.646 OA
ENDBRANCH   6  10
ENDBRANCH   3   6
ENDBRANCH   1   2
BRANCH   1  13
HETATM   13  C           1     -35.076  -3.624 -10.754  0.00  0.00     0.081 C 
BRANCH  13  14
HETATM   14  C           1     -34.612  -5.040 -10.607  0.00  0.00    -0.056 A 
HETATM   15  C           1     -33.395  -5.436 -11.162  0.00  0.00     0.010 A 
HETATM   16  C           1     -32.962  -6.755 -11.025  0.00  0.00     0.037 A 
HETATM   17  C           1     -33.746  -7.677 -10.332  0.00  0.00     0.065 A 
HETATM   18  C           1     -34.962  -7.281  -9.776  0.00  0.00     0.037 A 
HETATM   19  C           1     -35.395  -5.963  -9.914  0.00  0.00     0.010 A 
BRANCH  17  20
HETATM   20  O           1     -33.325  -8.958 -10.198  0.00  0.00    -0.361 OA
HETATM   21  H           1     -33.864  -9.381  -9.508  0.00  0.00     0.217 HD
ENDBRANCH  17  20
ENDBRANCH  13  14
ENDBRANCH   1  13
BRANCH   1  22
HETATM   22  N           1     -33.502  -1.724 -10.690  0.00  0.00    -0.066 N 
HETATM   23  H           1     -32.459  -1.789 -10.657  0.00  0.00     0.275 HD
HETATM   24  H           1     -33.781  -0.803 -11.094  0.00  0.00     0.275 HD
HETATM   25  H           1     -33.886  -1.811  -9.722  0.00  0.00     0.275 HD
ENDBRANCH   1  22
TORSDOF 9
ENDMDL
MODEL 3
REMARK VINA RESULT:      -6.6     13.981     16.963
REMARK  9 active torsions:
REMARK  status: ('A' for Active; 'I' for Inactive)
REMARK    1  A    between atoms: S_2  and  C_7 
REMARK    2  A    between atoms: C_3  and  C_6 
REMARK    3  A    between atoms: C_3  and  C_18 
REMARK    4  A    between atoms: C_3  and  N_22 
REMARK    5  A    between atoms: O_4  and  C_17 
REMARK       I    between atoms: C_6  and  N_12 
REMARK    6  A    between atoms: C_7  and  C_9 
REMARK    7  A    between atoms: C_8  and  C_18 
REMARK    8  A    between atoms: C_9  and  C_25 
REMARK    9  A    between atoms: C_9  and  N_12 
ROOT
HETATM    1  C           1     -35.999  -0.504 -11.364  0.00  0.00     0.278 C 
ENDROOT
BRANCH   1   2
HETATM    2  C           1     -36.789  -0.500 -12.650  0.00  0.00     0.249 C 
HETATM    3  N           1     -36.139  -0.433 -13.853  0.00  0.00    -0.344 N 
HETATM    4  H           1     -35.128  -0.385 -13.879  0.00  0.00     0.163 HD
HETATM    5  O           1     -37.996  -0.558 -12.617  0.00  0.00    -0.271 OA
BRANCH   3   6
HETATM    6  C           1     -36.898  -0.429 -15.087  0.00  0.00     0.194 C 
BRANCH   6   7
HETATM    7  C           1     -37.179   1.008 -15.509  0.00  0.00     0.106 C 
BRANCH   7   8
HETATM    8  S           1     -35.627   1.949 -15.526  0.00  0.00    -0.180 SA
HETATM    9  H           1     -36.143   3.078 -15.007  0.00  0.00     0.101 HD
ENDBRANCH   7   8
ENDBRANCH   6   7
BRANCH   6  10
HETATM   10  C           1     -36.104  -1.123 -16.168  0.00  0.00     0.197 C 
HETATM   11  O           1     -35.120  -1.830 -15.864  0.00  0.00    -0.646 OA
HETATM   12  O           1     -36.433  -0.990 -17.367  0.00  0.00    -0.646 OA
ENDBRANCH   6  10
ENDBRANCH   3   6
ENDBRANCH   1   2
BRANCH   1  13
HETATM   13  C           1     -36.283  -1.787 -10.596  0.00  0.00     0.081 C 
BRANCH  13  14
HETATM   14  C           1     -35.220  -2.797 -10.896  0.00  0.00    -0.056 A 
HETATM   15  C           1     -33.918  -2.377 -11.174  0.00  0.00     0.010 A 
HETATM   16  C           1     -32.927  -3.316 -11.453  0.00  0.00     0.037 A 
HETATM   17  C           1     -33.236  -4.676 -11.455  0.00  0.00     0.065 A 
HETATM   18  C           1     -34.536  -5.097 -11.176  0.00  0.00     0.037 A 
HETATM   19  C           1     -35.528  -4.157 -10.897  0.00  0.00     0.010 A 
BRANCH  17  20
HETATM   20  O           1     -32.273  -5.590 -11.726  0.00  0.00    -0.361 OA
HETATM   21  H           1     -32.429  -6.368 -11.165  0.00  0.00     0.217 HD
ENDBRANCH  17  20
ENDBRANCH  13  14
ENDBRANCH   1  13
BRANCH   1  22
HETATM   22  N           1     -36.398   0.677 -10.530  0.00  0.00    -0.066 N 
HETATM   23  H           1     -35.911   1.532 -10.882  0.00  0.00     0.275 HD
HETATM   24  H           1     -37.432   0.814 -10.592  0.00  0.00     0.275 HD
HETATM   25  H           1     -36.129   0.508  -9.534  0.00  0.00     0.275 HD
ENDBRANCH   1  22
TORSDOF 9
ENDMDL
MODEL 4
REMARK VINA RESULT:      -6.5      3.341      7.490
REMARK  9 active torsions:
REMARK  status: ('A' for Active; 'I' for Inactive)
REMARK    1  A    between atoms: S_2  and  C_7 
REMARK    2  A    between atoms: C_3  and  C_6 
REMARK    3  A    between atoms: C_3  and  C_18 
REMARK    4  A    between atoms: C_3  and  N_22 
REMARK    5  A    between atoms: O_4  and  C_17 
REMARK       I    between atoms: C_6  and  N_12 
REMARK    6  A    between atoms: C_7  and  C_9 
REMARK    7  A    between atoms: C_8  and  C_18 
REMARK    8  A    between atoms: C_9  and  C_25 
REMARK    9  A    between atoms: C_9  and  N_12 
ROOT
HETATM    1  C           1     -21.073  -5.724  -6.815  0.00  0.00     0.278 C 
ENDROOT
BRANCH   1   2
HETATM    2  C           1     -21.619  -4.600  -7.662  0.00  0.00     0.249 C 
HETATM    3  N           1     -22.176  -4.872  -8.882  0.00  0.00    -0.344 N 
HETATM    4  H           1     -22.223  -5.826  -9.216  0.00  0.00     0.163 HD
HETATM    5  O           1     -21.563  -3.461  -7.263  0.00  0.00    -0.271 OA
BRANCH   3   6
HETATM    6  C           1     -22.700  -3.792  -9.696  0.00  0.00     0.194 C 
BRANCH   6   7
HETATM    7  C           1     -22.174  -3.926 -11.120  0.00  0.00     0.106 C 
BRANCH   7   8
HETATM    8  S           1     -22.959  -2.677 -12.176  0.00  0.00    -0.180 SA
HETATM    9  H           1     -24.121  -2.632 -11.500  0.00  0.00     0.101 HD
ENDBRANCH   7   8
ENDBRANCH   6   7
BRANCH   6  10
HETATM   10  C           1     -24.208  -3.858  -9.710  0.00  0.00     0.197 C 
HETATM   11  O           1     -24.784  -4.930  -9.993  0.00  0.00    -0.646 OA
HETATM   12  O           1     -24.880  -2.840  -9.437  0.00  0.00    -0.646 OA
ENDBRANCH   6  10
ENDBRANCH   3   6
ENDBRANCH   1   2
BRANCH   1  13
HETATM   13  C           1     -20.862  -5.230  -5.390  0.00  0.00     0.081 C 
BRANCH  13  14
HETATM   14  C           1     -21.150  -6.339  -4.428  0.00  0.00    -0.056 A 
HETATM   15  C           1     -21.320  -6.059  -3.071  0.00  0.00     0.010 A 
HETATM   16  C           1     -21.589  -7.092  -2.174  0.00  0.00     0.037 A 
HETATM   17  C           1     -21.688  -8.406  -2.632  0.00  0.00     0.065 A 
HETATM   18  C           1     -21.519  -8.686  -3.988  0.00  0.00     0.037 A 
HETATM   19  C           1     -21.250  -7.653  -4.886  0.00  0.00     0.010 A 
BRANCH  17  20
HETATM   20  O           1     -21.949  -9.409  -1.761  0.00  0.00    -0.361 OA
HETATM   21  H           1     -22.895  -9.626  -1.826  0.00  0.00     0.217 HD
ENDBRANCH  17  20
ENDBRANCH  13  14
ENDBRANCH   1  13
BRANCH   1  22
HETATM   22  N           1     -19.764  -6.187  -7.382  0.00  0.00    -0.066 N 
HETATM   23  H           1     -18.994  -5.584  -7.016  0.00  0.00     0.275 HD
HETATM   24  H           1     -19.595  -7.179  -7.100  0.00  0.00     0.275 HD
HETATM   25  H           1     -19.793  -6.122  -8.425  0.00  0.00     0.275 HD
ENDBRANCH   1  22
TORSDOF 9
ENDMDL
MODEL 5
REMARK VINA RESULT:      -6.5      2.149      2.449
REMARK  9 active torsions:
REMARK  status: ('A' for Active; 'I' for Inactive)
REMARK    1  A    between atoms: S_2  and  C_7 
REMARK    2  A    between atoms: C_3  and  C_6 
REMARK    3  A    between atoms: C_3  and  C_18 
REMARK    4  A    between atoms: C_3  and  N_22 
REMARK    5  A    between atoms: O_4  and  C_17 
REMARK       I    between atoms: C_6  and  N_12 
REMARK    6  A    between atoms: C_7  and  C_9 
REMARK    7  A    between atoms: C_8  and  C_18 
REMARK    8  A    between atoms: C_9  and  C_25 
REMARK    9  A    between atoms: C_9  and  N_12 
ROOT
HETATM    1  C           1     -20.916  -4.820  -6.595  0.00  0.00     0.278 C 
ENDROOT
BRANCH   1   2
HETATM    2  C           1     -21.677  -5.729  -5.661  0.00  0.00     0.249 C 
HETATM    3  N           1     -20.998  -6.573  -4.824  0.00  0.00    -0.344 N 
HETATM    4  H           1     -19.987  -6.587  -4.831  0.00  0.00     0.163 HD
HETATM    5  O           1     -22.885  -5.712  -5.653  0.00  0.00    -0.271 OA
BRANCH   3   6
HETATM    6  C           1     -21.729  -7.446  -3.927  0.00  0.00     0.194 C 
BRANCH   6   7
HETATM    7  C           1     -21.118  -8.841  -3.963  0.00  0.00     0.106 C 
BRANCH   7   8
HETATM    8  S           1     -19.517  -8.780  -4.815  0.00  0.00    -0.180 SA
HETATM    9  H           1     -19.939  -9.365  -5.950  0.00  0.00     0.101 HD
ENDBRANCH   7   8
ENDBRANCH   6   7
BRANCH   6  10
HETATM   10  C           1     -21.653  -6.901  -2.521  0.00  0.00     0.197 C 
HETATM   11  O           1     -20.873  -7.417  -1.693  0.00  0.00    -0.646 OA
HETATM   12  O           1     -22.371  -5.933  -2.187  0.00  0.00    -0.646 OA
ENDBRANCH   6  10
ENDBRANCH   3   6
ENDBRANCH   1   2
BRANCH   1  13
HETATM   13  C           1     -20.680  -5.534  -7.920  0.00  0.00     0.081 C 
BRANCH  13  14
HETATM   14  C           1     -21.241  -4.713  -9.038  0.00  0.00    -0.056 A 
HETATM   15  C           1     -22.590  -4.355  -9.032  0.00  0.00     0.010 A 
HETATM   16  C           1     -23.113  -3.589 -10.073  0.00  0.00     0.037 A 
HETATM   17  C           1     -22.288  -3.181 -11.121  0.00  0.00     0.065 A 
HETATM   18  C           1     -20.939  -3.537 -11.127  0.00  0.00     0.037 A 
HETATM   19  C           1     -20.416  -4.303 -10.086  0.00  0.00     0.010 A 
BRANCH  17  20
HETATM   20  O           1     -22.796  -2.436 -12.133  0.00  0.00    -0.361 OA
HETATM   21  H           1     -23.270  -1.682 -11.743  0.00  0.00     0.217 HD
ENDBRANCH  17  20
ENDBRANCH  13  14
ENDBRANCH   1  13
BRANCH   1  22
HETATM   22  N           1     -19.596  -4.462  -5.979  0.00  0.00    -0.066 N 
HETATM   23  H           1     -19.545  -3.427  -5.844  0.00  0.00     0.275 HD
HETATM   24  H           1     -19.502  -4.940  -5.055  0.00  0.00     0.275 HD
HETATM   25  H           1     -18.822  -4.769  -6.610  0.00  0.00     0.275 HD
ENDBRANCH   1  22
TORSDOF 9
ENDMDL
MODEL 6
REMARK VINA RESULT:      -6.3     13.530     16.197
REMARK  9 active torsions:
REMARK  status: ('A' for Active; 'I' for Inactive)
REMARK    1  A    between atoms: S_2  and  C_7 
REMARK    2  A    between atoms: C_3  and  C_6 
REMARK    3  A    between atoms: C_3  and  C_18 
REMARK    4  A    between atoms: C_3  and  N_22 
REMARK    5  A    between atoms: O_4  and  C_17 
REMARK       I    between atoms: C_6  and  N_12 
REMARK    6  A    between atoms: C_7  and  C_9 
REMARK    7  A    between atoms: C_8  and  C_18 
REMARK    8  A    between atoms: C_9  and  C_25 
REMARK    9  A    between atoms: C_9  and  N_12 
ROOT
HETATM    1  C           1     -34.306  -3.747 -12.709  0.00  0.00     0.278 C 
ENDROOT
BRANCH   1   2
HETATM    2  C           1     -34.739  -2.304 -12.631  0.00  0.00     0.249 C 
HETATM    3  N           1     -35.245  -1.680 -13.739  0.00  0.00    -0.344 N 
HETATM    4  H           1     -35.328  -2.187 -14.611  0.00  0.00     0.163 HD
HETATM    5  O           1     -34.639  -1.699 -11.589  0.00  0.00    -0.271 OA
BRANCH   3   6
HETATM    6  C           1     -35.660  -0.293 -13.664  0.00  0.00     0.194 C 
BRANCH   6   7
HETATM    7  C           1     -35.597   0.333 -15.052  0.00  0.00     0.106 C 
BRANCH   7   8
HETATM    8  S           1     -35.596  -0.976 -16.309  0.00  0.00    -0.180 SA
HETATM    9  H           1     -36.924  -1.190 -16.288  0.00  0.00     0.101 HD
ENDBRANCH   7   8
ENDBRANCH   6   7
BRANCH   6  10
HETATM   10  C           1     -37.074  -0.219 -13.143  0.00  0.00     0.197 C 
HETATM   11  O           1     -37.306   0.318 -12.039  0.00  0.00    -0.646 OA
HETATM   12  O           1     -38.014  -0.694 -13.818  0.00  0.00    -0.646 OA
ENDBRANCH   6  10
ENDBRANCH   3   6
ENDBRANCH   1   2
BRANCH   1  13
HETATM   13  C           1     -33.323  -4.045 -11.584  0.00  0.00     0.081 C 
BRANCH  13  14
HETATM   14  C           1     -33.634  -5.382 -10.987  0.00  0.00    -0.056 A 
HETATM   15  C           1     -34.841  -5.581 -10.316  0.00  0.00     0.010 A 
HETATM   16  C           1     -35.132  -6.827  -9.760  0.00  0.00     0.037 A 
HETATM   17  C           1     -34.217  -7.873  -9.876  0.00  0.00     0.065 A 
HETATM   18  C           1     -33.011  -7.674 -10.548  0.00  0.00     0.037 A 
HETATM   19  C           1     -32.720  -6.428 -11.103  0.00  0.00     0.010 A 
BRANCH  17  20
HETATM   20  O           1     -34.500  -9.083  -9.336  0.00  0.00    -0.361 OA
HETATM   21  H           1     -35.208  -8.963  -8.681  0.00  0.00     0.217 HD
ENDBRANCH  17  20
ENDBRANCH  13  14
ENDBRANCH   1  13
BRANCH   1  22
HETATM   22  N           1     -33.644  -4.000 -14.031  0.00  0.00    -0.066 N 
HETATM   23  H           1     -34.197  -4.706 -14.567  0.00  0.00     0.275 HD
HETATM   24  H           1     -33.598  -3.108 -14.573  0.00  0.00     0.275 HD
HETATM   25  H           1     -32.677  -4.362 -13.873  0.00  0.00     0.275 HD
ENDBRANCH   1  22
TORSDOF 9
ENDMDL
MODEL 7
REMARK VINA RESULT:      -5.9      3.920      7.187
REMARK  9 active torsions:
REMARK  status: ('A' for Active; 'I' for Inactive)
REMARK    1  A    between atoms: S_2  and  C_7 
REMARK    2  A    between atoms: C_3  and  C_6 
REMARK    3  A    between atoms: C_3  and  C_18 
REMARK    4  A    between atoms: C_3  and  N_22 
REMARK    5  A    between atoms: O_4  and  C_17 
REMARK       I    between atoms: C_6  and  N_12 
REMARK    6  A    between atoms: C_7  and  C_9 
REMARK    7  A    between atoms: C_8  and  C_18 
REMARK    8  A    between atoms: C_9  and  C_25 
REMARK    9  A    between atoms: C_9  and  N_12 
ROOT
HETATM    1  C           1     -20.644  -4.751  -9.398  0.00  0.00     0.278 C 
ENDROOT
BRANCH   1   2
HETATM    2  C           1     -21.888  -3.910  -9.548  0.00  0.00     0.249 C 
HETATM    3  N           1     -22.597  -3.939 -10.718  0.00  0.00    -0.344 N 
HETATM    4  H           1     -22.288  -4.525 -11.483  0.00  0.00     0.163 HD
HETATM    5  O           1     -22.257  -3.210  -8.634  0.00  0.00    -0.271 OA
BRANCH   3   6
HETATM    6  C           1     -23.791  -3.130 -10.862  0.00  0.00     0.194 C 
BRANCH   6   7
HETATM    7  C           1     -24.187  -3.063 -12.331  0.00  0.00     0.106 C 
BRANCH   7   8
HETATM    8  S           1     -22.694  -2.962 -13.358  0.00  0.00    -0.180 SA
HETATM    9  H           1     -23.178  -3.691 -14.380  0.00  0.00     0.101 HD
ENDBRANCH   7   8
ENDBRANCH   6   7
BRANCH   6  10
HETATM   10  C           1     -24.916  -3.748 -10.067  0.00  0.00     0.197 C 
HETATM   11  O           1     -24.889  -4.966  -9.788  0.00  0.00    -0.646 OA
HETATM   12  O           1     -25.875  -3.041  -9.687  0.00  0.00    -0.646 OA
ENDBRANCH   6  10
ENDBRANCH   3   6
ENDBRANCH   1   2
BRANCH   1  13
HETATM   13  C           1     -19.822  -4.238  -8.223  0.00  0.00     0.081 C 
BRANCH  13  14
HETATM   14  C           1     -20.080  -5.092  -7.021  0.00  0.00    -0.056 A 
HETATM   15  C           1     -19.902  -6.474  -7.096  0.00  0.00     0.010 A 
HETATM   16  C           1     -20.142  -7.269  -5.976  0.00  0.00     0.037 A 
HETATM   17  C           1     -20.560  -6.684  -4.781  0.00  0.00     0.065 A 
HETATM   18  C           1     -20.738  -5.303  -4.706  0.00  0.00     0.037 A 
HETATM   19  C           1     -20.498  -4.507  -5.826  0.00  0.00     0.010 A 
BRANCH  17  20
HETATM   20  O           1     -20.793  -7.457  -3.693  0.00  0.00    -0.361 OA
HETATM   21  H           1     -19.935  -7.693  -3.302  0.00  0.00     0.217 HD
ENDBRANCH  17  20
ENDBRANCH  13  14
ENDBRANCH   1  13
BRANCH   1  22
HETATM   22  N           1     -19.828  -4.665 -10.654  0.00  0.00    -0.066 N 
HETATM   23  H           1     -19.110  -3.913 -10.551  0.00  0.00     0.275 HD
HETATM   24  H           1     -19.353  -5.580 -10.823  0.00  0.00     0.275 HD
HETATM   25  H           1     -20.453  -4.442 -11.461  0.00  0.00     0.275 HD
ENDBRANCH   1  22
TORSDOF 9
ENDMDL
MODEL 8
REMARK VINA RESULT:      -5.9      2.205      2.803
REMARK  9 active torsions:
REMARK  status: ('A' for Active; 'I' for Inactive)
REMARK    1  A    between atoms: S_2  and  C_7 
REMARK    2  A    between atoms: C_3  and  C_6 
REMARK    3  A    between atoms: C_3  and  C_18 
REMARK    4  A    between atoms: C_3  and  N_22 
REMARK    5  A    between atoms: O_4  and  C_17 
REMARK       I    between atoms: C_6  and  N_12 
REMARK    6  A    between atoms: C_7  and  C_9 
REMARK    7  A    between atoms: C_8  and  C_18 
REMARK    8  A    between atoms: C_9  and  C_25 
REMARK    9  A    between atoms: C_9  and  N_12 
ROOT
HETATM    1  C           1     -21.237  -6.138  -5.574  0.00  0.00     0.278 C 
ENDROOT
BRANCH   1   2
HETATM    2  C           1     -20.207  -7.240  -5.551  0.00  0.00     0.249 C 
HETATM    3  N           1     -20.132  -8.085  -4.477  0.00  0.00    -0.344 N 
HETATM    4  H           1     -20.768  -7.971  -3.698  0.00  0.00     0.163 HD
HETATM    5  O           1     -19.447  -7.376  -6.481  0.00  0.00    -0.271 OA
BRANCH   3   6
HETATM    6  C           1     -19.142  -9.144  -4.455  0.00  0.00     0.194 C 
BRANCH   6   7
HETATM    7  C           1     -18.582  -9.288  -3.045  0.00  0.00     0.106 C 
BRANCH   7   8
HETATM    8  S           1     -16.823  -9.723  -3.134  0.00  0.00    -0.180 SA
HETATM    9  H           1     -16.396  -8.749  -2.309  0.00  0.00     0.101 HD
ENDBRANCH   7   8
ENDBRANCH   6   7
BRANCH   6  10
HETATM   10  C           1     -19.785 -10.443  -4.875  0.00  0.00     0.197 C 
HETATM   11  O           1     -19.996 -10.673  -6.085  0.00  0.00    -0.646 OA
HETATM   12  O           1     -20.105 -11.290  -4.012  0.00  0.00    -0.646 OA
ENDBRANCH   6  10
ENDBRANCH   3   6
ENDBRANCH   1   2
BRANCH   1  13
HETATM   13  C           1     -20.572  -4.829  -5.979  0.00  0.00     0.081 C 
BRANCH  13  14
HETATM   14  C           1     -20.998  -4.460  -7.366  0.00  0.00    -0.056 A 
HETATM   15  C           1     -20.061  -4.440  -8.400  0.00  0.00     0.010 A 
HETATM   16  C           1     -20.457  -4.097  -9.693  0.00  0.00     0.037 A 
HETATM   17  C           1     -21.789  -3.774  -9.952  0.00  0.00     0.065 A 
HETATM   18  C           1     -22.725  -3.795  -8.918  0.00  0.00     0.037 A 
HETATM   19  C           1     -22.330  -4.138  -7.626  0.00  0.00     0.010 A 
BRANCH  17  20
HETATM   20  O           1     -22.173  -3.441 -11.208  0.00  0.00    -0.361 OA
HETATM   21  H           1     -23.144  -3.384 -11.220  0.00  0.00     0.217 HD
ENDBRANCH  17  20
ENDBRANCH  13  14
ENDBRANCH   1  13
BRANCH   1  22
HETATM   22  N           1     -21.841  -5.989  -4.209  0.00  0.00    -0.066 N 
HETATM   23  H           1     -21.343  -6.618  -3.538  0.00  0.00     0.275 HD
HETATM   24  H           1     -21.746  -4.998  -3.893  0.00  0.00     0.275 HD
HETATM   25  H           1     -22.852  -6.248  -4.244  0.00  0.00     0.275 HD
ENDBRANCH   1  22
TORSDOF 9
ENDMDL
MODEL 9
REMARK VINA RESULT:      -5.8      3.164      7.619
REMARK  9 active torsions:
REMARK  status: ('A' for Active; 'I' for Inactive)
REMARK    1  A    between atoms: S_2  and  C_7 
REMARK    2  A    between atoms: C_3  and  C_6 
REMARK    3  A    between atoms: C_3  and  C_18 
REMARK    4  A    between atoms: C_3  and  N_22 
REMARK    5  A    between atoms: O_4  and  C_17 
REMARK       I    between atoms: C_6  and  N_12 
REMARK    6  A    between atoms: C_7  and  C_9 
REMARK    7  A    between atoms: C_8  and  C_18 
REMARK    8  A    between atoms: C_9  and  C_25 
REMARK    9  A    between atoms: C_9  and  N_12 
ROOT
HETATM    1  C           1     -21.717  -5.896  -5.156  0.00  0.00     0.278 C 
ENDROOT
BRANCH   1   2
HETATM    2  C           1     -21.490  -5.872  -6.648  0.00  0.00     0.249 C 
HETATM    3  N           1     -21.971  -4.833  -7.397  0.00  0.00    -0.344 N 
HETATM    4  H           1     -22.479  -4.080  -6.950  0.00  0.00     0.163 HD
HETATM    5  O           1     -20.884  -6.772  -7.181  0.00  0.00    -0.271 OA
BRANCH   3   6
HETATM    6  C           1     -21.754  -4.811  -8.829  0.00  0.00     0.194 C 
BRANCH   6   7
HETATM    7  C           1     -22.728  -3.835  -9.478  0.00  0.00     0.106 C 
BRANCH   7   8
HETATM    8  S           1     -23.364  -4.548 -11.021  0.00  0.00    -0.180 SA
HETATM    9  H           1     -22.161  -4.790 -11.570  0.00  0.00     0.101 HD
ENDBRANCH   7   8
ENDBRANCH   6   7
BRANCH   6  10
HETATM   10  C           1     -20.339  -4.372  -9.118  0.00  0.00     0.197 C 
HETATM   11  O           1     -19.746  -3.613  -8.321  0.00  0.00    -0.646 OA
HETATM   12  O           1     -19.760  -4.768 -10.153  0.00  0.00    -0.646 OA
ENDBRANCH   6  10
ENDBRANCH   3   6
ENDBRANCH   1   2
BRANCH   1  13
HETATM   13  C           1     -20.832  -6.962  -4.524  0.00  0.00     0.081 C 
BRANCH  13  14
HETATM   14  C           1     -21.343  -7.291  -3.156  0.00  0.00    -0.056 A 
HETATM   15  C           1     -21.380  -8.618  -2.727  0.00  0.00     0.010 A 
HETATM   16  C           1     -21.856  -8.926  -1.452  0.00  0.00     0.037 A 
HETATM   17  C           1     -22.296  -7.907  -0.608  0.00  0.00     0.065 A 
HETATM   18  C           1     -22.259  -6.580  -1.037  0.00  0.00     0.037 A 
HETATM   19  C           1     -21.783  -6.273  -2.311  0.00  0.00     0.010 A 
BRANCH  17  20
HETATM   20  O           1     -22.759  -8.206   0.630  0.00  0.00    -0.361 OA
HETATM   21  H           1     -23.354  -7.490   0.910  0.00  0.00     0.217 HD
ENDBRANCH  17  20
ENDBRANCH  13  14
ENDBRANCH   1  13
BRANCH   1  22
HETATM   22  N           1     -23.156  -6.209  -4.874  0.00  0.00    -0.066 N 
HETATM   23  H           1     -23.363  -7.189  -5.172  0.00  0.00     0.275 HD
HETATM   24  H           1     -23.339  -6.111  -3.850  0.00  0.00     0.275 HD
HETATM   25  H           1     -23.768  -5.548  -5.402  0.00  0.00     0.275 HD
ENDBRANCH   1  22
TORSDOF 9
ENDMDL
