MODEL 1
REMARK VINA RESULT:      -7.7      0.000      0.000
REMARK  14 active torsions:
REMARK  status: ('A' for Active; 'I' for Inactive)
REMARK    1  A    between atoms: C_5  and  C_21 
REMARK    2  A    between atoms: C_5  and  C_6 
REMARK    3  A    between atoms: C_5  and  N_32 
REMARK    4  A    between atoms: C_6  and  C_25 
REMARK    5  A    between atoms: O_7  and  C_26 
REMARK    6  A    between atoms: O_7  and  P_15 
REMARK    7  A    between atoms: C_9  and  C_10 
REMARK    8  A    between atoms: C_10  and  C_23 
REMARK    9  A    between atoms: C_11  and  C_23 
REMARK   10  A    between atoms: P_15  and  O_28 
REMARK   11  A    between atoms: N_16  and  C_23 
REMARK       I    between atoms: N_16  and  C_21 
REMARK   12  A    between atoms: C_24  and  C_25 
REMARK   13  A    between atoms: C_24  and  C_34 
REMARK   14  A    between atoms: N_33  and  C_34 
ROOT
HETATM    1  N           1     -33.698  -4.608 -15.699  0.00  0.00    -0.344 N 
HETATM    2  H           1     -34.409  -5.151 -16.172  0.00  0.00     0.163 HD
HETATM    3  C           1     -33.978  -4.007 -14.501  0.00  0.00     0.249 C 
HETATM    4  O           1     -34.421  -2.883 -14.478  0.00  0.00    -0.271 OA
ENDROOT
BRANCH   1   5
HETATM    5  C           1     -32.383  -4.467 -16.291  0.00  0.00     0.189 C 
BRANCH   5   6
HETATM    6  C           1     -32.011  -5.754 -17.015  0.00  0.00     0.074 C 
BRANCH   6   7
HETATM    7  C           1     -30.645  -6.193 -16.585  0.00  0.00    -0.056 A 
HETATM    8  C           1     -30.006  -7.236 -17.255  0.00  0.00     0.010 A 
HETATM    9  C           1     -28.733  -7.644 -16.856  0.00  0.00     0.038 A 
HETATM   10  C           1     -28.101  -7.010 -15.787  0.00  0.00     0.081 A 
HETATM   11  C           1     -28.740  -5.967 -15.118  0.00  0.00     0.038 A 
HETATM   12  C           1     -30.012  -5.558 -15.517  0.00  0.00     0.010 A 
BRANCH  10  13
HETATM   13  O           1     -26.864  -7.407 -15.399  0.00  0.00    -0.247 OA
BRANCH  13  14
HETATM   14  P           1     -25.589  -6.683 -16.073  0.00  0.00     0.411 P 
HETATM   15  O           1     -26.017  -5.960 -17.291  0.00  0.00    -0.624 OA
HETATM   16  O           1     -24.577  -7.700 -16.434  0.00  0.00    -0.624 OA
BRANCH  14  17
HETATM   17  O           1     -24.950  -5.635 -15.024  0.00  0.00    -0.300 OA
HETATM   18  H           1     -25.194  -4.785 -15.348  0.00  0.00     0.223 HD
ENDBRANCH  14  17
ENDBRANCH  13  14
ENDBRANCH  10  13
ENDBRANCH   6   7
ENDBRANCH   5   6
BRANCH   5  19
HETATM   19  C           1     -32.394  -3.322 -17.274  0.00  0.00     0.197 C 
HETATM   20  O           1     -31.326  -2.933 -17.793  0.00  0.00    -0.646 OA
HETATM   21  O           1     -33.473  -2.762 -17.569  0.00  0.00    -0.646 OA
ENDBRANCH   5  19
ENDBRANCH   1   5
BRANCH   3  22
HETATM   22  C           1     -33.732  -4.749 -13.210  0.00  0.00     0.274 C 
BRANCH  22  23
HETATM   23  C           1     -34.671  -4.219 -12.133  0.00  0.00     0.042 C 
BRANCH  23  24
HETATM   24  C           1     -33.882  -3.950 -10.859  0.00  0.00     0.004 C 
BRANCH  24  25
HETATM   25  C           1     -33.950  -2.465 -10.523  0.00  0.00     0.027 C 
BRANCH  25  26
HETATM   26  C           1     -35.151  -1.841 -11.221  0.00  0.00     0.229 C 
BRANCH  26  27
HETATM   27  N           1     -34.700  -0.666 -12.037  0.00  0.00    -0.079 N 
HETATM   28  H           1     -35.094   0.212 -11.630  0.00  0.00     0.274 HD
HETATM   29  H           1     -33.657  -0.615 -12.030  0.00  0.00     0.274 HD
HETATM   30  H           1     -35.036  -0.775 -13.021  0.00  0.00     0.274 HD
ENDBRANCH  26  27
ENDBRANCH  25  26
ENDBRANCH  24  25
ENDBRANCH  23  24
ENDBRANCH  22  23
BRANCH  22  31
HETATM   31  N           1     -32.311  -4.543 -12.778  0.00  0.00    -0.067 N 
HETATM   32  H           1     -31.914  -3.711 -13.269  0.00  0.00     0.275 HD
HETATM   33  H           1     -32.279  -4.387 -11.745  0.00  0.00     0.275 HD
HETATM   34  H           1     -31.748  -5.390 -13.019  0.00  0.00     0.275 HD
ENDBRANCH  22  31
ENDBRANCH   3  22
TORSDOF 14
ENDMDL
MODEL 2
REMARK VINA RESULT:      -7.6      1.089      2.122
REMARK  14 active torsions:
REMARK  status: ('A' for Active; 'I' for Inactive)
REMARK    1  A    between atoms: C_5  and  C_21 
REMARK    2  A    between atoms: C_5  and  C_6 
REMARK    3  A    between atoms: C_5  and  N_32 
REMARK    4  A    between atoms: C_6  and  C_25 
REMARK    5  A    between atoms: O_7  and  C_26 
REMARK    6  A    between atoms: O_7  and  P_15 
REMARK    7  A    between atoms: C_9  and  C_10 
REMARK    8  A    between atoms: C_10  and  C_23 
REMARK    9  A    between atoms: C_11  and  C_23 
REMARK   10  A    between atoms: P_15  and  O_28 
REMARK   11  A    between atoms: N_16  and  C_23 
REMARK       I    between atoms: N_16  and  C_21 
REMARK   12  A    between atoms: C_24  and  C_25 
REMARK   13  A    between atoms: C_24  and  C_34 
REMARK   14  A    between atoms: N_33  and  C_34 
ROOT
HETATM    1  N           1     -33.716  -4.674 -15.787  0.00  0.00    -0.344 N 
HETATM    2  H           1     -34.358  -5.331 -16.212  0.00  0.00     0.163 HD
HETATM    3  C           1     -34.113  -3.932 -14.706  0.00  0.00     0.249 C 
HETATM    4  O           1     -34.631  -2.853 -14.871  0.00  0.00    -0.271 OA
ENDROOT
BRANCH   1   5
HETATM    5  C           1     -32.379  -4.519 -16.321  0.00  0.00     0.189 C 
BRANCH   5   6
HETATM    6  C           1     -31.973  -5.792 -17.051  0.00  0.00     0.074 C 
BRANCH   6   7
HETATM    7  C           1     -30.611  -6.217 -16.598  0.00  0.00    -0.056 A 
HETATM    8  C           1     -30.010  -5.585 -15.510  0.00  0.00     0.010 A 
HETATM    9  C           1     -28.742  -5.981 -15.087  0.00  0.00     0.038 A 
HETATM   10  C           1     -28.074  -7.009 -15.753  0.00  0.00     0.081 A 
HETATM   11  C           1     -28.676  -7.642 -16.841  0.00  0.00     0.038 A 
HETATM   12  C           1     -29.944  -7.246 -17.263  0.00  0.00     0.010 A 
BRANCH  10  13
HETATM   13  O           1     -26.841  -7.394 -15.342  0.00  0.00    -0.247 OA
BRANCH  13  14
HETATM   14  P           1     -25.559  -6.702 -16.038  0.00  0.00     0.411 P 
HETATM   15  O           1     -25.975  -6.044 -17.297  0.00  0.00    -0.624 OA
HETATM   16  O           1     -24.542  -7.735 -16.335  0.00  0.00    -0.624 OA
BRANCH  14  17
HETATM   17  O           1     -24.933  -5.600 -15.038  0.00  0.00    -0.300 OA
HETATM   18  H           1     -24.066  -5.437 -15.366  0.00  0.00     0.223 HD
ENDBRANCH  14  17
ENDBRANCH  13  14
ENDBRANCH  10  13
ENDBRANCH   6   7
ENDBRANCH   5   6
BRANCH   5  19
HETATM   19  C           1     -32.353  -3.356 -17.283  0.00  0.00     0.197 C 
HETATM   20  O           1     -33.425  -2.848 -17.676  0.00  0.00    -0.646 OA
HETATM   21  O           1     -31.260  -2.903 -17.685  0.00  0.00    -0.646 OA
ENDBRANCH   5  19
ENDBRANCH   1   5
BRANCH   3  22
HETATM   22  C           1     -33.902  -4.462 -13.309  0.00  0.00     0.274 C 
BRANCH  22  23
HETATM   23  C           1     -34.616  -3.560 -12.310  0.00  0.00     0.042 C 
BRANCH  23  24
HETATM   24  C           1     -34.320  -4.035 -10.894  0.00  0.00     0.004 C 
BRANCH  24  25
HETATM   25  C           1     -35.129  -5.293 -10.602  0.00  0.00     0.027 C 
BRANCH  25  26
HETATM   26  C           1     -34.184  -6.470 -10.404  0.00  0.00     0.229 C 
BRANCH  26  27
HETATM   27  N           1     -34.805  -7.712 -10.972  0.00  0.00    -0.079 N 
HETATM   28  H           1     -35.765  -7.492 -11.321  0.00  0.00     0.274 HD
HETATM   29  H           1     -34.220  -8.065 -11.762  0.00  0.00     0.274 HD
HETATM   30  H           1     -34.864  -8.444 -10.228  0.00  0.00     0.274 HD
ENDBRANCH  26  27
ENDBRANCH  25  26
ENDBRANCH  24  25
ENDBRANCH  23  24
ENDBRANCH  22  23
BRANCH  22  31
HETATM   31  N           1     -32.435  -4.486 -13.000  0.00  0.00    -0.067 N 
HETATM   32  H           1     -31.934  -5.042 -13.728  0.00  0.00     0.275 HD
HETATM   33  H           1     -32.065  -3.508 -12.992  0.00  0.00     0.275 HD
HETATM   34  H           1     -32.283  -4.923 -12.063  0.00  0.00     0.275 HD
ENDBRANCH  22  31
ENDBRANCH   3  22
TORSDOF 14
ENDMDL
MODEL 3
REMARK VINA RESULT:      -7.1     12.168     14.523
REMARK  14 active torsions:
REMARK  status: ('A' for Active; 'I' for Inactive)
REMARK    1  A    between atoms: C_5  and  C_21 
REMARK    2  A    between atoms: C_5  and  C_6 
REMARK    3  A    between atoms: C_5  and  N_32 
REMARK    4  A    between atoms: C_6  and  C_25 
REMARK    5  A    between atoms: O_7  and  C_26 
REMARK    6  A    between atoms: O_7  and  P_15 
REMARK    7  A    between atoms: C_9  and  C_10 
REMARK    8  A    between atoms: C_10  and  C_23 
REMARK    9  A    between atoms: C_11  and  C_23 
REMARK   10  A    between atoms: P_15  and  O_28 
REMARK   11  A    between atoms: N_16  and  C_23 
REMARK       I    between atoms: N_16  and  C_21 
REMARK   12  A    between atoms: C_24  and  C_25 
REMARK   13  A    between atoms: C_24  and  C_34 
REMARK   14  A    between atoms: N_33  and  C_34 
ROOT
HETATM    1  N           1     -22.364  -6.389  -4.232  0.00  0.00    -0.344 N 
HETATM    2  H           1     -23.348  -6.160  -4.292  0.00  0.00     0.163 HD
HETATM    3  C           1     -21.716  -6.315  -3.028  0.00  0.00     0.249 C 
HETATM    4  O           1     -21.186  -5.283  -2.690  0.00  0.00    -0.271 OA
ENDROOT
BRANCH   1   5
HETATM    5  C           1     -21.641  -6.794  -5.421  0.00  0.00     0.189 C 
BRANCH   5   6
HETATM    6  C           1     -20.663  -5.697  -5.818  0.00  0.00     0.074 C 
BRANCH   6   7
HETATM    7  C           1     -21.116  -5.062  -7.097  0.00  0.00    -0.056 A 
HETATM    8  C           1     -22.366  -4.448  -7.165  0.00  0.00     0.010 A 
HETATM    9  C           1     -22.787  -3.855  -8.355  0.00  0.00     0.038 A 
HETATM   10  C           1     -21.959  -3.877  -9.476  0.00  0.00     0.081 A 
HETATM   11  C           1     -20.707  -4.490  -9.408  0.00  0.00     0.038 A 
HETATM   12  C           1     -20.286  -5.083  -8.218  0.00  0.00     0.010 A 
BRANCH  10  13
HETATM   13  O           1     -22.369  -3.301 -10.633  0.00  0.00    -0.247 OA
BRANCH  13  14
HETATM   14  P           1     -23.626  -3.958 -11.403  0.00  0.00     0.411 P 
HETATM   15  O           1     -24.849  -3.179 -11.107  0.00  0.00    -0.624 OA
HETATM   16  O           1     -23.809  -5.354 -10.949  0.00  0.00    -0.624 OA
BRANCH  14  17
HETATM   17  O           1     -23.351  -3.940 -12.994  0.00  0.00    -0.300 OA
HETATM   18  H           1     -23.894  -4.625 -13.344  0.00  0.00     0.223 HD
ENDBRANCH  14  17
ENDBRANCH  13  14
ENDBRANCH  10  13
ENDBRANCH   6   7
ENDBRANCH   5   6
BRANCH   5  19
HETATM   19  C           1     -20.883  -8.068  -5.138  0.00  0.00     0.197 C 
HETATM   20  O           1     -19.645  -8.033  -4.969  0.00  0.00    -0.646 OA
HETATM   21  O           1     -21.493  -9.157  -5.073  0.00  0.00    -0.646 OA
ENDBRANCH   5  19
ENDBRANCH   1   5
BRANCH   3  22
HETATM   22  C           1     -21.663  -7.522  -2.124  0.00  0.00     0.274 C 
BRANCH  22  23
HETATM   23  C           1     -22.372  -7.206  -0.813  0.00  0.00     0.042 C 
BRANCH  23  24
HETATM   24  C           1     -22.136  -8.338   0.177  0.00  0.00     0.004 C 
BRANCH  24  25
HETATM   25  C           1     -23.085  -9.489  -0.132  0.00  0.00     0.027 C 
BRANCH  25  26
HETATM   26  C           1     -22.328 -10.808  -0.054  0.00  0.00     0.229 C 
BRANCH  26  27
HETATM   27  N           1     -21.642 -11.068  -1.363  0.00  0.00    -0.079 N 
HETATM   28  H           1     -21.204 -12.017  -1.342  0.00  0.00     0.274 HD
HETATM   29  H           1     -22.340 -11.025  -2.138  0.00  0.00     0.274 HD
HETATM   30  H           1     -20.903 -10.346  -1.519  0.00  0.00     0.274 HD
ENDBRANCH  26  27
ENDBRANCH  25  26
ENDBRANCH  24  25
ENDBRANCH  23  24
ENDBRANCH  22  23
BRANCH  22  31
HETATM   31  N           1     -20.233  -7.877  -1.846  0.00  0.00    -0.067 N 
HETATM   32  H           1     -19.908  -7.371  -0.991  0.00  0.00     0.275 HD
HETATM   33  H           1     -20.153  -8.907  -1.694  0.00  0.00     0.275 HD
HETATM   34  H           1     -19.641  -7.598  -2.661  0.00  0.00     0.275 HD
ENDBRANCH  22  31
ENDBRANCH   3  22
TORSDOF 14
ENDMDL
MODEL 4
REMARK VINA RESULT:      -7.1     10.924     13.412
REMARK  14 active torsions:
REMARK  status: ('A' for Active; 'I' for Inactive)
REMARK    1  A    between atoms: C_5  and  C_21 
REMARK    2  A    between atoms: C_5  and  C_6 
REMARK    3  A    between atoms: C_5  and  N_32 
REMARK    4  A    between atoms: C_6  and  C_25 
REMARK    5  A    between atoms: O_7  and  C_26 
REMARK    6  A    between atoms: O_7  and  P_15 
REMARK    7  A    between atoms: C_9  and  C_10 
REMARK    8  A    between atoms: C_10  and  C_23 
REMARK    9  A    between atoms: C_11  and  C_23 
REMARK   10  A    between atoms: P_15  and  O_28 
REMARK   11  A    between atoms: N_16  and  C_23 
REMARK       I    between atoms: N_16  and  C_21 
REMARK   12  A    between atoms: C_24  and  C_25 
REMARK   13  A    between atoms: C_24  and  C_34 
REMARK   14  A    between atoms: N_33  and  C_34 
ROOT
HETATM    1  N           1     -22.388  -5.901  -5.518  0.00  0.00    -0.344 N 
HETATM    2  H           1     -23.377  -5.688  -5.481  0.00  0.00     0.163 HD
HETATM    3  C           1     -21.781  -6.517  -4.456  0.00  0.00     0.249 C 
HETATM    4  O           1     -21.297  -5.855  -3.569  0.00  0.00    -0.271 OA
ENDROOT
BRANCH   1   5
HETATM    5  C           1     -21.615  -5.553  -6.693  0.00  0.00     0.189 C 
BRANCH   5   6
HETATM    6  C           1     -22.007  -4.157  -7.162  0.00  0.00     0.074 C 
BRANCH   6   7
HETATM    7  C           1     -22.467  -4.219  -8.586  0.00  0.00    -0.056 A 
HETATM    8  C           1     -21.544  -4.438  -9.608  0.00  0.00     0.010 A 
HETATM    9  C           1     -21.973  -4.496 -10.933  0.00  0.00     0.038 A 
HETATM   10  C           1     -23.325  -4.335 -11.237  0.00  0.00     0.081 A 
HETATM   11  C           1     -24.248  -4.117 -10.214  0.00  0.00     0.038 A 
HETATM   12  C           1     -23.819  -4.059  -8.889  0.00  0.00     0.010 A 
BRANCH  10  13
HETATM   13  O           1     -23.741  -4.392 -12.526  0.00  0.00    -0.247 OA
BRANCH  13  14
HETATM   14  P           1     -23.838  -3.009 -13.353  0.00  0.00     0.411 P 
HETATM   15  O           1     -22.839  -2.050 -12.830  0.00  0.00    -0.624 OA
HETATM   16  O           1     -25.195  -2.438 -13.204  0.00  0.00    -0.624 OA
BRANCH  14  17
HETATM   17  O           1     -23.541  -3.295 -14.914  0.00  0.00    -0.300 OA
HETATM   18  H           1     -24.183  -2.790 -15.382  0.00  0.00     0.223 HD
ENDBRANCH  14  17
ENDBRANCH  13  14
ENDBRANCH  10  13
ENDBRANCH   6   7
ENDBRANCH   5   6
BRANCH   5  19
HETATM   19  C           1     -20.145  -5.576  -6.353  0.00  0.00     0.197 C 
HETATM   20  O           1     -19.617  -4.591  -5.795  0.00  0.00    -0.646 OA
HETATM   21  O           1     -19.456  -6.582  -6.631  0.00  0.00    -0.646 OA
ENDBRANCH   5  19
ENDBRANCH   1   5
BRANCH   3  22
HETATM   22  C           1     -21.716  -8.024  -4.395  0.00  0.00     0.274 C 
BRANCH  22  23
HETATM   23  C           1     -20.655  -8.446  -3.387  0.00  0.00     0.042 C 
BRANCH  23  24
HETATM   24  C           1     -21.304  -9.266  -2.281  0.00  0.00     0.004 C 
BRANCH  24  25
HETATM   25  C           1     -20.984  -8.639  -0.929  0.00  0.00     0.027 C 
BRANCH  25  26
HETATM   26  C           1     -22.243  -8.006  -0.352  0.00  0.00     0.229 C 
BRANCH  26  27
HETATM   27  N           1     -22.398  -6.616  -0.893  0.00  0.00    -0.079 N 
HETATM   28  H           1     -23.038  -6.633  -1.719  0.00  0.00     0.274 HD
HETATM   29  H           1     -22.800  -5.996  -0.154  0.00  0.00     0.274 HD
HETATM   30  H           1     -21.463  -6.249  -1.184  0.00  0.00     0.274 HD
ENDBRANCH  26  27
ENDBRANCH  25  26
ENDBRANCH  24  25
ENDBRANCH  23  24
ENDBRANCH  22  23
BRANCH  22  31
HETATM   31  N           1     -21.362  -8.564  -5.748  0.00  0.00    -0.067 N 
HETATM   32  H           1     -22.010  -9.346  -5.993  0.00  0.00     0.275 HD
HETATM   33  H           1     -21.449  -7.804  -6.460  0.00  0.00     0.275 HD
HETATM   34  H           1     -20.379  -8.918  -5.735  0.00  0.00     0.275 HD
ENDBRANCH  22  31
ENDBRANCH   3  22
TORSDOF 14
ENDMDL
MODEL 5
REMARK VINA RESULT:      -6.7      5.396      7.778
REMARK  14 active torsions:
REMARK  status: ('A' for Active; 'I' for Inactive)
REMARK    1  A    between atoms: C_5  and  C_21 
REMARK    2  A    between atoms: C_5  and  C_6 
REMARK    3  A    between atoms: C_5  and  N_32 
REMARK    4  A    between atoms: C_6  and  C_25 
REMARK    5  A    between atoms: O_7  and  C_26 
REMARK    6  A    between atoms: O_7  and  P_15 
REMARK    7  A    between atoms: C_9  and  C_10 
REMARK    8  A    between atoms: C_10  and  C_23 
REMARK    9  A    between atoms: C_11  and  C_23 
REMARK   10  A    between atoms: P_15  and  O_28 
REMARK   11  A    between atoms: N_16  and  C_23 
REMARK       I    between atoms: N_16  and  C_21 
REMARK   12  A    between atoms: C_24  and  C_25 
REMARK   13  A    between atoms: C_24  and  C_34 
REMARK   14  A    between atoms: N_33  and  C_34 
ROOT
HETATM    1  N           1     -36.382   0.417 -13.404  0.00  0.00    -0.344 N 
HETATM    2  H           1     -36.179   1.370 -13.130  0.00  0.00     0.163 HD
HETATM    3  C           1     -36.880   0.155 -14.653  0.00  0.00     0.249 C 
HETATM    4  O           1     -38.075   0.141 -14.835  0.00  0.00    -0.271 OA
ENDROOT
BRANCH   1   5
HETATM    5  C           1     -36.144  -0.670 -12.475  0.00  0.00     0.189 C 
BRANCH   5   6
HETATM    6  C           1     -34.653  -0.769 -12.182  0.00  0.00     0.074 C 
BRANCH   6   7
HETATM    7  C           1     -34.297  -2.191 -11.875  0.00  0.00    -0.056 A 
HETATM    8  C           1     -33.935  -2.554 -10.578  0.00  0.00     0.010 A 
HETATM    9  C           1     -33.604  -3.878 -10.292  0.00  0.00     0.038 A 
HETATM   10  C           1     -33.637  -4.840 -11.302  0.00  0.00     0.081 A 
HETATM   11  C           1     -34.001  -4.476 -12.599  0.00  0.00     0.038 A 
HETATM   12  C           1     -34.331  -3.152 -12.886  0.00  0.00     0.010 A 
BRANCH  10  13
HETATM   13  O           1     -33.315  -6.126 -11.024  0.00  0.00    -0.247 OA
BRANCH  13  14
HETATM   14  P           1     -34.514  -7.148 -10.671  0.00  0.00     0.411 P 
HETATM   15  O           1     -35.387  -6.549  -9.636  0.00  0.00    -0.624 OA
HETATM   16  O           1     -33.948  -8.418 -10.164  0.00  0.00    -0.624 OA
BRANCH  14  17
HETATM   17  O           1     -35.382  -7.438 -12.002  0.00  0.00    -0.300 OA
HETATM   18  H           1     -35.020  -6.868 -12.659  0.00  0.00     0.223 HD
ENDBRANCH  14  17
ENDBRANCH  13  14
ENDBRANCH  10  13
ENDBRANCH   6   7
ENDBRANCH   5   6
BRANCH   5  19
HETATM   19  C           1     -36.894  -0.407 -11.192  0.00  0.00     0.197 C 
HETATM   20  O           1     -36.484   0.465 -10.397  0.00  0.00    -0.646 OA
HETATM   21  O           1     -37.924  -1.063 -10.926  0.00  0.00    -0.646 OA
ENDBRANCH   5  19
ENDBRANCH   1   5
BRANCH   3  22
HETATM   22  C           1     -35.938  -0.116 -15.800  0.00  0.00     0.274 C 
BRANCH  22  23
HETATM   23  C           1     -35.834  -1.619 -16.026  0.00  0.00     0.042 C 
BRANCH  23  24
HETATM   24  C           1     -34.586  -1.924 -16.843  0.00  0.00     0.004 C 
BRANCH  24  25
HETATM   25  C           1     -34.121  -3.345 -16.548  0.00  0.00     0.027 C 
BRANCH  25  26
HETATM   26  C           1     -32.777  -3.589 -17.220  0.00  0.00     0.229 C 
BRANCH  26  27
HETATM   27  N           1     -32.042  -4.675 -16.490  0.00  0.00    -0.079 N 
HETATM   28  H           1     -31.076  -4.762 -16.877  0.00  0.00     0.274 HD
HETATM   29  H           1     -31.989  -4.438 -15.474  0.00  0.00     0.274 HD
HETATM   30  H           1     -32.550  -5.581 -16.609  0.00  0.00     0.274 HD
ENDBRANCH  26  27
ENDBRANCH  25  26
ENDBRANCH  24  25
ENDBRANCH  23  24
ENDBRANCH  22  23
BRANCH  22  31
HETATM   31  N           1     -34.582   0.434 -15.473  0.00  0.00    -0.067 N 
HETATM   32  H           1     -33.943  -0.348 -15.206  0.00  0.00     0.275 HD
HETATM   33  H           1     -34.197   0.930 -16.308  0.00  0.00     0.275 HD
HETATM   34  H           1     -34.662   1.105 -14.676  0.00  0.00     0.275 HD
ENDBRANCH  22  31
ENDBRANCH   3  22
TORSDOF 14
ENDMDL
MODEL 6
REMARK VINA RESULT:      -6.5     13.464     15.854
REMARK  14 active torsions:
REMARK  status: ('A' for Active; 'I' for Inactive)
REMARK    1  A    between atoms: C_5  and  C_21 
REMARK    2  A    between atoms: C_5  and  C_6 
REMARK    3  A    between atoms: C_5  and  N_32 
REMARK    4  A    between atoms: C_6  and  C_25 
REMARK    5  A    between atoms: O_7  and  C_26 
REMARK    6  A    between atoms: O_7  and  P_15 
REMARK    7  A    between atoms: C_9  and  C_10 
REMARK    8  A    between atoms: C_10  and  C_23 
REMARK    9  A    between atoms: C_11  and  C_23 
REMARK   10  A    between atoms: P_15  and  O_28 
REMARK   11  A    between atoms: N_16  and  C_23 
REMARK       I    between atoms: N_16  and  C_21 
REMARK   12  A    between atoms: C_24  and  C_25 
REMARK   13  A    between atoms: C_24  and  C_34 
REMARK   14  A    between atoms: N_33  and  C_34 
ROOT
HETATM    1  N           1     -21.398  -6.557  -2.912  0.00  0.00    -0.344 N 
HETATM    2  H           1     -21.177  -5.786  -2.294  0.00  0.00     0.163 HD
HETATM    3  C           1     -21.654  -6.321  -4.237  0.00  0.00     0.249 C 
HETATM    4  O           1     -22.784  -6.099  -4.603  0.00  0.00    -0.271 OA
ENDROOT
BRANCH   1   5
HETATM    5  C           1     -21.445  -7.909  -2.394  0.00  0.00     0.189 C 
BRANCH   5   6
HETATM    6  C           1     -20.029  -8.463  -2.295  0.00  0.00     0.074 C 
BRANCH   6   7
HETATM    7  C           1     -19.704  -9.231  -3.538  0.00  0.00    -0.056 A 
HETATM    8  C           1     -18.405  -9.215  -4.047  0.00  0.00     0.010 A 
HETATM    9  C           1     -18.102  -9.931  -5.205  0.00  0.00     0.038 A 
HETATM   10  C           1     -19.096 -10.663  -5.853  0.00  0.00     0.081 A 
HETATM   11  C           1     -20.395 -10.679  -5.344  0.00  0.00     0.038 A 
HETATM   12  C           1     -20.699  -9.963  -4.186  0.00  0.00     0.010 A 
BRANCH  10  13
HETATM   13  O           1     -18.801 -11.358  -6.978  0.00  0.00    -0.247 OA
BRANCH  13  14
HETATM   14  P           1     -17.978 -12.738  -6.823  0.00  0.00     0.411 P 
HETATM   15  O           1     -18.213 -13.305  -5.476  0.00  0.00    -0.624 OA
HETATM   16  O           1     -16.533 -12.474  -7.001  0.00  0.00    -0.624 OA
BRANCH  14  17
HETATM   17  O           1     -18.476 -13.790  -7.942  0.00  0.00    -0.300 OA
HETATM   18  H           1     -18.949 -14.450  -7.465  0.00  0.00     0.223 HD
ENDBRANCH  14  17
ENDBRANCH  13  14
ENDBRANCH  10  13
ENDBRANCH   6   7
ENDBRANCH   5   6
BRANCH   5  19
HETATM   19  C           1     -22.080  -7.902  -1.026  0.00  0.00     0.197 C 
HETATM   20  O           1     -22.777  -6.929  -0.665  0.00  0.00    -0.646 OA
HETATM   21  O           1     -21.910  -8.870  -0.253  0.00  0.00    -0.646 OA
ENDBRANCH   5  19
ENDBRANCH   1   5
BRANCH   3  22
HETATM   22  C           1     -20.525  -6.339  -5.238  0.00  0.00     0.274 C 
BRANCH  22  23
HETATM   23  C           1     -20.163  -4.909  -5.620  0.00  0.00     0.042 C 
BRANCH  23  24
HETATM   24  C           1     -20.356  -4.720  -7.118  0.00  0.00     0.004 C 
BRANCH  24  25
HETATM   25  C           1     -21.388  -3.626  -7.363  0.00  0.00     0.027 C 
BRANCH  25  26
HETATM   26  C           1     -22.641  -4.237  -7.975  0.00  0.00     0.229 C 
BRANCH  26  27
HETATM   27  N           1     -23.656  -4.481  -6.897  0.00  0.00    -0.079 N 
HETATM   28  H           1     -24.432  -3.788  -6.987  0.00  0.00     0.274 HD
HETATM   29  H           1     -24.040  -5.448  -6.993  0.00  0.00     0.274 HD
HETATM   30  H           1     -23.202  -4.378  -5.961  0.00  0.00     0.274 HD
ENDBRANCH  26  27
ENDBRANCH  25  26
ENDBRANCH  24  25
ENDBRANCH  23  24
ENDBRANCH  22  23
BRANCH  22  31
HETATM   31  N           1     -20.954  -7.090  -6.462  0.00  0.00    -0.067 N 
HETATM   32  H           1     -21.469  -7.954  -6.179  0.00  0.00     0.275 HD
HETATM   33  H           1     -21.581  -6.484  -7.040  0.00  0.00     0.275 HD
HETATM   34  H           1     -20.112  -7.354  -7.022  0.00  0.00     0.275 HD
ENDBRANCH  22  31
ENDBRANCH   3  22
TORSDOF 14
ENDMDL
MODEL 7
REMARK VINA RESULT:      -6.1      6.315      8.320
REMARK  14 active torsions:
REMARK  status: ('A' for Active; 'I' for Inactive)
REMARK    1  A    between atoms: C_5  and  C_21 
REMARK    2  A    between atoms: C_5  and  C_6 
REMARK    3  A    between atoms: C_5  and  N_32 
REMARK    4  A    between atoms: C_6  and  C_25 
REMARK    5  A    between atoms: O_7  and  C_26 
REMARK    6  A    between atoms: O_7  and  P_15 
REMARK    7  A    between atoms: C_9  and  C_10 
REMARK    8  A    between atoms: C_10  and  C_23 
REMARK    9  A    between atoms: C_11  and  C_23 
REMARK   10  A    between atoms: P_15  and  O_28 
REMARK   11  A    between atoms: N_16  and  C_23 
REMARK       I    between atoms: N_16  and  C_21 
REMARK   12  A    between atoms: C_24  and  C_25 
REMARK   13  A    between atoms: C_24  and  C_34 
REMARK   14  A    between atoms: N_33  and  C_34 
ROOT
HETATM    1  N           1     -36.830   0.337 -11.450  0.00  0.00    -0.344 N 
HETATM    2  H           1     -37.021   1.330 -11.407  0.00  0.00     0.163 HD
HETATM    3  C           1     -36.511  -0.248 -12.647  0.00  0.00     0.249 C 
HETATM    4  O           1     -37.385  -0.693 -13.354  0.00  0.00    -0.271 OA
ENDROOT
BRANCH   1   5
HETATM    5  C           1     -36.896  -0.466 -10.246  0.00  0.00     0.189 C 
BRANCH   5   6
HETATM    6  C           1     -35.484  -0.803  -9.784  0.00  0.00     0.074 C 
BRANCH   6   7
HETATM    7  C           1     -35.111  -2.169 -10.269  0.00  0.00    -0.056 A 
HETATM    8  C           1     -36.106  -3.104 -10.553  0.00  0.00     0.010 A 
HETATM    9  C           1     -35.760  -4.376 -11.005  0.00  0.00     0.038 A 
HETATM   10  C           1     -34.417  -4.715 -11.174  0.00  0.00     0.081 A 
HETATM   11  C           1     -33.421  -3.779 -10.891  0.00  0.00     0.038 A 
HETATM   12  C           1     -33.768  -2.507 -10.439  0.00  0.00     0.010 A 
BRANCH  10  13
HETATM   13  O           1     -34.080  -5.951 -11.614  0.00  0.00    -0.247 OA
BRANCH  13  14
HETATM   14  P           1     -34.219  -7.187 -10.584  0.00  0.00     0.411 P 
HETATM   15  O           1     -34.882  -6.724  -9.344  0.00  0.00    -0.624 OA
HETATM   16  O           1     -32.874  -7.712 -10.258  0.00  0.00    -0.624 OA
BRANCH  14  17
HETATM   17  O           1     -35.105  -8.354 -11.262  0.00  0.00    -0.300 OA
HETATM   18  H           1     -34.498  -8.847 -11.788  0.00  0.00     0.223 HD
ENDBRANCH  14  17
ENDBRANCH  13  14
ENDBRANCH  10  13
ENDBRANCH   6   7
ENDBRANCH   5   6
BRANCH   5  19
HETATM   19  C           1     -37.609   0.307  -9.164  0.00  0.00     0.197 C 
HETATM   20  O           1     -37.769  -0.202  -8.034  0.00  0.00    -0.646 OA
HETATM   21  O           1     -38.040   1.457  -9.399  0.00  0.00    -0.646 OA
ENDBRANCH   5  19
ENDBRANCH   1   5
BRANCH   3  22
HETATM   22  C           1     -35.069  -0.337 -13.082  0.00  0.00     0.274 C 
BRANCH  22  23
HETATM   23  C           1     -34.764   0.788 -14.064  0.00  0.00     0.042 C 
BRANCH  23  24
HETATM   24  C           1     -35.850   0.839 -15.129  0.00  0.00     0.004 C 
BRANCH  24  25
HETATM   25  C           1     -35.395   0.059 -16.356  0.00  0.00     0.027 C 
BRANCH  25  26
HETATM   26  C           1     -36.466  -0.952 -16.742  0.00  0.00     0.229 C 
BRANCH  26  27
HETATM   27  N           1     -37.810  -0.450 -16.303  0.00  0.00    -0.079 N 
HETATM   28  H           1     -38.403  -0.267 -17.143  0.00  0.00     0.274 HD
HETATM   29  H           1     -38.271  -1.169 -15.701  0.00  0.00     0.274 HD
HETATM   30  H           1     -37.690   0.435 -15.759  0.00  0.00     0.274 HD
ENDBRANCH  26  27
ENDBRANCH  25  26
ENDBRANCH  24  25
ENDBRANCH  23  24
ENDBRANCH  22  23
BRANCH  22  31
HETATM   31  N           1     -34.828  -1.659 -13.747  0.00  0.00    -0.067 N 
HETATM   32  H           1     -34.490  -1.503 -14.723  0.00  0.00     0.275 HD
HETATM   33  H           1     -34.108  -2.193 -13.210  0.00  0.00     0.275 HD
HETATM   34  H           1     -35.720  -2.204 -13.772  0.00  0.00     0.275 HD
ENDBRANCH  22  31
ENDBRANCH   3  22
TORSDOF 14
ENDMDL
MODEL 8
REMARK VINA RESULT:      -5.9     14.427     16.990
REMARK  14 active torsions:
REMARK  status: ('A' for Active; 'I' for Inactive)
REMARK    1  A    between atoms: C_5  and  C_21 
REMARK    2  A    between atoms: C_5  and  C_6 
REMARK    3  A    between atoms: C_5  and  N_32 
REMARK    4  A    between atoms: C_6  and  C_25 
REMARK    5  A    between atoms: O_7  and  C_26 
REMARK    6  A    between atoms: O_7  and  P_15 
REMARK    7  A    between atoms: C_9  and  C_10 
REMARK    8  A    between atoms: C_10  and  C_23 
REMARK    9  A    between atoms: C_11  and  C_23 
REMARK   10  A    between atoms: P_15  and  O_28 
REMARK   11  A    between atoms: N_16  and  C_23 
REMARK       I    between atoms: N_16  and  C_21 
REMARK   12  A    between atoms: C_24  and  C_25 
REMARK   13  A    between atoms: C_24  and  C_34 
REMARK   14  A    between atoms: N_33  and  C_34 
ROOT
HETATM    1  N           1     -19.607 -11.679  -2.468  0.00  0.00    -0.344 N 
HETATM    2  H           1     -19.403 -12.071  -1.558  0.00  0.00     0.163 HD
HETATM    3  C           1     -20.383 -12.378  -3.356  0.00  0.00     0.249 C 
HETATM    4  O           1     -19.867 -13.142  -4.137  0.00  0.00    -0.271 OA
ENDROOT
BRANCH   1   5
HETATM    5  C           1     -19.080 -10.380  -2.833  0.00  0.00     0.189 C 
BRANCH   5   6
HETATM    6  C           1     -19.813  -9.298  -2.050  0.00  0.00     0.074 C 
BRANCH   6   7
HETATM    7  C           1     -20.463  -8.344  -3.004  0.00  0.00    -0.056 A 
HETATM    8  C           1     -20.551  -8.664  -4.358  0.00  0.00     0.010 A 
HETATM    9  C           1     -21.157  -7.777  -5.247  0.00  0.00     0.038 A 
HETATM   10  C           1     -21.677  -6.569  -4.780  0.00  0.00     0.081 A 
HETATM   11  C           1     -21.591  -6.250  -3.425  0.00  0.00     0.038 A 
HETATM   12  C           1     -20.984  -7.137  -2.537  0.00  0.00     0.010 A 
BRANCH  10  13
HETATM   13  O           1     -22.266  -5.707  -5.644  0.00  0.00    -0.247 OA
BRANCH  13  14
HETATM   14  P           1     -21.320  -4.893  -6.668  0.00  0.00     0.411 P 
HETATM   15  O           1     -21.031  -5.736  -7.850  0.00  0.00    -0.624 OA
HETATM   16  O           1     -20.052  -4.538  -5.993  0.00  0.00    -0.624 OA
BRANCH  14  17
HETATM   17  O           1     -22.075  -3.546  -7.141  0.00  0.00    -0.300 OA
HETATM   18  H           1     -22.300  -3.099  -6.344  0.00  0.00     0.223 HD
ENDBRANCH  14  17
ENDBRANCH  13  14
ENDBRANCH  10  13
ENDBRANCH   6   7
ENDBRANCH   5   6
BRANCH   5  19
HETATM   19  C           1     -17.607 -10.326  -2.509  0.00  0.00     0.197 C 
HETATM   20  O           1     -17.090 -11.218  -1.802  0.00  0.00    -0.646 OA
HETATM   21  O           1     -16.905  -9.390  -2.948  0.00  0.00    -0.646 OA
ENDBRANCH   5  19
ENDBRANCH   1   5
BRANCH   3  22
HETATM   22  C           1     -21.880 -12.191  -3.358  0.00  0.00     0.274 C 
BRANCH  22  23
HETATM   23  C           1     -22.370 -12.002  -1.928  0.00  0.00     0.042 C 
BRANCH  23  24
HETATM   24  C           1     -23.198 -10.727  -1.839  0.00  0.00     0.004 C 
BRANCH  24  25
HETATM   25  C           1     -23.460 -10.393  -0.376  0.00  0.00     0.027 C 
BRANCH  25  26
HETATM   26  C           1     -22.698  -9.130   0.000  0.00  0.00     0.229 C 
BRANCH  26  27
HETATM   27  N           1     -23.633  -8.160   0.663  0.00  0.00    -0.079 N 
HETATM   28  H           1     -24.310  -7.793  -0.043  0.00  0.00     0.274 HD
HETATM   29  H           1     -24.155  -8.645   1.426  0.00  0.00     0.274 HD
HETATM   30  H           1     -23.084  -7.367   1.066  0.00  0.00     0.274 HD
ENDBRANCH  26  27
ENDBRANCH  25  26
ENDBRANCH  24  25
ENDBRANCH  23  24
ENDBRANCH  22  23
BRANCH  22  31
HETATM   31  N           1     -22.534 -13.402  -3.954  0.00  0.00    -0.067 N 
HETATM   32  H           1     -22.164 -13.559  -4.919  0.00  0.00     0.275 HD
HETATM   33  H           1     -22.326 -14.237  -3.361  0.00  0.00     0.275 HD
HETATM   34  H           1     -23.567 -13.254  -3.998  0.00  0.00     0.275 HD
ENDBRANCH  22  31
ENDBRANCH   3  22
TORSDOF 14
ENDMDL
MODEL 9
REMARK VINA RESULT:      -5.8     15.172     18.050
REMARK  14 active torsions:
REMARK  status: ('A' for Active; 'I' for Inactive)
REMARK    1  A    between atoms: C_5  and  C_21 
REMARK    2  A    between atoms: C_5  and  C_6 
REMARK    3  A    between atoms: C_5  and  N_32 
REMARK    4  A    between atoms: C_6  and  C_25 
REMARK    5  A    between atoms: O_7  and  C_26 
REMARK    6  A    between atoms: O_7  and  P_15 
REMARK    7  A    between atoms: C_9  and  C_10 
REMARK    8  A    between atoms: C_10  and  C_23 
REMARK    9  A    between atoms: C_11  and  C_23 
REMARK   10  A    between atoms: P_15  and  O_28 
REMARK   11  A    between atoms: N_16  and  C_23 
REMARK       I    between atoms: N_16  and  C_21 
REMARK   12  A    between atoms: C_24  and  C_25 
REMARK   13  A    between atoms: C_24  and  C_34 
REMARK   14  A    between atoms: N_33  and  C_34 
ROOT
HETATM    1  N           1     -20.218 -11.120  -1.455  0.00  0.00    -0.344 N 
HETATM    2  H           1     -20.810 -11.939  -1.510  0.00  0.00     0.163 HD
HETATM    3  C           1     -18.860 -11.246  -1.588  0.00  0.00     0.249 C 
HETATM    4  O           1     -18.173 -11.435  -0.612  0.00  0.00    -0.271 OA
ENDROOT
BRANCH   1   5
HETATM    5  C           1     -20.807  -9.815  -1.237  0.00  0.00     0.189 C 
BRANCH   5   6
HETATM    6  C           1     -21.907  -9.577  -2.264  0.00  0.00     0.074 C 
BRANCH   6   7
HETATM    7  C           1     -21.543  -8.407  -3.126  0.00  0.00    -0.056 A 
HETATM    8  C           1     -21.169  -8.610  -4.454  0.00  0.00     0.010 A 
HETATM    9  C           1     -20.831  -7.522  -5.257  0.00  0.00     0.038 A 
HETATM   10  C           1     -20.866  -6.230  -4.732  0.00  0.00     0.081 A 
HETATM   11  C           1     -21.241  -6.027  -3.403  0.00  0.00     0.038 A 
HETATM   12  C           1     -21.579  -7.116  -2.600  0.00  0.00     0.010 A 
BRANCH  10  13
HETATM   13  O           1     -20.537  -5.172  -5.513  0.00  0.00    -0.247 OA
BRANCH  13  14
HETATM   14  P           1     -21.528  -4.789  -6.728  0.00  0.00     0.411 P 
HETATM   15  O           1     -21.215  -5.630  -7.905  0.00  0.00    -0.624 OA
HETATM   16  O           1     -21.349  -3.363  -7.080  0.00  0.00    -0.624 OA
BRANCH  14  17
HETATM   17  O           1     -23.057  -5.046  -6.276  0.00  0.00    -0.300 OA
HETATM   18  H           1     -23.015  -5.765  -5.669  0.00  0.00     0.223 HD
ENDBRANCH  14  17
ENDBRANCH  13  14
ENDBRANCH  10  13
ENDBRANCH   6   7
ENDBRANCH   5   6
BRANCH   5  19
HETATM   19  C           1     -21.392  -9.753   0.152  0.00  0.00     0.197 C 
HETATM   20  O           1     -20.771 -10.253   1.114  0.00  0.00    -0.646 OA
HETATM   21  O           1     -22.498  -9.201   0.340  0.00  0.00    -0.646 OA
ENDBRANCH   5  19
ENDBRANCH   1   5
BRANCH   3  22
HETATM   22  C           1     -18.223 -11.149  -2.953  0.00  0.00     0.274 C 
BRANCH  22  23
HETATM   23  C           1     -17.803  -9.709  -3.216  0.00  0.00     0.042 C 
BRANCH  23  24
HETATM   24  C           1     -16.289  -9.595  -3.112  0.00  0.00     0.004 C 
BRANCH  24  25
HETATM   25  C           1     -15.643 -10.828  -3.730  0.00  0.00     0.027 C 
BRANCH  25  26
HETATM   26  C           1     -15.396 -10.584  -5.212  0.00  0.00     0.229 C 
BRANCH  26  27
HETATM   27  N           1     -14.769 -11.802  -5.823  0.00  0.00    -0.079 N 
HETATM   28  H           1     -14.876 -11.765  -6.861  0.00  0.00     0.274 HD
HETATM   29  H           1     -13.753 -11.831  -5.579  0.00  0.00     0.274 HD
HETATM   30  H           1     -15.240 -12.659  -5.453  0.00  0.00     0.274 HD
ENDBRANCH  26  27
ENDBRANCH  25  26
ENDBRANCH  24  25
ENDBRANCH  23  24
ENDBRANCH  22  23
BRANCH  22  31
HETATM   31  N           1     -19.210 -11.580  -3.996  0.00  0.00    -0.067 N 
HETATM   32  H           1     -20.137 -11.138  -3.804  0.00  0.00     0.275 HD
HETATM   33  H           1     -18.872 -11.284  -4.939  0.00  0.00     0.275 HD
HETATM   34  H           1     -19.310 -12.620  -3.972  0.00  0.00     0.275 HD
ENDBRANCH  22  31
ENDBRANCH   3  22
TORSDOF 14
ENDMDL
