MODEL 1
REMARK VINA RESULT:      -6.5      0.000      0.000
REMARK  10 active torsions:
REMARK  status: ('A' for Active; 'I' for Inactive)
REMARK    1  A    between atoms: C_1  and  C_5 
REMARK    2  A    between atoms: C_1  and  C_11 
REMARK       I    between atoms: C_3  and  N_12 
REMARK    3  A    between atoms: C_3  and  C_4 
REMARK    4  A    between atoms: C_4  and  C_7 
REMARK    5  A    between atoms: C_4  and  N_24 
REMARK    6  A    between atoms: C_7  and  C_10 
REMARK    7  A    between atoms: C_8  and  C_10 
REMARK    8  A    between atoms: C_8  and  N_17 
REMARK    9  A    between atoms: C_11  and  C_13 
REMARK   10  A    between atoms: C_11  and  N_12 
ROOT
HETATM    1  C           1     -34.228  -2.736 -11.546  0.00  0.00     0.249 C 
HETATM    2  N           1     -35.380  -2.228 -12.083  0.00  0.00    -0.345 N 
HETATM    3  O           1     -33.497  -2.023 -10.901  0.00  0.00    -0.271 OA
HETATM    4  H           1     -35.993  -2.825 -12.624  0.00  0.00     0.163 HD
ENDROOT
BRANCH   1   5
HETATM    5  C           1     -33.872  -4.187 -11.760  0.00  0.00     0.274 C 
BRANCH   5   6
HETATM    6  C           1     -34.113  -4.964 -10.474  0.00  0.00     0.044 C 
BRANCH   6   7
HETATM    7  C           1     -34.147  -6.456 -10.780  0.00  0.00     0.030 C 
BRANCH   7   8
HETATM    8  C           1     -34.941  -7.178  -9.700  0.00  0.00     0.230 C 
BRANCH   8   9
HETATM    9  N           1     -34.364  -8.546  -9.484  0.00  0.00    -0.079 N 
HETATM   10  H           1     -34.800  -9.218 -10.153  0.00  0.00     0.274 HD
HETATM   11  H           1     -34.560  -8.855  -8.504  0.00  0.00     0.274 HD
HETATM   12  H           1     -33.332  -8.517  -9.641  0.00  0.00     0.274 HD
ENDBRANCH   8   9
ENDBRANCH   7   8
ENDBRANCH   6   7
ENDBRANCH   5   6
BRANCH   5  13
HETATM   13  N           1     -32.426  -4.294 -12.146  0.00  0.00    -0.067 N 
HETATM   14  H           1     -32.079  -5.256 -11.933  0.00  0.00     0.275 HD
HETATM   15  H           1     -32.324  -4.105 -13.168  0.00  0.00     0.275 HD
HETATM   16  H           1     -31.869  -3.596 -11.603  0.00  0.00     0.275 HD
ENDBRANCH   5  13
ENDBRANCH   1   5
BRANCH   2  17
HETATM   17  C           1     -35.723  -0.834 -11.878  0.00  0.00     0.185 C 
BRANCH  17  18
HETATM   18  C           1     -36.391  -0.287 -13.132  0.00  0.00     0.040 C 
BRANCH  18  19
HETATM   19  C           1     -35.330   0.013 -14.184  0.00  0.00    -0.020 C 
HETATM   20  C           1     -36.005   0.275 -15.524  0.00  0.00     0.009 C 
HETATM   21  C           1     -34.534   1.241 -13.767  0.00  0.00     0.009 C 
ENDBRANCH  18  19
ENDBRANCH  17  18
BRANCH  17  22
HETATM   22  C           1     -36.671  -0.717 -10.710  0.00  0.00     0.196 C 
HETATM   23  O           1     -37.883  -0.987 -10.860  0.00  0.00    -0.646 OA
HETATM   24  O           1     -36.245  -0.352  -9.593  0.00  0.00    -0.646 OA
ENDBRANCH  17  22
ENDBRANCH   2  17
TORSDOF 10
ENDMDL
MODEL 2
REMARK VINA RESULT:      -6.1     11.911     13.468
REMARK  10 active torsions:
REMARK  status: ('A' for Active; 'I' for Inactive)
REMARK    1  A    between atoms: C_1  and  C_5 
REMARK    2  A    between atoms: C_1  and  C_11 
REMARK       I    between atoms: C_3  and  N_12 
REMARK    3  A    between atoms: C_3  and  C_4 
REMARK    4  A    between atoms: C_4  and  C_7 
REMARK    5  A    between atoms: C_4  and  N_24 
REMARK    6  A    between atoms: C_7  and  C_10 
REMARK    7  A    between atoms: C_8  and  C_10 
REMARK    8  A    between atoms: C_8  and  N_17 
REMARK    9  A    between atoms: C_11  and  C_13 
REMARK   10  A    between atoms: C_11  and  N_12 
ROOT
HETATM    1  C           1     -22.380  -4.060  -7.783  0.00  0.00     0.249 C 
HETATM    2  N           1     -23.255  -4.360  -8.793  0.00  0.00    -0.345 N 
HETATM    3  O           1     -21.503  -3.251  -7.966  0.00  0.00    -0.271 OA
HETATM    4  H           1     -23.990  -5.039  -8.640  0.00  0.00     0.163 HD
ENDROOT
BRANCH   1   5
HETATM    5  C           1     -22.514  -4.740  -6.443  0.00  0.00     0.274 C 
BRANCH   5   6
HETATM    6  C           1     -21.618  -5.970  -6.406  0.00  0.00     0.044 C 
BRANCH   6   7
HETATM    7  C           1     -21.972  -6.822  -5.193  0.00  0.00     0.030 C 
BRANCH   7   8
HETATM    8  C           1     -21.278  -6.262  -3.960  0.00  0.00     0.230 C 
BRANCH   8   9
HETATM    9  N           1     -22.286  -6.057  -2.867  0.00  0.00    -0.079 N 
HETATM   10  H           1     -22.307  -6.900  -2.250  0.00  0.00     0.274 HD
HETATM   11  H           1     -23.231  -5.911  -3.289  0.00  0.00     0.274 HD
HETATM   12  H           1     -22.022  -5.218  -2.303  0.00  0.00     0.274 HD
ENDBRANCH   8   9
ENDBRANCH   7   8
ENDBRANCH   6   7
ENDBRANCH   5   6
BRANCH   5  13
HETATM   13  N           1     -23.940  -5.154  -6.233  0.00  0.00    -0.067 N 
HETATM   14  H           1     -24.575  -4.375  -6.518  0.00  0.00     0.275 HD
HETATM   15  H           1     -24.145  -6.000  -6.811  0.00  0.00     0.275 HD
HETATM   16  H           1     -24.093  -5.375  -5.223  0.00  0.00     0.275 HD
ENDBRANCH   5  13
ENDBRANCH   1   5
BRANCH   2  17
HETATM   17  C           1     -23.127  -3.708 -10.082  0.00  0.00     0.185 C 
BRANCH  17  18
HETATM   18  C           1     -22.519  -4.680 -11.084  0.00  0.00     0.040 C 
BRANCH  18  19
HETATM   19  C           1     -21.145  -4.178 -11.511  0.00  0.00    -0.020 C 
HETATM   20  C           1     -21.108  -2.658 -11.413  0.00  0.00     0.009 C 
HETATM   21  C           1     -20.082  -4.772 -10.598  0.00  0.00     0.009 C 
ENDBRANCH  18  19
ENDBRANCH  17  18
BRANCH  17  22
HETATM   22  C           1     -24.490  -3.275 -10.563  0.00  0.00     0.196 C 
HETATM   23  O           1     -25.436  -3.174  -9.751  0.00  0.00    -0.646 OA
HETATM   24  O           1     -24.673  -3.016 -11.772  0.00  0.00    -0.646 OA
ENDBRANCH  17  22
ENDBRANCH   2  17
TORSDOF 10
ENDMDL
MODEL 3
REMARK VINA RESULT:      -6.1     12.216     14.748
REMARK  10 active torsions:
REMARK  status: ('A' for Active; 'I' for Inactive)
REMARK    1  A    between atoms: C_1  and  C_5 
REMARK    2  A    between atoms: C_1  and  C_11 
REMARK       I    between atoms: C_3  and  N_12 
REMARK    3  A    between atoms: C_3  and  C_4 
REMARK    4  A    between atoms: C_4  and  C_7 
REMARK    5  A    between atoms: C_4  and  N_24 
REMARK    6  A    between atoms: C_7  and  C_10 
REMARK    7  A    between atoms: C_8  and  C_10 
REMARK    8  A    between atoms: C_8  and  N_17 
REMARK    9  A    between atoms: C_11  and  C_13 
REMARK   10  A    between atoms: C_11  and  N_12 
ROOT
HETATM    1  C           1     -23.397  -4.496  -8.774  0.00  0.00     0.249 C 
HETATM    2  N           1     -22.122  -4.968  -8.939  0.00  0.00    -0.345 N 
HETATM    3  O           1     -23.712  -3.956  -7.741  0.00  0.00    -0.271 OA
HETATM    4  H           1     -21.859  -5.420  -9.806  0.00  0.00     0.163 HD
ENDROOT
BRANCH   1   5
HETATM    5  C           1     -24.408  -4.649  -9.885  0.00  0.00     0.274 C 
BRANCH   5   6
HETATM    6  C           1     -23.709  -4.512 -11.230  0.00  0.00     0.044 C 
BRANCH   6   7
HETATM    7  C           1     -23.658  -3.043 -11.630  0.00  0.00     0.030 C 
BRANCH   7   8
HETATM    8  C           1     -22.224  -2.657 -11.964  0.00  0.00     0.230 C 
BRANCH   8   9
HETATM    9  N           1     -21.449  -3.885 -12.342  0.00  0.00    -0.079 N 
HETATM   10  H           1     -20.622  -3.983 -11.712  0.00  0.00     0.274 HD
HETATM   11  H           1     -21.124  -3.800 -13.332  0.00  0.00     0.274 HD
HETATM   12  H           1     -22.062  -4.726 -12.247  0.00  0.00     0.274 HD
ENDBRANCH   8   9
ENDBRANCH   7   8
ENDBRANCH   6   7
ENDBRANCH   5   6
BRANCH   5  13
HETATM   13  N           1     -25.457  -3.584  -9.756  0.00  0.00    -0.067 N 
HETATM   14  H           1     -25.754  -3.271 -10.707  0.00  0.00     0.275 HD
HETATM   15  H           1     -26.282  -3.970  -9.243  0.00  0.00     0.275 HD
HETATM   16  H           1     -25.065  -2.772  -9.228  0.00  0.00     0.275 HD
ENDBRANCH   5  13
ENDBRANCH   1   5
BRANCH   2  17
HETATM   17  C           1     -21.151  -4.821  -7.873  0.00  0.00     0.185 C 
BRANCH  17  18
HETATM   18  C           1     -20.888  -6.180  -7.237  0.00  0.00     0.040 C 
BRANCH  18  19
HETATM   19  C           1     -21.491  -6.213  -5.838  0.00  0.00    -0.020 C 
HETATM   20  C           1     -21.472  -7.641  -5.311  0.00  0.00     0.009 C 
HETATM   21  C           1     -20.677  -5.319  -4.914  0.00  0.00     0.009 C 
ENDBRANCH  18  19
ENDBRANCH  17  18
BRANCH  17  22
HETATM   22  C           1     -19.864  -4.271  -8.438  0.00  0.00     0.196 C 
HETATM   23  O           1     -19.830  -3.848  -9.614  0.00  0.00    -0.646 OA
HETATM   24  O           1     -18.835  -4.238  -7.730  0.00  0.00    -0.646 OA
ENDBRANCH  17  22
ENDBRANCH   2  17
TORSDOF 10
ENDMDL
MODEL 4
REMARK VINA RESULT:      -6.0     12.238     13.682
REMARK  10 active torsions:
REMARK  status: ('A' for Active; 'I' for Inactive)
REMARK    1  A    between atoms: C_1  and  C_5 
REMARK    2  A    between atoms: C_1  and  C_11 
REMARK       I    between atoms: C_3  and  N_12 
REMARK    3  A    between atoms: C_3  and  C_4 
REMARK    4  A    between atoms: C_4  and  C_7 
REMARK    5  A    between atoms: C_4  and  N_24 
REMARK    6  A    between atoms: C_7  and  C_10 
REMARK    7  A    between atoms: C_8  and  C_10 
REMARK    8  A    between atoms: C_8  and  N_17 
REMARK    9  A    between atoms: C_11  and  C_13 
REMARK   10  A    between atoms: C_11  and  N_12 
ROOT
HETATM    1  C           1     -21.543  -4.876  -7.929  0.00  0.00     0.249 C 
HETATM    2  N           1     -22.380  -5.200  -8.964  0.00  0.00    -0.345 N 
HETATM    3  O           1     -21.172  -3.736  -7.787  0.00  0.00    -0.271 OA
HETATM    4  H           1     -22.690  -6.156  -9.083  0.00  0.00     0.163 HD
ENDROOT
BRANCH   1   5
HETATM    5  C           1     -21.085  -5.945  -6.967  0.00  0.00     0.274 C 
BRANCH   5   6
HETATM    6  C           1     -21.302  -5.469  -5.538  0.00  0.00     0.044 C 
BRANCH   6   7
HETATM    7  C           1     -22.130  -6.498  -4.779  0.00  0.00     0.030 C 
BRANCH   7   8
HETATM    8  C           1     -21.570  -6.663  -3.373  0.00  0.00     0.230 C 
BRANCH   8   9
HETATM    9  N           1     -22.412  -5.885  -2.404  0.00  0.00    -0.079 N 
HETATM   10  H           1     -23.334  -6.361  -2.284  0.00  0.00     0.274 HD
HETATM   11  H           1     -22.564  -4.919  -2.773  0.00  0.00     0.274 HD
HETATM   12  H           1     -21.923  -5.834  -1.482  0.00  0.00     0.274 HD
ENDBRANCH   8   9
ENDBRANCH   7   8
ENDBRANCH   6   7
ENDBRANCH   5   6
BRANCH   5  13
HETATM   13  N           1     -19.627  -6.222  -7.186  0.00  0.00    -0.067 N 
HETATM   14  H           1     -19.483  -6.593  -8.151  0.00  0.00     0.275 HD
HETATM   15  H           1     -19.084  -5.337  -7.068  0.00  0.00     0.275 HD
HETATM   16  H           1     -19.299  -6.929  -6.489  0.00  0.00     0.275 HD
ENDBRANCH   5  13
ENDBRANCH   1   5
BRANCH   2  17
HETATM   17  C           1     -22.819  -4.174  -9.889  0.00  0.00     0.185 C 
BRANCH  17  18
HETATM   18  C           1     -22.574  -4.640 -11.317  0.00  0.00     0.040 C 
BRANCH  18  19
HETATM   19  C           1     -21.828  -3.555 -12.085  0.00  0.00    -0.020 C 
HETATM   20  C           1     -22.813  -2.484 -12.533  0.00  0.00     0.009 C 
HETATM   21  C           1     -20.773  -2.930 -11.184  0.00  0.00     0.009 C 
ENDBRANCH  18  19
ENDBRANCH  17  18
BRANCH  17  22
HETATM   22  C           1     -24.293  -3.916  -9.689  0.00  0.00     0.196 C 
HETATM   23  O           1     -25.102  -4.871  -9.708  0.00  0.00    -0.646 OA
HETATM   24  O           1     -24.705  -2.751  -9.505  0.00  0.00    -0.646 OA
ENDBRANCH  17  22
ENDBRANCH   2  17
TORSDOF 10
ENDMDL
MODEL 5
REMARK VINA RESULT:      -6.0      2.803      5.498
REMARK  10 active torsions:
REMARK  status: ('A' for Active; 'I' for Inactive)
REMARK    1  A    between atoms: C_1  and  C_5 
REMARK    2  A    between atoms: C_1  and  C_11 
REMARK       I    between atoms: C_3  and  N_12 
REMARK    3  A    between atoms: C_3  and  C_4 
REMARK    4  A    between atoms: C_4  and  C_7 
REMARK    5  A    between atoms: C_4  and  N_24 
REMARK    6  A    between atoms: C_7  and  C_10 
REMARK    7  A    between atoms: C_8  and  C_10 
REMARK    8  A    between atoms: C_8  and  N_17 
REMARK    9  A    between atoms: C_11  and  C_13 
REMARK   10  A    between atoms: C_11  and  N_12 
ROOT
HETATM    1  C           1     -35.974  -0.415 -13.191  0.00  0.00     0.249 C 
HETATM    2  N           1     -35.126  -0.609 -12.134  0.00  0.00    -0.345 N 
HETATM    3  O           1     -36.961  -1.101 -13.306  0.00  0.00    -0.271 OA
HETATM    4  H           1     -34.299  -0.033 -12.037  0.00  0.00     0.163 HD
ENDROOT
BRANCH   1   5
HETATM    5  C           1     -35.676   0.655 -14.212  0.00  0.00     0.274 C 
BRANCH   5   6
HETATM    6  C           1     -36.317   0.283 -15.541  0.00  0.00     0.044 C 
BRANCH   6   7
HETATM    7  C           1     -35.273  -0.354 -16.450  0.00  0.00     0.030 C 
BRANCH   7   8
HETATM    8  C           1     -35.588  -1.832 -16.627  0.00  0.00     0.230 C 
BRANCH   8   9
HETATM    9  N           1     -34.329  -2.575 -16.967  0.00  0.00    -0.079 N 
HETATM   10  H           1     -34.292  -3.465 -16.421  0.00  0.00     0.274 HD
HETATM   11  H           1     -33.501  -1.984 -16.727  0.00  0.00     0.274 HD
HETATM   12  H           1     -34.319  -2.793 -17.989  0.00  0.00     0.274 HD
ENDBRANCH   8   9
ENDBRANCH   7   8
ENDBRANCH   6   7
ENDBRANCH   5   6
BRANCH   5  13
HETATM   13  N           1     -34.191   0.775 -14.390  0.00  0.00    -0.067 N 
HETATM   14  H           1     -33.736   0.891 -13.457  0.00  0.00     0.275 HD
HETATM   15  H           1     -33.825  -0.088 -14.851  0.00  0.00     0.275 HD
HETATM   16  H           1     -33.978   1.607 -14.987  0.00  0.00     0.275 HD
ENDBRANCH   5  13
ENDBRANCH   1   5
BRANCH   2  17
HETATM   17  C           1     -35.413  -1.637 -11.153  0.00  0.00     0.185 C 
BRANCH  17  18
HETATM   18  C           1     -34.119  -2.059 -10.469  0.00  0.00     0.040 C 
BRANCH  18  19
HETATM   19  C           1     -33.905  -3.555 -10.664  0.00  0.00    -0.020 C 
HETATM   20  C           1     -35.199  -4.193 -11.151  0.00  0.00     0.009 C 
HETATM   21  C           1     -32.808  -3.780 -11.696  0.00  0.00     0.009 C 
ENDBRANCH  18  19
ENDBRANCH  17  18
BRANCH  17  22
HETATM   22  C           1     -36.374  -1.095 -10.124  0.00  0.00     0.196 C 
HETATM   23  O           1     -37.598  -1.331 -10.227  0.00  0.00    -0.646 OA
HETATM   24  O           1     -35.947  -0.413  -9.168  0.00  0.00    -0.646 OA
ENDBRANCH  17  22
ENDBRANCH   2  17
TORSDOF 10
ENDMDL
MODEL 6
REMARK VINA RESULT:      -5.8     12.760     15.395
REMARK  10 active torsions:
REMARK  status: ('A' for Active; 'I' for Inactive)
REMARK    1  A    between atoms: C_1  and  C_5 
REMARK    2  A    between atoms: C_1  and  C_11 
REMARK       I    between atoms: C_3  and  N_12 
REMARK    3  A    between atoms: C_3  and  C_4 
REMARK    4  A    between atoms: C_4  and  C_7 
REMARK    5  A    between atoms: C_4  and  N_24 
REMARK    6  A    between atoms: C_7  and  C_10 
REMARK    7  A    between atoms: C_8  and  C_10 
REMARK    8  A    between atoms: C_8  and  N_17 
REMARK    9  A    between atoms: C_11  and  C_13 
REMARK   10  A    between atoms: C_11  and  N_12 
ROOT
HETATM    1  C           1     -22.492  -4.244  -7.908  0.00  0.00     0.249 C 
HETATM    2  N           1     -22.451  -5.368  -7.127  0.00  0.00    -0.345 N 
HETATM    3  O           1     -21.840  -3.275  -7.605  0.00  0.00    -0.271 OA
HETATM    4  H           1     -22.998  -6.181  -7.381  0.00  0.00     0.163 HD
ENDROOT
BRANCH   1   5
HETATM    5  C           1     -23.353  -4.218  -9.147  0.00  0.00     0.274 C 
BRANCH   5   6
HETATM    6  C           1     -22.547  -3.665 -10.314  0.00  0.00     0.044 C 
BRANCH   6   7
HETATM    7  C           1     -23.482  -2.968 -11.294  0.00  0.00     0.030 C 
BRANCH   7   8
HETATM    8  C           1     -22.923  -3.090 -12.704  0.00  0.00     0.230 C 
BRANCH   8   9
HETATM    9  N           1     -21.576  -3.751 -12.654  0.00  0.00    -0.079 N 
HETATM   10  H           1     -21.245  -3.941 -13.626  0.00  0.00     0.274 HD
HETATM   11  H           1     -21.651  -4.652 -12.129  0.00  0.00     0.274 HD
HETATM   12  H           1     -20.897  -3.121 -12.171  0.00  0.00     0.274 HD
ENDBRANCH   8   9
ENDBRANCH   7   8
ENDBRANCH   6   7
ENDBRANCH   5   6
BRANCH   5  13
HETATM   13  N           1     -24.548  -3.344  -8.907  0.00  0.00    -0.067 N 
HETATM   14  H           1     -25.160  -3.350  -9.754  0.00  0.00     0.275 HD
HETATM   15  H           1     -25.085  -3.707  -8.087  0.00  0.00     0.275 HD
HETATM   16  H           1     -24.231  -2.368  -8.713  0.00  0.00     0.275 HD
ENDBRANCH   5  13
ENDBRANCH   1   5
BRANCH   2  17
HETATM   17  C           1     -21.625  -5.394  -5.936  0.00  0.00     0.185 C 
BRANCH  17  18
HETATM   18  C           1     -22.096  -6.511  -5.015  0.00  0.00     0.040 C 
BRANCH  18  19
HETATM   19  C           1     -21.212  -6.556  -3.775  0.00  0.00    -0.020 C 
HETATM   20  C           1     -22.036  -6.177  -2.551  0.00  0.00     0.009 C 
HETATM   21  C           1     -20.657  -7.963  -3.599  0.00  0.00     0.009 C 
ENDBRANCH  18  19
ENDBRANCH  17  18
BRANCH  17  22
HETATM   22  C           1     -20.187  -5.636  -6.327  0.00  0.00     0.196 C 
HETATM   23  O           1     -19.868  -6.700  -6.903  0.00  0.00    -0.646 OA
HETATM   24  O           1     -19.317  -4.775  -6.077  0.00  0.00    -0.646 OA
ENDBRANCH  17  22
ENDBRANCH   2  17
TORSDOF 10
ENDMDL
MODEL 7
REMARK VINA RESULT:      -5.7     14.318     16.638
REMARK  10 active torsions:
REMARK  status: ('A' for Active; 'I' for Inactive)
REMARK    1  A    between atoms: C_1  and  C_5 
REMARK    2  A    between atoms: C_1  and  C_11 
REMARK       I    between atoms: C_3  and  N_12 
REMARK    3  A    between atoms: C_3  and  C_4 
REMARK    4  A    between atoms: C_4  and  C_7 
REMARK    5  A    between atoms: C_4  and  N_24 
REMARK    6  A    between atoms: C_7  and  C_10 
REMARK    7  A    between atoms: C_8  and  C_10 
REMARK    8  A    between atoms: C_8  and  N_17 
REMARK    9  A    between atoms: C_11  and  C_13 
REMARK   10  A    between atoms: C_11  and  N_12 
ROOT
HETATM    1  C           1     -20.811  -5.571  -6.988  0.00  0.00     0.249 C 
HETATM    2  N           1     -21.510  -6.412  -6.164  0.00  0.00    -0.345 N 
HETATM    3  O           1     -19.635  -5.377  -6.794  0.00  0.00    -0.271 OA
HETATM    4  H           1     -22.496  -6.575  -6.327  0.00  0.00     0.163 HD
ENDROOT
BRANCH   1   5
HETATM    5  C           1     -21.509  -4.889  -8.139  0.00  0.00     0.274 C 
BRANCH   5   6
HETATM    6  C           1     -20.507  -4.044  -8.912  0.00  0.00     0.044 C 
BRANCH   6   7
HETATM    7  C           1     -20.560  -4.416 -10.389  0.00  0.00     0.030 C 
BRANCH   7   8
HETATM    8  C           1     -21.739  -3.714 -11.048  0.00  0.00     0.230 C 
BRANCH   8   9
HETATM    9  N           1     -21.591  -3.779 -12.539  0.00  0.00    -0.079 N 
HETATM   10  H           1     -20.632  -4.114 -12.781  0.00  0.00     0.274 HD
HETATM   11  H           1     -21.740  -2.827 -12.946  0.00  0.00     0.274 HD
HETATM   12  H           1     -22.300  -4.440 -12.931  0.00  0.00     0.274 HD
ENDBRANCH   8   9
ENDBRANCH   7   8
ENDBRANCH   6   7
ENDBRANCH   5   6
BRANCH   5  13
HETATM   13  N           1     -22.601  -4.007  -7.608  0.00  0.00    -0.067 N 
HETATM   14  H           1     -22.706  -3.172  -8.227  0.00  0.00     0.275 HD
HETATM   15  H           1     -23.499  -4.541  -7.587  0.00  0.00     0.275 HD
HETATM   16  H           1     -22.357  -3.695  -6.641  0.00  0.00     0.275 HD
ENDBRANCH   5  13
ENDBRANCH   1   5
BRANCH   2  17
HETATM   17  C           1     -20.840  -7.068  -5.059  0.00  0.00     0.185 C 
BRANCH  17  18
HETATM   18  C           1     -21.821  -7.251  -3.908  0.00  0.00     0.040 C 
BRANCH  18  19
HETATM   19  C           1     -21.167  -6.800  -2.607  0.00  0.00    -0.020 C 
HETATM   20  C           1     -22.235  -6.258  -1.665  0.00  0.00     0.009 C 
HETATM   21  C           1     -20.468  -7.985  -1.954  0.00  0.00     0.009 C 
ENDBRANCH  18  19
ENDBRANCH  17  18
BRANCH  17  22
HETATM   22  C           1     -20.333  -8.417  -5.508  0.00  0.00     0.196 C 
HETATM   23  O           1     -21.144  -9.331  -5.776  0.00  0.00    -0.646 OA
HETATM   24  O           1     -19.105  -8.619  -5.613  0.00  0.00    -0.646 OA
ENDBRANCH  17  22
ENDBRANCH   2  17
TORSDOF 10
ENDMDL
MODEL 8
REMARK VINA RESULT:      -5.6     14.307     16.874
REMARK  10 active torsions:
REMARK  status: ('A' for Active; 'I' for Inactive)
REMARK    1  A    between atoms: C_1  and  C_5 
REMARK    2  A    between atoms: C_1  and  C_11 
REMARK       I    between atoms: C_3  and  N_12 
REMARK    3  A    between atoms: C_3  and  C_4 
REMARK    4  A    between atoms: C_4  and  C_7 
REMARK    5  A    between atoms: C_4  and  N_24 
REMARK    6  A    between atoms: C_7  and  C_10 
REMARK    7  A    between atoms: C_8  and  C_10 
REMARK    8  A    between atoms: C_8  and  N_17 
REMARK    9  A    between atoms: C_11  and  C_13 
REMARK   10  A    between atoms: C_11  and  N_12 
ROOT
HETATM    1  C           1     -21.347  -5.917  -5.473  0.00  0.00     0.249 C 
HETATM    2  N           1     -20.786  -6.781  -4.571  0.00  0.00    -0.345 N 
HETATM    3  O           1     -22.548  -5.803  -5.531  0.00  0.00    -0.271 OA
HETATM    4  H           1     -19.779  -6.877  -4.522  0.00  0.00     0.163 HD
ENDROOT
BRANCH   1   5
HETATM    5  C           1     -20.465  -5.108  -6.392  0.00  0.00     0.274 C 
BRANCH   5   6
HETATM    6  C           1     -21.263  -3.946  -6.968  0.00  0.00     0.044 C 
BRANCH   6   7
HETATM    7  C           1     -21.360  -4.097  -8.481  0.00  0.00     0.030 C 
BRANCH   7   8
HETATM    8  C           1     -22.800  -3.871  -8.922  0.00  0.00     0.230 C 
BRANCH   8   9
HETATM    9  N           1     -23.725  -4.147  -7.774  0.00  0.00    -0.079 N 
HETATM   10  H           1     -24.624  -4.535  -8.136  0.00  0.00     0.274 HD
HETATM   11  H           1     -23.913  -3.258  -7.256  0.00  0.00     0.274 HD
HETATM   12  H           1     -23.282  -4.839  -7.128  0.00  0.00     0.274 HD
ENDBRANCH   8   9
ENDBRANCH   7   8
ENDBRANCH   6   7
ENDBRANCH   5   6
BRANCH   5  13
HETATM   13  N           1     -19.975  -5.980  -7.509  0.00  0.00    -0.067 N 
HETATM   14  H           1     -19.195  -5.499  -8.011  0.00  0.00     0.275 HD
HETATM   15  H           1     -19.631  -6.886  -7.118  0.00  0.00     0.275 HD
HETATM   16  H           1     -20.758  -6.163  -8.177  0.00  0.00     0.275 HD
ENDBRANCH   5  13
ENDBRANCH   1   5
BRANCH   2  17
HETATM   17  C           1     -21.632  -7.559  -3.688  0.00  0.00     0.185 C 
BRANCH  17  18
HETATM   18  C           1     -21.068  -8.968  -3.556  0.00  0.00     0.040 C 
BRANCH  18  19
HETATM   19  C           1     -19.674  -9.016  -4.169  0.00  0.00    -0.020 C 
HETATM   20  C           1     -18.653  -9.326  -3.082  0.00  0.00     0.009 C 
HETATM   21  C           1     -19.626 -10.102  -5.235  0.00  0.00     0.009 C 
ENDBRANCH  18  19
ENDBRANCH  17  18
BRANCH  17  22
HETATM   22  C           1     -21.676  -6.905  -2.329  0.00  0.00     0.196 C 
HETATM   23  O           1     -21.084  -7.433  -1.362  0.00  0.00    -0.646 OA
HETATM   24  O           1     -22.301  -5.834  -2.170  0.00  0.00    -0.646 OA
ENDBRANCH  17  22
ENDBRANCH   2  17
TORSDOF 10
ENDMDL
MODEL 9
REMARK VINA RESULT:      -5.6      2.800      6.234
REMARK  10 active torsions:
REMARK  status: ('A' for Active; 'I' for Inactive)
REMARK    1  A    between atoms: C_1  and  C_5 
REMARK    2  A    between atoms: C_1  and  C_11 
REMARK       I    between atoms: C_3  and  N_12 
REMARK    3  A    between atoms: C_3  and  C_4 
REMARK    4  A    between atoms: C_4  and  C_7 
REMARK    5  A    between atoms: C_4  and  N_24 
REMARK    6  A    between atoms: C_7  and  C_10 
REMARK    7  A    between atoms: C_8  and  C_10 
REMARK    8  A    between atoms: C_8  and  N_17 
REMARK    9  A    between atoms: C_11  and  C_13 
REMARK   10  A    between atoms: C_11  and  N_12 
ROOT
HETATM    1  C           1     -35.098  -1.507 -13.950  0.00  0.00     0.249 C 
HETATM    2  N           1     -35.453  -0.978 -12.738  0.00  0.00    -0.345 N 
HETATM    3  O           1     -34.842  -2.683 -14.042  0.00  0.00    -0.271 OA
HETATM    4  H           1     -35.667   0.009 -12.660  0.00  0.00     0.163 HD
ENDROOT
BRANCH   1   5
HETATM    5  C           1     -35.027  -0.621 -15.169  0.00  0.00     0.274 C 
BRANCH   5   6
HETATM    6  C           1     -36.131   0.426 -15.100  0.00  0.00     0.044 C 
BRANCH   6   7
HETATM    7  C           1     -35.592   1.766 -15.585  0.00  0.00     0.030 C 
BRANCH   7   8
HETATM    8  C           1     -36.710   2.549 -16.259  0.00  0.00     0.230 C 
BRANCH   8   9
HETATM    9  N           1     -37.999   1.789 -16.136  0.00  0.00    -0.079 N 
HETATM   10  H           1     -38.688   2.357 -15.595  0.00  0.00     0.274 HD
HETATM   11  H           1     -37.824   0.887 -15.638  0.00  0.00     0.274 HD
HETATM   12  H           1     -38.380   1.594 -17.089  0.00  0.00     0.274 HD
ENDBRANCH   8   9
ENDBRANCH   7   8
ENDBRANCH   6   7
ENDBRANCH   5   6
BRANCH   5  13
HETATM   13  N           1     -35.205  -1.454 -16.404  0.00  0.00    -0.067 N 
HETATM   14  H           1     -36.172  -1.849 -16.421  0.00  0.00     0.275 HD
HETATM   15  H           1     -35.058  -0.858 -17.249  0.00  0.00     0.275 HD
HETATM   16  H           1     -34.510  -2.234 -16.399  0.00  0.00     0.275 HD
ENDBRANCH   5  13
ENDBRANCH   1   5
BRANCH   2  17
HETATM   17  C           1     -35.520  -1.829 -11.566  0.00  0.00     0.185 C 
BRANCH  17  18
HETATM   18  C           1     -34.133  -1.949 -10.947  0.00  0.00     0.040 C 
BRANCH  18  19
HETATM   19  C           1     -33.815  -3.418 -10.695  0.00  0.00    -0.020 C 
HETATM   20  C           1     -35.070  -4.253 -10.911  0.00  0.00     0.009 C 
HETATM   21  C           1     -32.729  -3.874 -11.659  0.00  0.00     0.009 C 
ENDBRANCH  18  19
ENDBRANCH  17  18
BRANCH  17  22
HETATM   22  C           1     -36.469  -1.224 -10.561  0.00  0.00     0.196 C 
HETATM   23  O           1     -36.026  -0.733  -9.500  0.00  0.00    -0.646 OA
HETATM   24  O           1     -37.698  -1.214 -10.789  0.00  0.00    -0.646 OA
ENDBRANCH  17  22
ENDBRANCH   2  17
TORSDOF 10
ENDMDL
