MODEL 1
REMARK VINA RESULT:      -5.6      0.000      0.000
REMARK  7 active torsions:
REMARK  status: ('A' for Active; 'I' for Inactive)
REMARK    1  A    between atoms: C_1  and  C_8 
REMARK    2  A    between atoms: C_1  and  O_2 
REMARK    3  A    between atoms: O_2  and  P_3 
REMARK    4  A    between atoms: P_3  and  O_10 
REMARK    5  A    between atoms: C_6  and  C_8 
REMARK    6  A    between atoms: C_8  and  N_23 
REMARK    7  A    between atoms: C_21  and  C_22 
REMARK       I    between atoms: C_22  and  N_23 
ROOT
HETATM    1  O           1     -35.844  -2.332 -11.510  0.00  0.00    -0.271 OA
HETATM    2  C           1     -35.122  -1.799 -12.318  0.00  0.00     0.249 C 
HETATM    3  N           1     -34.333  -2.560 -13.138  0.00  0.00    -0.343 N 
HETATM    4  H           1     -33.728  -2.114 -13.815  0.00  0.00     0.163 HD
ENDROOT
BRANCH   3   5
HETATM    5  C           1     -34.365  -4.007 -13.037  0.00  0.00     0.210 C 
BRANCH   5   6
HETATM    6  C           1     -34.118  -4.616 -14.411  0.00  0.00     0.217 C 
BRANCH   6   7
HETATM    7  O           1     -33.516  -3.662 -15.245  0.00  0.00    -0.287 OA
BRANCH   7   8
HETATM    8  P           1     -32.707  -4.243 -16.516  0.00  0.00     0.406 P 
HETATM    9  O           1     -31.275  -4.384 -16.169  0.00  0.00    -0.624 OA
HETATM   10  O           1     -32.849  -3.313 -17.658  0.00  0.00    -0.624 OA
BRANCH   8  11
HETATM   11  O           1     -33.307  -5.688 -16.919  0.00  0.00    -0.300 OA
HETATM   12  H           1     -33.034  -5.825 -17.810  0.00  0.00     0.223 HD
ENDBRANCH   8  11
ENDBRANCH   7   8
ENDBRANCH   6   7
ENDBRANCH   5   6
BRANCH   5  13
HETATM   13  C           1     -33.293  -4.468 -12.081  0.00  0.00     0.198 C 
HETATM   14  O           1     -32.090  -4.411 -12.417  0.00  0.00    -0.646 OA
HETATM   15  O           1     -33.607  -4.906 -10.954  0.00  0.00    -0.646 OA
ENDBRANCH   5  13
ENDBRANCH   3   5
BRANCH   2  16
HETATM   16  C           1     -35.087  -0.294 -12.423  0.00  0.00     0.274 C 
HETATM   17  N           1     -34.538   0.101 -13.762  0.00  0.00    -0.067 N 
HETATM   18  H           1     -34.514   1.142 -13.835  0.00  0.00     0.275 HD
HETATM   19  H           1     -33.569  -0.278 -13.865  0.00  0.00     0.275 HD
HETATM   20  H           1     -35.147  -0.289 -14.516  0.00  0.00     0.275 HD
HETATM   21 Se           1     -36.672   0.205 -15.112  0.00  0.00     0.000 Se
HETATM   22  C           1     -38.065  -0.698 -16.132  0.00  0.00     0.000 C 
HETATM   23  C           1     -37.386  -0.308 -13.373  0.00  0.00     0.003 C 
HETATM   24  C           1     -36.499   0.258 -12.271  0.00  0.00     0.042 C 
ENDBRANCH   2  16
TORSDOF 7
ENDMDL
MODEL 2
REMARK VINA RESULT:      -5.4     14.603     16.553
REMARK  7 active torsions:
REMARK  status: ('A' for Active; 'I' for Inactive)
REMARK    1  A    between atoms: C_1  and  C_8 
REMARK    2  A    between atoms: C_1  and  O_2 
REMARK    3  A    between atoms: O_2  and  P_3 
REMARK    4  A    between atoms: P_3  and  O_10 
REMARK    5  A    between atoms: C_6  and  C_8 
REMARK    6  A    between atoms: C_8  and  N_23 
REMARK    7  A    between atoms: C_21  and  C_22 
REMARK       I    between atoms: C_22  and  N_23 
ROOT
HETATM    1  O           1     -21.057  -6.681  -7.335  0.00  0.00    -0.271 OA
HETATM    2  C           1     -20.615  -5.833  -6.599  0.00  0.00     0.249 C 
HETATM    3  N           1     -20.512  -6.078  -5.256  0.00  0.00    -0.343 N 
HETATM    4  H           1     -20.141  -5.367  -4.638  0.00  0.00     0.163 HD
ENDROOT
BRANCH   3   5
HETATM    5  C           1     -20.933  -7.357  -4.718  0.00  0.00     0.210 C 
BRANCH   5   6
HETATM    6  C           1     -19.716  -8.251  -4.523  0.00  0.00     0.217 C 
BRANCH   6   7
HETATM    7  O           1     -19.622  -9.154  -5.592  0.00  0.00    -0.287 OA
BRANCH   7   8
HETATM    8  P           1     -20.249 -10.620  -5.337  0.00  0.00     0.406 P 
HETATM    9  O           1     -19.168 -11.632  -5.363  0.00  0.00    -0.624 OA
HETATM   10  O           1     -21.236 -10.925  -6.395  0.00  0.00    -0.624 OA
BRANCH   8  11
HETATM   11  O           1     -20.977 -10.649  -3.895  0.00  0.00    -0.300 OA
HETATM   12  H           1     -21.585 -11.367  -3.944  0.00  0.00     0.223 HD
ENDBRANCH   8  11
ENDBRANCH   7   8
ENDBRANCH   6   7
ENDBRANCH   5   6
BRANCH   5  13
HETATM   13  C           1     -21.619  -7.143  -3.391  0.00  0.00     0.198 C 
HETATM   14  O           1     -21.576  -8.033  -2.515  0.00  0.00    -0.646 OA
HETATM   15  O           1     -22.229  -6.076  -3.168  0.00  0.00    -0.646 OA
ENDBRANCH   5  13
ENDBRANCH   3   5
BRANCH   2  16
HETATM   16  C           1     -20.177  -4.501  -7.157  0.00  0.00     0.274 C 
HETATM   17  N           1     -19.751  -4.674  -8.586  0.00  0.00    -0.067 N 
HETATM   18  H           1     -19.448  -3.753  -8.974  0.00  0.00     0.275 HD
HETATM   19  H           1     -18.955  -5.350  -8.631  0.00  0.00     0.275 HD
HETATM   20  H           1     -20.554  -5.042  -9.146  0.00  0.00     0.275 HD
HETATM   21 Se           1     -21.951  -4.275  -9.764  0.00  0.00     0.000 Se
HETATM   22  C           1     -23.681  -4.937 -10.370  0.00  0.00     0.000 C 
HETATM   23  C           1     -22.505  -4.050  -7.909  0.00  0.00     0.003 C 
HETATM   24  C           1     -21.337  -3.516  -7.091  0.00  0.00     0.042 C 
ENDBRANCH   2  16
TORSDOF 7
ENDMDL
MODEL 3
REMARK VINA RESULT:      -5.2      2.401      3.307
REMARK  7 active torsions:
REMARK  status: ('A' for Active; 'I' for Inactive)
REMARK    1  A    between atoms: C_1  and  C_8 
REMARK    2  A    between atoms: C_1  and  O_2 
REMARK    3  A    between atoms: O_2  and  P_3 
REMARK    4  A    between atoms: P_3  and  O_10 
REMARK    5  A    between atoms: C_6  and  C_8 
REMARK    6  A    between atoms: C_8  and  N_23 
REMARK    7  A    between atoms: C_21  and  C_22 
REMARK       I    between atoms: C_22  and  N_23 
ROOT
HETATM    1  O           1     -36.763  -1.709 -16.515  0.00  0.00    -0.271 OA
HETATM    2  C           1     -35.767  -1.107 -16.195  0.00  0.00     0.249 C 
HETATM    3  N           1     -34.550  -1.732 -16.221  0.00  0.00    -0.343 N 
HETATM    4  H           1     -33.714  -1.228 -15.953  0.00  0.00     0.163 HD
ENDROOT
BRANCH   3   5
HETATM    5  C           1     -34.456  -3.120 -16.633  0.00  0.00     0.210 C 
BRANCH   5   6
HETATM    6  C           1     -33.092  -3.371 -17.262  0.00  0.00     0.217 C 
BRANCH   6   7
HETATM    7  O           1     -32.237  -3.948 -16.312  0.00  0.00    -0.287 OA
BRANCH   7   8
HETATM    8  P           1     -31.229  -5.083 -16.863  0.00  0.00     0.406 P 
HETATM    9  O           1     -30.205  -5.376 -15.836  0.00  0.00    -0.624 OA
HETATM   10  O           1     -30.567  -4.598 -18.095  0.00  0.00    -0.624 OA
BRANCH   8  11
HETATM   11  O           1     -32.062  -6.427 -17.192  0.00  0.00    -0.300 OA
HETATM   12  H           1     -31.854  -7.020 -16.490  0.00  0.00     0.223 HD
ENDBRANCH   8  11
ENDBRANCH   7   8
ENDBRANCH   6   7
ENDBRANCH   5   6
BRANCH   5  13
HETATM   13  C           1     -34.629  -4.014 -15.429  0.00  0.00     0.198 C 
HETATM   14  O           1     -35.077  -5.172 -15.571  0.00  0.00    -0.646 OA
HETATM   15  O           1     -34.324  -3.596 -14.292  0.00  0.00    -0.646 OA
ENDBRANCH   5  13
ENDBRANCH   3   5
BRANCH   2  16
HETATM   16  C           1     -35.863   0.337 -15.765  0.00  0.00     0.274 C 
HETATM   17  N           1     -37.220   0.595 -15.181  0.00  0.00    -0.067 N 
HETATM   18  H           1     -37.288   1.594 -14.883  0.00  0.00     0.275 HD
HETATM   19  H           1     -37.952   0.396 -15.901  0.00  0.00     0.275 HD
HETATM   20  H           1     -37.367  -0.027 -14.354  0.00  0.00     0.275 HD
HETATM   21 Se           1     -36.776   0.059 -12.752  0.00  0.00     0.000 Se
HETATM   22  C           1     -36.591  -1.255 -11.323  0.00  0.00     0.000 C 
HETATM   23  C           1     -35.012  -0.277 -13.510  0.00  0.00     0.003 C 
HETATM   24  C           1     -34.797   0.627 -14.717  0.00  0.00     0.042 C 
ENDBRANCH   2  16
TORSDOF 7
ENDMDL
MODEL 4
REMARK VINA RESULT:      -5.1     15.540     17.905
REMARK  7 active torsions:
REMARK  status: ('A' for Active; 'I' for Inactive)
REMARK    1  A    between atoms: C_1  and  C_8 
REMARK    2  A    between atoms: C_1  and  O_2 
REMARK    3  A    between atoms: O_2  and  P_3 
REMARK    4  A    between atoms: P_3  and  O_10 
REMARK    5  A    between atoms: C_6  and  C_8 
REMARK    6  A    between atoms: C_8  and  N_23 
REMARK    7  A    between atoms: C_21  and  C_22 
REMARK       I    between atoms: C_22  and  N_23 
ROOT
HETATM    1  O           1     -19.555  -8.796  -5.477  0.00  0.00    -0.271 OA
HETATM    2  C           1     -20.681  -9.189  -5.288  0.00  0.00     0.249 C 
HETATM    3  N           1     -21.625  -8.342  -4.773  0.00  0.00    -0.343 N 
HETATM    4  H           1     -22.569  -8.672  -4.614  0.00  0.00     0.163 HD
ENDROOT
BRANCH   3   5
HETATM    5  C           1     -21.273  -6.972  -4.454  0.00  0.00     0.210 C 
BRANCH   5   6
HETATM    6  C           1     -22.110  -6.024  -5.302  0.00  0.00     0.217 C 
BRANCH   6   7
HETATM    7  O           1     -21.516  -5.875  -6.564  0.00  0.00    -0.287 OA
BRANCH   7   8
HETATM    8  P           1     -21.996  -4.597  -7.426  0.00  0.00     0.406 P 
HETATM    9  O           1     -21.749  -4.849  -8.864  0.00  0.00    -0.624 OA
HETATM   10  O           1     -21.240  -3.400  -6.998  0.00  0.00    -0.624 OA
BRANCH   8  11
HETATM   11  O           1     -23.575  -4.351  -7.188  0.00  0.00    -0.300 OA
HETATM   12  H           1     -23.897  -5.163  -6.836  0.00  0.00     0.223 HD
ENDBRANCH   8  11
ENDBRANCH   7   8
ENDBRANCH   6   7
ENDBRANCH   5   6
BRANCH   5  13
HETATM   13  C           1     -21.542  -6.711  -2.992  0.00  0.00     0.198 C 
HETATM   14  O           1     -22.473  -5.949  -2.655  0.00  0.00    -0.646 OA
HETATM   15  O           1     -20.832  -7.256  -2.120  0.00  0.00    -0.646 OA
ENDBRANCH   5  13
ENDBRANCH   3   5
BRANCH   2  16
HETATM   16  C           1     -21.048 -10.616  -5.618  0.00  0.00     0.274 C 
HETATM   17  N           1     -19.888 -11.287  -6.293  0.00  0.00    -0.067 N 
HETATM   18  H           1     -20.141 -12.274  -6.522  0.00  0.00     0.275 HD
HETATM   19  H           1     -19.655 -10.774  -7.173  0.00  0.00     0.275 HD
HETATM   20  H           1     -19.061 -11.277  -5.654  0.00  0.00     0.275 HD
HETATM   21 Se           1     -18.677 -12.223  -4.282  0.00  0.00     0.000 Se
HETATM   22  C           1     -17.451 -11.973  -2.787  0.00  0.00     0.000 C 
HETATM   23  C           1     -20.183 -11.351  -3.405  0.00  0.00     0.003 C 
HETATM   24  C           1     -21.389 -11.363  -4.335  0.00  0.00     0.042 C 
ENDBRANCH   2  16
TORSDOF 7
ENDMDL
MODEL 5
REMARK VINA RESULT:      -5.1      2.695      4.128
REMARK  7 active torsions:
REMARK  status: ('A' for Active; 'I' for Inactive)
REMARK    1  A    between atoms: C_1  and  C_8 
REMARK    2  A    between atoms: C_1  and  O_2 
REMARK    3  A    between atoms: O_2  and  P_3 
REMARK    4  A    between atoms: P_3  and  O_10 
REMARK    5  A    between atoms: C_6  and  C_8 
REMARK    6  A    between atoms: C_8  and  N_23 
REMARK    7  A    between atoms: C_21  and  C_22 
REMARK       I    between atoms: C_22  and  N_23 
ROOT
HETATM    1  O           1     -37.700  -0.703 -13.323  0.00  0.00    -0.271 OA
HETATM    2  C           1     -36.604  -0.200 -13.259  0.00  0.00     0.249 C 
HETATM    3  N           1     -35.774  -0.496 -12.211  0.00  0.00    -0.343 N 
HETATM    4  H           1     -34.856  -0.075 -12.157  0.00  0.00     0.163 HD
ENDROOT
BRANCH   3   5
HETATM    5  C           1     -36.211  -1.416 -11.178  0.00  0.00     0.210 C 
BRANCH   5   6
HETATM    6  C           1     -35.038  -2.287 -10.747  0.00  0.00     0.217 C 
BRANCH   6   7
HETATM    7  O           1     -35.262  -3.610 -11.155  0.00  0.00    -0.287 OA
BRANCH   7   8
HETATM    8  P           1     -34.389  -4.119 -12.414  0.00  0.00     0.406 P 
HETATM    9  O           1     -33.004  -4.403 -11.973  0.00  0.00    -0.624 OA
HETATM   10  O           1     -34.370  -3.071 -13.458  0.00  0.00    -0.624 OA
BRANCH   8  11
HETATM   11  O           1     -35.048  -5.467 -13.014  0.00  0.00    -0.300 OA
HETATM   12  H           1     -35.182  -5.285 -13.929  0.00  0.00     0.223 HD
ENDBRANCH   8  11
ENDBRANCH   7   8
ENDBRANCH   6   7
ENDBRANCH   5   6
BRANCH   5  13
HETATM   13  C           1     -36.721  -0.634  -9.993  0.00  0.00     0.198 C 
HETATM   14  O           1     -37.924  -0.298  -9.937  0.00  0.00    -0.646 OA
HETATM   15  O           1     -35.942  -0.323  -9.067  0.00  0.00    -0.646 OA
ENDBRANCH   5  13
ENDBRANCH   3   5
BRANCH   2  16
HETATM   16  C           1     -36.149   0.758 -14.333  0.00  0.00     0.274 C 
HETATM   17  N           1     -34.666   0.631 -14.520  0.00  0.00    -0.067 N 
HETATM   18  H           1     -34.350   1.293 -15.264  0.00  0.00     0.275 HD
HETATM   19  H           1     -34.182   0.859 -13.622  0.00  0.00     0.275 HD
HETATM   20  H           1     -34.434  -0.349 -14.803  0.00  0.00     0.275 HD
HETATM   21 Se           1     -34.588  -1.164 -16.297  0.00  0.00     0.000 Se
HETATM   22  C           1     -34.647  -3.049 -16.792  0.00  0.00     0.000 C 
HETATM   23  C           1     -36.514  -1.000 -16.055  0.00  0.00     0.003 C 
HETATM   24  C           1     -36.855   0.426 -15.641  0.00  0.00     0.042 C 
ENDBRANCH   2  16
TORSDOF 7
ENDMDL
MODEL 6
REMARK VINA RESULT:      -5.1     17.060     18.904
REMARK  7 active torsions:
REMARK  status: ('A' for Active; 'I' for Inactive)
REMARK    1  A    between atoms: C_1  and  C_8 
REMARK    2  A    between atoms: C_1  and  O_2 
REMARK    3  A    between atoms: O_2  and  P_3 
REMARK    4  A    between atoms: P_3  and  O_10 
REMARK    5  A    between atoms: C_6  and  C_8 
REMARK    6  A    between atoms: C_8  and  N_23 
REMARK    7  A    between atoms: C_21  and  C_22 
REMARK       I    between atoms: C_22  and  N_23 
ROOT
HETATM    1  O           1     -18.656  -9.051  -2.579  0.00  0.00    -0.271 OA
HETATM    2  C           1     -19.628  -9.579  -2.096  0.00  0.00     0.249 C 
HETATM    3  N           1     -20.839  -8.941  -2.124  0.00  0.00    -0.343 N 
HETATM    4  H           1     -21.655  -9.383  -1.719  0.00  0.00     0.163 HD
ENDROOT
BRANCH   3   5
HETATM    5  C           1     -20.954  -7.630  -2.735  0.00  0.00     0.210 C 
BRANCH   5   6
HETATM    6  C           1     -21.437  -7.781  -4.171  0.00  0.00     0.217 C 
BRANCH   6   7
HETATM    7  O           1     -20.488  -7.231  -5.045  0.00  0.00    -0.287 OA
BRANCH   7   8
HETATM    8  P           1     -20.971  -5.948  -5.898  0.00  0.00     0.406 P 
HETATM    9  O           1     -20.782  -6.214  -7.342  0.00  0.00    -0.624 OA
HETATM   10  O           1     -20.173  -4.766  -5.506  0.00  0.00    -0.624 OA
BRANCH   8  11
HETATM   11  O           1     -22.534  -5.665  -5.604  0.00  0.00    -0.300 OA
HETATM   12  H           1     -22.543  -4.916  -5.033  0.00  0.00     0.223 HD
ENDBRANCH   8  11
ENDBRANCH   7   8
ENDBRANCH   6   7
ENDBRANCH   5   6
BRANCH   5  13
HETATM   13  C           1     -21.942  -6.798  -1.956  0.00  0.00     0.198 C 
HETATM   14  O           1     -22.136  -7.031  -0.743  0.00  0.00    -0.646 OA
HETATM   15  O           1     -22.567  -5.876  -2.523  0.00  0.00    -0.646 OA
ENDBRANCH   5  13
ENDBRANCH   3   5
BRANCH   2  16
HETATM   16  C           1     -19.510 -10.942  -1.460  0.00  0.00     0.274 C 
HETATM   17  N           1     -20.857 -11.384  -0.969  0.00  0.00    -0.067 N 
HETATM   18  H           1     -20.776 -12.327  -0.529  0.00  0.00     0.275 HD
HETATM   19  H           1     -21.211 -10.699  -0.263  0.00  0.00     0.275 HD
HETATM   20  H           1     -21.523 -11.430  -1.774  0.00  0.00     0.275 HD
HETATM   21 Se           1     -21.715 -12.582  -3.022  0.00  0.00     0.000 Se
HETATM   22  C           1     -22.557 -12.522  -4.779  0.00  0.00     0.000 C 
HETATM   23  C           1     -19.965 -12.009  -3.660  0.00  0.00     0.003 C 
HETATM   24  C           1     -18.994 -11.940  -2.489  0.00  0.00     0.042 C 
ENDBRANCH   2  16
TORSDOF 7
ENDMDL
MODEL 7
REMARK VINA RESULT:      -5.0     17.608     19.850
REMARK  7 active torsions:
REMARK  status: ('A' for Active; 'I' for Inactive)
REMARK    1  A    between atoms: C_1  and  C_8 
REMARK    2  A    between atoms: C_1  and  O_2 
REMARK    3  A    between atoms: O_2  and  P_3 
REMARK    4  A    between atoms: P_3  and  O_10 
REMARK    5  A    between atoms: C_6  and  C_8 
REMARK    6  A    between atoms: C_8  and  N_23 
REMARK    7  A    between atoms: C_21  and  C_22 
REMARK       I    between atoms: C_22  and  N_23 
ROOT
HETATM    1  O           1     -21.440 -10.718  -4.083  0.00  0.00    -0.271 OA
HETATM    2  C           1     -20.545 -10.087  -4.592  0.00  0.00     0.249 C 
HETATM    3  N           1     -20.372  -8.767  -4.277  0.00  0.00    -0.343 N 
HETATM    4  H           1     -19.622  -8.238  -4.704  0.00  0.00     0.163 HD
ENDROOT
BRANCH   3   5
HETATM    5  C           1     -21.265  -8.124  -3.331  0.00  0.00     0.210 C 
BRANCH   5   6
HETATM    6  C           1     -20.557  -7.971  -1.991  0.00  0.00     0.217 C 
BRANCH   6   7
HETATM    7  O           1     -21.061  -8.916  -1.085  0.00  0.00    -0.287 OA
BRANCH   7   8
HETATM    8  P           1     -22.166  -8.375  -0.040  0.00  0.00     0.406 P 
HETATM    9  O           1     -21.550  -8.225   1.298  0.00  0.00    -0.624 OA
HETATM   10  O           1     -23.286  -9.339   0.038  0.00  0.00    -0.624 OA
BRANCH   8  11
HETATM   11  O           1     -22.721  -6.942  -0.539  0.00  0.00    -0.300 OA
HETATM   12  H           1     -22.869  -6.450   0.251  0.00  0.00     0.223 HD
ENDBRANCH   8  11
ENDBRANCH   7   8
ENDBRANCH   6   7
ENDBRANCH   5   6
BRANCH   5  13
HETATM   13  C           1     -21.655  -6.763  -3.854  0.00  0.00     0.198 C 
HETATM   14  O           1     -22.341  -5.995  -3.145  0.00  0.00    -0.646 OA
HETATM   15  O           1     -21.293  -6.405  -4.995  0.00  0.00    -0.646 OA
ENDBRANCH   5  13
ENDBRANCH   3   5
BRANCH   2  16
HETATM   16  C           1     -19.616 -10.755  -5.577  0.00  0.00     0.274 C 
HETATM   17  N           1     -18.633  -9.749  -6.097  0.00  0.00    -0.067 N 
HETATM   18  H           1     -17.989 -10.210  -6.779  0.00  0.00     0.275 HD
HETATM   19  H           1     -19.147  -8.974  -6.574  0.00  0.00     0.275 HD
HETATM   20  H           1     -18.078  -9.361  -5.301  0.00  0.00     0.275 HD
HETATM   21 Se           1     -16.778 -10.012  -4.400  0.00  0.00     0.000 Se
HETATM   22  C           1     -16.026  -9.599  -2.650  0.00  0.00     0.000 C 
HETATM   23  C           1     -18.056 -11.319  -3.724  0.00  0.00     0.003 C 
HETATM   24  C           1     -18.866 -11.884  -4.882  0.00  0.00     0.042 C 
ENDBRANCH   2  16
TORSDOF 7
ENDMDL
MODEL 8
REMARK VINA RESULT:      -5.0     17.705     19.142
REMARK  7 active torsions:
REMARK  status: ('A' for Active; 'I' for Inactive)
REMARK    1  A    between atoms: C_1  and  C_8 
REMARK    2  A    between atoms: C_1  and  O_2 
REMARK    3  A    between atoms: O_2  and  P_3 
REMARK    4  A    between atoms: P_3  and  O_10 
REMARK    5  A    between atoms: C_6  and  C_8 
REMARK    6  A    between atoms: C_8  and  N_23 
REMARK    7  A    between atoms: C_21  and  C_22 
REMARK       I    between atoms: C_22  and  N_23 
ROOT
HETATM    1  O           1     -21.614  -9.270   0.699  0.00  0.00    -0.271 OA
HETATM    2  C           1     -22.183  -9.701  -0.275  0.00  0.00     0.249 C 
HETATM    3  N           1     -21.980  -9.122  -1.498  0.00  0.00    -0.343 N 
HETATM    4  H           1     -22.456  -9.483  -2.315  0.00  0.00     0.163 HD
ENDROOT
BRANCH   3   5
HETATM    5  C           1     -21.080  -7.991  -1.626  0.00  0.00     0.210 C 
BRANCH   5   6
HETATM    6  C           1     -20.112  -8.241  -2.774  0.00  0.00     0.217 C 
BRANCH   6   7
HETATM    7  O           1     -20.593  -9.289  -3.573  0.00  0.00    -0.287 OA
BRANCH   7   8
HETATM    8  P           1     -20.654  -8.999  -5.160  0.00  0.00     0.406 P 
HETATM    9  O           1     -21.120 -10.213  -5.867  0.00  0.00    -0.624 OA
HETATM   10  O           1     -19.305  -8.632  -5.647  0.00  0.00    -0.624 OA
BRANCH   8  11
HETATM   11  O           1     -21.679  -7.784  -5.445  0.00  0.00    -0.300 OA
HETATM   12  H           1     -22.389  -7.917  -4.840  0.00  0.00     0.223 HD
ENDBRANCH   8  11
ENDBRANCH   7   8
ENDBRANCH   6   7
ENDBRANCH   5   6
BRANCH   5  13
HETATM   13  C           1     -21.880  -6.742  -1.903  0.00  0.00     0.198 C 
HETATM   14  O           1     -21.735  -6.135  -2.985  0.00  0.00    -0.646 OA
HETATM   15  O           1     -22.688  -6.315  -1.050  0.00  0.00    -0.646 OA
ENDBRANCH   5  13
ENDBRANCH   3   5
BRANCH   2  16
HETATM   16  C           1     -23.119 -10.877  -0.143  0.00  0.00     0.274 C 
HETATM   17  N           1     -23.802 -11.121  -1.456  0.00  0.00    -0.067 N 
HETATM   18  H           1     -24.451 -11.935  -1.367  0.00  0.00     0.275 HD
HETATM   19  H           1     -24.347 -10.271  -1.728  0.00  0.00     0.275 HD
HETATM   20  H           1     -23.085 -11.325  -2.189  0.00  0.00     0.275 HD
HETATM   21 Se           1     -22.171 -12.731  -2.521  0.00  0.00     0.000 Se
HETATM   22  C           1     -20.520 -13.050  -3.507  0.00  0.00     0.000 C 
HETATM   23  C           1     -21.283 -12.414  -0.816  0.00  0.00     0.003 C 
HETATM   24  C           1     -22.326 -12.116   0.253  0.00  0.00     0.042 C 
ENDBRANCH   2  16
TORSDOF 7
ENDMDL
MODEL 9
REMARK VINA RESULT:      -4.9     16.785     18.795
REMARK  7 active torsions:
REMARK  status: ('A' for Active; 'I' for Inactive)
REMARK    1  A    between atoms: C_1  and  C_8 
REMARK    2  A    between atoms: C_1  and  O_2 
REMARK    3  A    between atoms: O_2  and  P_3 
REMARK    4  A    between atoms: P_3  and  O_10 
REMARK    5  A    between atoms: C_6  and  C_8 
REMARK    6  A    between atoms: C_8  and  N_23 
REMARK    7  A    between atoms: C_21  and  C_22 
REMARK       I    between atoms: C_22  and  N_23 
ROOT
HETATM    1  O           1     -19.721  -8.563  -1.765  0.00  0.00    -0.271 OA
HETATM    2  C           1     -20.814  -8.127  -1.495  0.00  0.00     0.249 C 
HETATM    3  N           1     -21.600  -7.593  -2.480  0.00  0.00    -0.343 N 
HETATM    4  H           1     -22.517  -7.227  -2.254  0.00  0.00     0.163 HD
ENDROOT
BRANCH   3   5
HETATM    5  C           1     -21.121  -7.551  -3.848  0.00  0.00     0.210 C 
BRANCH   5   6
HETATM    6  C           1     -21.641  -8.766  -4.604  0.00  0.00     0.217 C 
BRANCH   6   7
HETATM    7  O           1     -20.733  -9.113  -5.615  0.00  0.00    -0.287 OA
BRANCH   7   8
HETATM    8  P           1     -19.549 -10.124  -5.186  0.00  0.00     0.406 P 
HETATM    9  O           1     -18.297  -9.361  -4.982  0.00  0.00    -0.624 OA
HETATM   10  O           1     -19.347 -11.128  -6.254  0.00  0.00    -0.624 OA
BRANCH   8  11
HETATM   11  O           1     -19.953 -10.871  -3.812  0.00  0.00    -0.300 OA
HETATM   12  H           1     -20.242 -10.184  -3.236  0.00  0.00     0.223 HD
ENDBRANCH   8  11
ENDBRANCH   7   8
ENDBRANCH   6   7
ENDBRANCH   5   6
BRANCH   5  13
HETATM   13  C           1     -21.616  -6.292  -4.516  0.00  0.00     0.198 C 
HETATM   14  O           1     -22.821  -6.182  -4.828  0.00  0.00    -0.646 OA
HETATM   15  O           1     -20.821  -5.358  -4.756  0.00  0.00    -0.646 OA
ENDBRANCH   5  13
ENDBRANCH   3   5
BRANCH   2  16
HETATM   16  C           1     -21.313  -8.169  -0.071  0.00  0.00     0.274 C 
HETATM   17  N           1     -22.803  -7.992  -0.059  0.00  0.00    -0.067 N 
HETATM   18  H           1     -23.150  -8.021   0.926  0.00  0.00     0.275 HD
HETATM   19  H           1     -23.046  -7.069  -0.486  0.00  0.00     0.275 HD
HETATM   20  H           1     -23.250  -8.760  -0.610  0.00  0.00     0.275 HD
HETATM   21 Se           1     -23.546 -10.401  -0.233  0.00  0.00     0.000 Se
HETATM   22  C           1     -23.908 -11.977  -1.320  0.00  0.00     0.000 C 
HETATM   23  C           1     -21.612 -10.632  -0.249  0.00  0.00     0.003 C 
HETATM   24  C           1     -20.958  -9.514   0.551  0.00  0.00     0.042 C 
ENDBRANCH   2  16
TORSDOF 7
ENDMDL
