MODEL 1
REMARK VINA RESULT:      -6.4      0.000      0.000
REMARK  12 active torsions:
REMARK  status: ('A' for Active; 'I' for Inactive)
REMARK    1  A    between atoms: N_2  and  C_20 
REMARK    2  A    between atoms: C_5  and  C_20 
REMARK    3  A    between atoms: C_5  and  C_23 
REMARK       I    between atoms: C_9  and  N_25 
REMARK    4  A    between atoms: C_9  and  C_11 
REMARK    5  A    between atoms: C_10  and  C_18 
REMARK    6  A    between atoms: C_10  and  N_15 
REMARK    7  A    between atoms: C_11  and  C_17 
REMARK    8  A    between atoms: C_11  and  N_27 
REMARK    9  A    between atoms: C_16  and  C_21 
REMARK   10  A    between atoms: C_17  and  C_18 
REMARK   11  A    between atoms: C_21  and  C_23 
REMARK   12  A    between atoms: C_21  and  N_25 
ROOT
HETATM    1  O           1     -33.699  -2.214 -11.128  0.00  0.00    -0.271 OA
HETATM    2  C           1     -34.313  -2.577 -12.103  0.00  0.00     0.249 C 
HETATM    3  H           1     -35.577  -1.982 -13.631  0.00  0.00     0.163 HD
HETATM    4  N           1     -35.063  -1.678 -12.813  0.00  0.00    -0.345 N 
ENDROOT
BRANCH   2   5
HETATM    5  C           1     -34.252  -4.020 -12.540  0.00  0.00     0.274 C 
BRANCH   5   6
HETATM    6  C           1     -33.478  -4.830 -11.508  0.00  0.00     0.044 C 
BRANCH   6   7
HETATM    7  C           1     -34.454  -5.486 -10.541  0.00  0.00     0.030 C 
BRANCH   7   8
HETATM    8  C           1     -34.294  -6.999 -10.603  0.00  0.00     0.230 C 
BRANCH   8   9
HETATM    9  N           1     -35.123  -7.635  -9.528  0.00  0.00    -0.079 N 
HETATM   10  H           1     -35.656  -8.440  -9.929  0.00  0.00     0.274 HD
HETATM   11  H           1     -35.794  -6.931  -9.142  0.00  0.00     0.274 HD
HETATM   12  H           1     -34.499  -7.977  -8.762  0.00  0.00     0.274 HD
ENDBRANCH   8   9
ENDBRANCH   7   8
ENDBRANCH   6   7
ENDBRANCH   5   6
BRANCH   5  13
HETATM   13  N           1     -33.561  -4.112 -13.868  0.00  0.00    -0.067 N 
HETATM   14  H           1     -33.681  -5.074 -14.257  0.00  0.00     0.275 HD
HETATM   15  H           1     -33.977  -3.416 -14.526  0.00  0.00     0.275 HD
HETATM   16  H           1     -32.542  -3.910 -13.745  0.00  0.00     0.275 HD
ENDBRANCH   5  13
ENDBRANCH   2   5
BRANCH   4  17
HETATM   17  C           1     -35.122  -0.291 -12.395  0.00  0.00     0.185 C 
BRANCH  17  18
HETATM   18  C           1     -36.385  -0.059 -11.602  0.00  0.00     0.196 C 
HETATM   19  O           1     -37.482  -0.466 -12.042  0.00  0.00    -0.646 OA
HETATM   20  O           1     -36.334   0.540 -10.507  0.00  0.00    -0.646 OA
ENDBRANCH  17  18
BRANCH  17  21
HETATM   21  C           1     -35.120   0.610 -13.623  0.00  0.00     0.038 C 
BRANCH  21  22
HETATM   22  C           1     -35.483  -0.210 -14.854  0.00  0.00     0.030 C 
BRANCH  22  23
HETATM   23  C           1     -36.751   0.353 -15.483  0.00  0.00     0.230 C 
BRANCH  23  24
HETATM   24  N           1     -36.465   1.706 -16.062  0.00  0.00    -0.079 N 
HETATM   25  H           1     -35.869   1.602 -16.914  0.00  0.00     0.274 HD
HETATM   26  H           1     -35.961   2.289 -15.355  0.00  0.00     0.274 HD
HETATM   27  H           1     -37.364   2.172 -16.320  0.00  0.00     0.274 HD
ENDBRANCH  23  24
ENDBRANCH  22  23
ENDBRANCH  21  22
ENDBRANCH  17  21
ENDBRANCH   4  17
TORSDOF 12
ENDMDL
MODEL 2
REMARK VINA RESULT:      -6.2     12.318     13.926
REMARK  12 active torsions:
REMARK  status: ('A' for Active; 'I' for Inactive)
REMARK    1  A    between atoms: N_2  and  C_20 
REMARK    2  A    between atoms: C_5  and  C_20 
REMARK    3  A    between atoms: C_5  and  C_23 
REMARK       I    between atoms: C_9  and  N_25 
REMARK    4  A    between atoms: C_9  and  C_11 
REMARK    5  A    between atoms: C_10  and  C_18 
REMARK    6  A    between atoms: C_10  and  N_15 
REMARK    7  A    between atoms: C_11  and  C_17 
REMARK    8  A    between atoms: C_11  and  N_27 
REMARK    9  A    between atoms: C_16  and  C_21 
REMARK   10  A    between atoms: C_17  and  C_18 
REMARK   11  A    between atoms: C_21  and  C_23 
REMARK   12  A    between atoms: C_21  and  N_25 
ROOT
HETATM    1  O           1     -21.545  -3.526  -7.298  0.00  0.00    -0.271 OA
HETATM    2  C           1     -21.635  -4.663  -7.696  0.00  0.00     0.249 C 
HETATM    3  H           1     -22.287  -5.871  -9.245  0.00  0.00     0.163 HD
HETATM    4  N           1     -22.212  -4.919  -8.911  0.00  0.00    -0.345 N 
ENDROOT
BRANCH   2   5
HETATM    5  C           1     -21.110  -5.801  -6.855  0.00  0.00     0.274 C 
BRANCH   5   6
HETATM    6  C           1     -20.944  -5.333  -5.415  0.00  0.00     0.044 C 
BRANCH   6   7
HETATM    7  C           1     -21.752  -6.236  -4.492  0.00  0.00     0.030 C 
BRANCH   7   8
HETATM    8  C           1     -21.269  -6.061  -3.059  0.00  0.00     0.230 C 
BRANCH   8   9
HETATM    9  N           1     -22.451  -5.961  -2.141  0.00  0.00    -0.079 N 
HETATM   10  H           1     -23.326  -5.877  -2.707  0.00  0.00     0.274 HD
HETATM   11  H           1     -22.349  -5.118  -1.531  0.00  0.00     0.274 HD
HETATM   12  H           1     -22.503  -6.817  -1.544  0.00  0.00     0.274 HD
ENDBRANCH   8   9
ENDBRANCH   7   8
ENDBRANCH   6   7
ENDBRANCH   5   6
BRANCH   5  13
HETATM   13  N           1     -19.783  -6.248  -7.392  0.00  0.00    -0.067 N 
HETATM   14  H           1     -19.084  -6.277  -6.615  0.00  0.00     0.275 HD
HETATM   15  H           1     -19.879  -7.200  -7.809  0.00  0.00     0.275 HD
HETATM   16  H           1     -19.459  -5.576  -8.125  0.00  0.00     0.275 HD
ENDBRANCH   5  13
ENDBRANCH   2   5
BRANCH   4  17
HETATM   17  C           1     -22.716  -3.825  -9.719  0.00  0.00     0.185 C 
BRANCH  17  18
HETATM   18  C           1     -24.224  -3.833  -9.690  0.00  0.00     0.196 C 
HETATM   19  O           1     -24.850  -2.777  -9.450  0.00  0.00    -0.646 OA
HETATM   20  O           1     -24.849  -4.893  -9.904  0.00  0.00    -0.646 OA
ENDBRANCH  17  18
BRANCH  17  21
HETATM   21  C           1     -22.235  -3.993 -11.155  0.00  0.00     0.038 C 
BRANCH  21  22
HETATM   22  C           1     -22.260  -2.644 -11.860  0.00  0.00     0.030 C 
BRANCH  22  23
HETATM   23  C           1     -23.240  -2.696 -13.025  0.00  0.00     0.230 C 
BRANCH  23  24
HETATM   24  N           1     -22.505  -3.063 -14.280  0.00  0.00    -0.079 N 
HETATM   25  H           1     -22.585  -2.282 -14.971  0.00  0.00     0.274 HD
HETATM   26  H           1     -22.922  -3.931 -14.687  0.00  0.00     0.274 HD
HETATM   27  H           1     -21.498  -3.231 -14.058  0.00  0.00     0.274 HD
ENDBRANCH  23  24
ENDBRANCH  22  23
ENDBRANCH  21  22
ENDBRANCH  17  21
ENDBRANCH   4  17
TORSDOF 12
ENDMDL
MODEL 3
REMARK VINA RESULT:      -6.0      2.012      6.595
REMARK  12 active torsions:
REMARK  status: ('A' for Active; 'I' for Inactive)
REMARK    1  A    between atoms: N_2  and  C_20 
REMARK    2  A    between atoms: C_5  and  C_20 
REMARK    3  A    between atoms: C_5  and  C_23 
REMARK       I    between atoms: C_9  and  N_25 
REMARK    4  A    between atoms: C_9  and  C_11 
REMARK    5  A    between atoms: C_10  and  C_18 
REMARK    6  A    between atoms: C_10  and  N_15 
REMARK    7  A    between atoms: C_11  and  C_17 
REMARK    8  A    between atoms: C_11  and  N_27 
REMARK    9  A    between atoms: C_16  and  C_21 
REMARK   10  A    between atoms: C_17  and  C_18 
REMARK   11  A    between atoms: C_21  and  C_23 
REMARK   12  A    between atoms: C_21  and  N_25 
ROOT
HETATM    1  O           1     -34.368  -1.579 -10.155  0.00  0.00    -0.271 OA
HETATM    2  C           1     -35.355  -1.868 -10.789  0.00  0.00     0.249 C 
HETATM    3  H           1     -36.293  -3.354 -11.883  0.00  0.00     0.163 HD
HETATM    4  N           1     -35.466  -3.111 -11.352  0.00  0.00    -0.345 N 
ENDROOT
BRANCH   2   5
HETATM    5  C           1     -36.466  -0.861 -10.958  0.00  0.00     0.274 C 
BRANCH   5   6
HETATM    6  C           1     -36.520  -0.404 -12.410  0.00  0.00     0.044 C 
BRANCH   6   7
HETATM    7  C           1     -35.296   0.447 -12.720  0.00  0.00     0.030 C 
BRANCH   7   8
HETATM    8  C           1     -34.983   0.367 -14.208  0.00  0.00     0.230 C 
BRANCH   8   9
HETATM    9  N           1     -35.054  -1.063 -14.658  0.00  0.00    -0.079 N 
HETATM   10  H           1     -34.170  -1.316 -15.154  0.00  0.00     0.274 HD
HETATM   11  H           1     -35.864  -1.184 -15.308  0.00  0.00     0.274 HD
HETATM   12  H           1     -35.178  -1.684 -13.827  0.00  0.00     0.274 HD
ENDBRANCH   8   9
ENDBRANCH   7   8
ENDBRANCH   6   7
ENDBRANCH   5   6
BRANCH   5  13
HETATM   13  N           1     -36.210   0.320 -10.071  0.00  0.00    -0.067 N 
HETATM   14  H           1     -36.559   0.115  -9.107  0.00  0.00     0.275 HD
HETATM   15  H           1     -35.184   0.512 -10.036  0.00  0.00     0.275 HD
HETATM   16  H           1     -36.709   1.156 -10.451  0.00  0.00     0.275 HD
ENDBRANCH   5  13
ENDBRANCH   2   5
BRANCH   4  17
HETATM   17  C           1     -34.399  -4.080 -11.190  0.00  0.00     0.185 C 
BRANCH  17  18
HETATM   18  C           1     -33.447  -3.978 -12.356  0.00  0.00     0.196 C 
HETATM   19  O           1     -33.878  -3.674 -13.489  0.00  0.00    -0.646 OA
HETATM   20  O           1     -32.228  -4.197 -12.188  0.00  0.00    -0.646 OA
ENDBRANCH  17  18
BRANCH  17  21
HETATM   21  C           1     -34.991  -5.482 -11.138  0.00  0.00     0.038 C 
BRANCH  21  22
HETATM   22  C           1     -33.970  -6.442 -10.541  0.00  0.00     0.030 C 
BRANCH  22  23
HETATM   23  C           1     -34.660  -7.746 -10.160  0.00  0.00     0.230 C 
BRANCH  23  24
HETATM   24  N           1     -33.661  -8.865 -10.180  0.00  0.00    -0.079 N 
HETATM   25  H           1     -34.163  -9.777 -10.273  0.00  0.00     0.274 HD
HETATM   26  H           1     -33.113  -8.859  -9.290  0.00  0.00     0.274 HD
HETATM   27  H           1     -33.013  -8.738 -10.990  0.00  0.00     0.274 HD
ENDBRANCH  23  24
ENDBRANCH  22  23
ENDBRANCH  21  22
ENDBRANCH  17  21
ENDBRANCH   4  17
TORSDOF 12
ENDMDL
MODEL 4
REMARK VINA RESULT:      -5.8      2.484      6.050
REMARK  12 active torsions:
REMARK  status: ('A' for Active; 'I' for Inactive)
REMARK    1  A    between atoms: N_2  and  C_20 
REMARK    2  A    between atoms: C_5  and  C_20 
REMARK    3  A    between atoms: C_5  and  C_23 
REMARK       I    between atoms: C_9  and  N_25 
REMARK    4  A    between atoms: C_9  and  C_11 
REMARK    5  A    between atoms: C_10  and  C_18 
REMARK    6  A    between atoms: C_10  and  N_15 
REMARK    7  A    between atoms: C_11  and  C_17 
REMARK    8  A    between atoms: C_11  and  N_27 
REMARK    9  A    between atoms: C_16  and  C_21 
REMARK   10  A    between atoms: C_17  and  C_18 
REMARK   11  A    between atoms: C_21  and  C_23 
REMARK   12  A    between atoms: C_21  and  N_25 
ROOT
HETATM    1  O           1     -34.676  -0.704 -13.539  0.00  0.00    -0.271 OA
HETATM    2  C           1     -35.216  -1.127 -12.545  0.00  0.00     0.249 C 
HETATM    3  H           1     -35.302  -2.698 -11.200  0.00  0.00     0.163 HD
HETATM    4  N           1     -34.850  -2.343 -12.032  0.00  0.00    -0.345 N 
ENDROOT
BRANCH   2   5
HETATM    5  C           1     -36.294  -0.317 -11.868  0.00  0.00     0.274 C 
BRANCH   5   6
HETATM    6  C           1     -36.619  -0.935 -10.515  0.00  0.00     0.044 C 
BRANCH   6   7
HETATM    7  C           1     -37.787  -0.189  -9.883  0.00  0.00     0.030 C 
BRANCH   7   8
HETATM    8  C           1     -37.321   1.183  -9.415  0.00  0.00     0.230 C 
BRANCH   8   9
HETATM    9  N           1     -36.184   1.023  -8.450  0.00  0.00    -0.079 N 
HETATM   10  H           1     -35.903   0.017  -8.406  0.00  0.00     0.274 HD
HETATM   11  H           1     -36.484   1.342  -7.501  0.00  0.00     0.274 HD
HETATM   12  H           1     -35.372   1.598  -8.770  0.00  0.00     0.274 HD
ENDBRANCH   8   9
ENDBRANCH   7   8
ENDBRANCH   6   7
ENDBRANCH   5   6
BRANCH   5  13
HETATM   13  N           1     -37.526  -0.310 -12.723  0.00  0.00    -0.067 N 
HETATM   14  H           1     -38.372  -0.388 -12.116  0.00  0.00     0.275 HD
HETATM   15  H           1     -37.568   0.582 -13.266  0.00  0.00     0.275 HD
HETATM   16  H           1     -37.496  -1.119 -13.384  0.00  0.00     0.275 HD
ENDBRANCH   5  13
ENDBRANCH   2   5
BRANCH   4  17
HETATM   17  C           1     -33.814  -3.122 -12.683  0.00  0.00     0.185 C 
BRANCH  17  18
HETATM   18  C           1     -34.438  -4.016 -13.726  0.00  0.00     0.196 C 
HETATM   19  O           1     -34.325  -3.734 -14.938  0.00  0.00    -0.646 OA
HETATM   20  O           1     -35.067  -5.038 -13.378  0.00  0.00    -0.646 OA
ENDBRANCH  17  18
BRANCH  17  21
HETATM   21  C           1     -33.096  -3.976 -11.645  0.00  0.00     0.038 C 
BRANCH  21  22
HETATM   22  C           1     -33.990  -4.151 -10.425  0.00  0.00     0.030 C 
BRANCH  22  23
HETATM   23  C           1     -34.319  -5.627 -10.243  0.00  0.00     0.230 C 
BRANCH  23  24
HETATM   24  N           1     -33.464  -6.447 -11.163  0.00  0.00    -0.079 N 
HETATM   25  H           1     -32.752  -5.832 -11.618  0.00  0.00     0.274 HD
HETATM   26  H           1     -34.063  -6.887 -11.897  0.00  0.00     0.274 HD
HETATM   27  H           1     -32.980  -7.194 -10.615  0.00  0.00     0.274 HD
ENDBRANCH  23  24
ENDBRANCH  22  23
ENDBRANCH  21  22
ENDBRANCH  17  21
ENDBRANCH   4  17
TORSDOF 12
ENDMDL
MODEL 5
REMARK VINA RESULT:      -5.8      3.721      6.070
REMARK  12 active torsions:
REMARK  status: ('A' for Active; 'I' for Inactive)
REMARK    1  A    between atoms: N_2  and  C_20 
REMARK    2  A    between atoms: C_5  and  C_20 
REMARK    3  A    between atoms: C_5  and  C_23 
REMARK       I    between atoms: C_9  and  N_25 
REMARK    4  A    between atoms: C_9  and  C_11 
REMARK    5  A    between atoms: C_10  and  C_18 
REMARK    6  A    between atoms: C_10  and  N_15 
REMARK    7  A    between atoms: C_11  and  C_17 
REMARK    8  A    between atoms: C_11  and  N_27 
REMARK    9  A    between atoms: C_16  and  C_21 
REMARK   10  A    between atoms: C_17  and  C_18 
REMARK   11  A    between atoms: C_21  and  C_23 
REMARK   12  A    between atoms: C_21  and  N_25 
ROOT
HETATM    1  O           1     -34.977  -5.048 -15.397  0.00  0.00    -0.271 OA
HETATM    2  C           1     -33.875  -4.554 -15.437  0.00  0.00     0.249 C 
HETATM    3  H           1     -32.413  -3.579 -14.344  0.00  0.00     0.163 HD
HETATM    4  N           1     -33.336  -3.993 -14.311  0.00  0.00    -0.345 N 
ENDROOT
BRANCH   2   5
HETATM    5  C           1     -33.094  -4.556 -16.728  0.00  0.00     0.274 C 
BRANCH   5   6
HETATM    6  C           1     -31.641  -4.911 -16.441  0.00  0.00     0.044 C 
BRANCH   6   7
HETATM    7  C           1     -31.238  -6.119 -17.276  0.00  0.00     0.030 C 
BRANCH   7   8
HETATM    8  C           1     -29.812  -6.525 -16.930  0.00  0.00     0.230 C 
BRANCH   8   9
HETATM    9  N           1     -29.577  -7.943 -17.358  0.00  0.00    -0.079 N 
HETATM   10  H           1     -28.801  -8.354 -16.791  0.00  0.00     0.274 HD
HETATM   11  H           1     -29.318  -7.964 -18.370  0.00  0.00     0.274 HD
HETATM   12  H           1     -30.449  -8.500 -17.210  0.00  0.00     0.274 HD
ENDBRANCH   8   9
ENDBRANCH   7   8
ENDBRANCH   6   7
ENDBRANCH   5   6
BRANCH   5  13
HETATM   13  N           1     -33.162  -3.196 -17.356  0.00  0.00    -0.067 N 
HETATM   14  H           1     -34.157  -2.960 -17.569  0.00  0.00     0.275 HD
HETATM   15  H           1     -32.770  -2.488 -16.696  0.00  0.00     0.275 HD
HETATM   16  H           1     -32.606  -3.193 -18.242  0.00  0.00     0.275 HD
ENDBRANCH   5  13
ENDBRANCH   2   5
BRANCH   4  17
HETATM   17  C           1     -34.086  -3.991 -13.070  0.00  0.00     0.185 C 
BRANCH  17  18
HETATM   18  C           1     -34.892  -2.719 -12.973  0.00  0.00     0.196 C 
HETATM   19  O           1     -35.654  -2.536 -11.999  0.00  0.00    -0.646 OA
HETATM   20  O           1     -34.797  -1.849 -13.865  0.00  0.00    -0.646 OA
ENDBRANCH  17  18
BRANCH  17  21
HETATM   21  C           1     -33.121  -4.072 -11.894  0.00  0.00     0.038 C 
BRANCH  21  22
HETATM   22  C           1     -33.158  -5.475 -11.304  0.00  0.00     0.030 C 
BRANCH  22  23
HETATM   23  C           1     -34.595  -5.980 -11.280  0.00  0.00     0.230 C 
BRANCH  23  24
HETATM   24  N           1     -34.610  -7.431 -10.899  0.00  0.00    -0.079 N 
HETATM   25  H           1     -35.350  -7.595 -10.180  0.00  0.00     0.274 HD
HETATM   26  H           1     -33.679  -7.698 -10.506  0.00  0.00     0.274 HD
HETATM   27  H           1     -34.810  -8.011 -11.745  0.00  0.00     0.274 HD
ENDBRANCH  23  24
ENDBRANCH  22  23
ENDBRANCH  21  22
ENDBRANCH  17  21
ENDBRANCH   4  17
TORSDOF 12
ENDMDL
MODEL 6
REMARK VINA RESULT:      -5.7      2.212      3.126
REMARK  12 active torsions:
REMARK  status: ('A' for Active; 'I' for Inactive)
REMARK    1  A    between atoms: N_2  and  C_20 
REMARK    2  A    between atoms: C_5  and  C_20 
REMARK    3  A    between atoms: C_5  and  C_23 
REMARK       I    between atoms: C_9  and  N_25 
REMARK    4  A    between atoms: C_9  and  C_11 
REMARK    5  A    between atoms: C_10  and  C_18 
REMARK    6  A    between atoms: C_10  and  N_15 
REMARK    7  A    between atoms: C_11  and  C_17 
REMARK    8  A    between atoms: C_11  and  N_27 
REMARK    9  A    between atoms: C_16  and  C_21 
REMARK   10  A    between atoms: C_17  and  C_18 
REMARK   11  A    between atoms: C_21  and  C_23 
REMARK   12  A    between atoms: C_21  and  N_25 
ROOT
HETATM    1  O           1     -35.906  -2.936 -11.838  0.00  0.00    -0.271 OA
HETATM    2  C           1     -34.833  -2.445 -12.100  0.00  0.00     0.249 C 
HETATM    3  H           1     -33.845  -1.065 -13.285  0.00  0.00     0.163 HD
HETATM    4  N           1     -34.742  -1.477 -13.065  0.00  0.00    -0.345 N 
ENDROOT
BRANCH   2   5
HETATM    5  C           1     -33.596  -2.896 -11.365  0.00  0.00     0.274 C 
BRANCH   5   6
HETATM    6  C           1     -33.927  -4.115 -10.514  0.00  0.00     0.044 C 
BRANCH   6   7
HETATM    7  C           1     -33.591  -5.382 -11.289  0.00  0.00     0.030 C 
BRANCH   7   8
HETATM    8  C           1     -34.067  -6.599 -10.507  0.00  0.00     0.230 C 
BRANCH   8   9
HETATM    9  N           1     -34.964  -7.432 -11.375  0.00  0.00    -0.079 N 
HETATM   10  H           1     -34.709  -8.440 -11.271  0.00  0.00     0.274 HD
HETATM   11  H           1     -34.847  -7.145 -12.373  0.00  0.00     0.274 HD
HETATM   12  H           1     -35.958  -7.291 -11.086  0.00  0.00     0.274 HD
ENDBRANCH   8   9
ENDBRANCH   7   8
ENDBRANCH   6   7
ENDBRANCH   5   6
BRANCH   5  13
HETATM   13  N           1     -33.107  -1.787 -10.481  0.00  0.00    -0.067 N 
HETATM   14  H           1     -33.582  -0.895 -10.747  0.00  0.00     0.275 HD
HETATM   15  H           1     -33.325  -2.014  -9.485  0.00  0.00     0.275 HD
HETATM   16  H           1     -32.073  -1.680 -10.597  0.00  0.00     0.275 HD
ENDBRANCH   5  13
ENDBRANCH   2   5
BRANCH   4  17
HETATM   17  C           1     -35.932  -1.043 -13.771  0.00  0.00     0.185 C 
BRANCH  17  18
HETATM   18  C           1     -35.577  -0.724 -15.203  0.00  0.00     0.196 C 
HETATM   19  O           1     -35.118  -1.617 -15.947  0.00  0.00    -0.646 OA
HETATM   20  O           1     -35.742   0.433 -15.645  0.00  0.00    -0.646 OA
ENDBRANCH  17  18
BRANCH  17  21
HETATM   21  C           1     -36.495   0.202 -13.098  0.00  0.00     0.038 C 
BRANCH  21  22
HETATM   22  C           1     -37.866  -0.112 -12.515  0.00  0.00     0.030 C 
BRANCH  22  23
HETATM   23  C           1     -37.784  -0.119 -10.994  0.00  0.00     0.230 C 
BRANCH  23  24
HETATM   24  N           1     -36.458   0.433 -10.563  0.00  0.00    -0.079 N 
HETATM   25  H           1     -36.222   1.268 -11.146  0.00  0.00     0.274 HD
HETATM   26  H           1     -35.719  -0.296 -10.685  0.00  0.00     0.274 HD
HETATM   27  H           1     -36.508   0.713  -9.557  0.00  0.00     0.274 HD
ENDBRANCH  23  24
ENDBRANCH  22  23
ENDBRANCH  21  22
ENDBRANCH  17  21
ENDBRANCH   4  17
TORSDOF 12
ENDMDL
MODEL 7
REMARK VINA RESULT:      -5.6     10.224     12.016
REMARK  12 active torsions:
REMARK  status: ('A' for Active; 'I' for Inactive)
REMARK    1  A    between atoms: N_2  and  C_20 
REMARK    2  A    between atoms: C_5  and  C_20 
REMARK    3  A    between atoms: C_5  and  C_23 
REMARK       I    between atoms: C_9  and  N_25 
REMARK    4  A    between atoms: C_9  and  C_11 
REMARK    5  A    between atoms: C_10  and  C_18 
REMARK    6  A    between atoms: C_10  and  N_15 
REMARK    7  A    between atoms: C_11  and  C_17 
REMARK    8  A    between atoms: C_11  and  N_27 
REMARK    9  A    between atoms: C_16  and  C_21 
REMARK   10  A    between atoms: C_17  and  C_18 
REMARK   11  A    between atoms: C_21  and  C_23 
REMARK   12  A    between atoms: C_21  and  N_25 
ROOT
HETATM    1  O           1     -27.171  -6.044 -19.776  0.00  0.00    -0.271 OA
HETATM    2  C           1     -26.355  -6.491 -19.006  0.00  0.00     0.249 C 
HETATM    3  H           1     -26.005  -7.063 -17.047  0.00  0.00     0.163 HD
HETATM    4  N           1     -26.689  -6.688 -17.692  0.00  0.00    -0.345 N 
ENDROOT
BRANCH   2   5
HETATM    5  C           1     -24.968  -6.835 -19.491  0.00  0.00     0.274 C 
BRANCH   5   6
HETATM    6  C           1     -25.064  -7.838 -20.634  0.00  0.00     0.044 C 
BRANCH   6   7
HETATM    7  C           1     -24.370  -7.273 -21.865  0.00  0.00     0.030 C 
BRANCH   7   8
HETATM    8  C           1     -23.373  -8.292 -22.400  0.00  0.00     0.230 C 
BRANCH   8   9
HETATM    9  N           1     -22.714  -8.998 -21.253  0.00  0.00    -0.079 N 
HETATM   10  H           1     -23.379  -9.048 -20.447  0.00  0.00     0.274 HD
HETATM   11  H           1     -21.858  -8.472 -20.965  0.00  0.00     0.274 HD
HETATM   12  H           1     -22.448  -9.965 -21.545  0.00  0.00     0.274 HD
ENDBRANCH   8   9
ENDBRANCH   7   8
ENDBRANCH   6   7
ENDBRANCH   5   6
BRANCH   5  13
HETATM   13  N           1     -24.179  -7.434 -18.366  0.00  0.00    -0.067 N 
HETATM   14  H           1     -23.180  -7.535 -18.656  0.00  0.00     0.275 HD
HETATM   15  H           1     -24.236  -6.810 -17.530  0.00  0.00     0.275 HD
HETATM   16  H           1     -24.569  -8.374 -18.128  0.00  0.00     0.275 HD
ENDBRANCH   5  13
ENDBRANCH   2   5
BRANCH   4  17
HETATM   17  C           1     -28.022  -6.358 -17.226  0.00  0.00     0.185 C 
BRANCH  17  18
HETATM   18  C           1     -28.065  -6.455 -15.721  0.00  0.00     0.196 C 
HETATM   19  O           1     -27.542  -7.432 -15.142  0.00  0.00    -0.646 OA
HETATM   20  O           1     -28.621  -5.558 -15.052  0.00  0.00    -0.646 OA
ENDBRANCH  17  18
BRANCH  17  21
HETATM   21  C           1     -29.025  -7.334 -17.827  0.00  0.00     0.038 C 
BRANCH  21  22
HETATM   22  C           1     -30.255  -6.571 -18.299  0.00  0.00     0.030 C 
BRANCH  22  23
HETATM   23  C           1     -31.337  -6.637 -17.229  0.00  0.00     0.230 C 
BRANCH  23  24
HETATM   24  N           1     -31.435  -5.311 -16.534  0.00  0.00    -0.079 N 
HETATM   25  H           1     -32.385  -5.210 -16.111  0.00  0.00     0.274 HD
HETATM   26  H           1     -31.279  -4.543 -17.225  0.00  0.00     0.274 HD
HETATM   27  H           1     -30.711  -5.257 -15.783  0.00  0.00     0.274 HD
ENDBRANCH  23  24
ENDBRANCH  22  23
ENDBRANCH  21  22
ENDBRANCH  17  21
ENDBRANCH   4  17
TORSDOF 12
ENDMDL
MODEL 8
REMARK VINA RESULT:      -5.5      2.474      6.588
REMARK  12 active torsions:
REMARK  status: ('A' for Active; 'I' for Inactive)
REMARK    1  A    between atoms: N_2  and  C_20 
REMARK    2  A    between atoms: C_5  and  C_20 
REMARK    3  A    between atoms: C_5  and  C_23 
REMARK       I    between atoms: C_9  and  N_25 
REMARK    4  A    between atoms: C_9  and  C_11 
REMARK    5  A    between atoms: C_10  and  C_18 
REMARK    6  A    between atoms: C_10  and  N_15 
REMARK    7  A    between atoms: C_11  and  C_17 
REMARK    8  A    between atoms: C_11  and  N_27 
REMARK    9  A    between atoms: C_16  and  C_21 
REMARK   10  A    between atoms: C_17  and  C_18 
REMARK   11  A    between atoms: C_21  and  C_23 
REMARK   12  A    between atoms: C_21  and  N_25 
ROOT
HETATM    1  O           1     -34.052  -1.506 -10.399  0.00  0.00    -0.271 OA
HETATM    2  C           1     -35.042  -1.734 -11.053  0.00  0.00     0.249 C 
HETATM    3  H           1     -36.088  -3.184 -12.096  0.00  0.00     0.163 HD
HETATM    4  N           1     -35.259  -2.992 -11.549  0.00  0.00    -0.345 N 
ENDROOT
BRANCH   2   5
HETATM    5  C           1     -36.040  -0.635 -11.321  0.00  0.00     0.274 C 
BRANCH   5   6
HETATM    6  C           1     -37.346  -0.948 -10.604  0.00  0.00     0.044 C 
BRANCH   6   7
HETATM    7  C           1     -37.815   0.283  -9.841  0.00  0.00     0.030 C 
BRANCH   7   8
HETATM    8  C           1     -37.248   0.254  -8.428  0.00  0.00     0.230 C 
BRANCH   8   9
HETATM    9  N           1     -36.222   1.338  -8.278  0.00  0.00    -0.079 N 
HETATM   10  H           1     -36.677   2.197  -7.893  0.00  0.00     0.274 HD
HETATM   11  H           1     -35.804   1.554  -9.211  0.00  0.00     0.274 HD
HETATM   12  H           1     -35.471   1.019  -7.626  0.00  0.00     0.274 HD
ENDBRANCH   8   9
ENDBRANCH   7   8
ENDBRANCH   6   7
ENDBRANCH   5   6
BRANCH   5  13
HETATM   13  N           1     -36.291  -0.536 -12.796  0.00  0.00    -0.067 N 
HETATM   14  H           1     -35.943   0.384 -13.149  0.00  0.00     0.275 HD
HETATM   15  H           1     -35.788  -1.309 -13.287  0.00  0.00     0.275 HD
HETATM   16  H           1     -37.317  -0.614 -12.981  0.00  0.00     0.275 HD
ENDBRANCH   5  13
ENDBRANCH   2   5
BRANCH   4  17
HETATM   17  C           1     -34.301  -4.049 -11.291  0.00  0.00     0.185 C 
BRANCH  17  18
HETATM   18  C           1     -33.292  -4.097 -12.412  0.00  0.00     0.196 C 
HETATM   19  O           1     -33.653  -3.869 -13.587  0.00  0.00    -0.646 OA
HETATM   20  O           1     -32.097  -4.365 -12.167  0.00  0.00    -0.646 OA
ENDBRANCH  17  18
BRANCH  17  21
HETATM   21  C           1     -35.030  -5.384 -11.205  0.00  0.00     0.038 C 
BRANCH  21  22
HETATM   22  C           1     -34.133  -6.409 -10.524  0.00  0.00     0.030 C 
BRANCH  22  23
HETATM   23  C           1     -34.995  -7.461  -9.836  0.00  0.00     0.230 C 
BRANCH  23  24
HETATM   24  N           1     -34.167  -8.680  -9.557  0.00  0.00    -0.079 N 
HETATM   25  H           1     -34.447  -9.448 -10.208  0.00  0.00     0.274 HD
HETATM   26  H           1     -34.322  -8.988  -8.570  0.00  0.00     0.274 HD
HETATM   27  H           1     -33.157  -8.455  -9.697  0.00  0.00     0.274 HD
ENDBRANCH  23  24
ENDBRANCH  22  23
ENDBRANCH  21  22
ENDBRANCH  17  21
ENDBRANCH   4  17
TORSDOF 12
ENDMDL
MODEL 9
REMARK VINA RESULT:      -5.4     14.484     17.353
REMARK  12 active torsions:
REMARK  status: ('A' for Active; 'I' for Inactive)
REMARK    1  A    between atoms: N_2  and  C_20 
REMARK    2  A    between atoms: C_5  and  C_20 
REMARK    3  A    between atoms: C_5  and  C_23 
REMARK       I    between atoms: C_9  and  N_25 
REMARK    4  A    between atoms: C_9  and  C_11 
REMARK    5  A    between atoms: C_10  and  C_18 
REMARK    6  A    between atoms: C_10  and  N_15 
REMARK    7  A    between atoms: C_11  and  C_17 
REMARK    8  A    between atoms: C_11  and  N_27 
REMARK    9  A    between atoms: C_16  and  C_21 
REMARK   10  A    between atoms: C_17  and  C_18 
REMARK   11  A    between atoms: C_21  and  C_23 
REMARK   12  A    between atoms: C_21  and  N_25 
ROOT
HETATM    1  O           1     -22.621  -5.673  -5.665  0.00  0.00    -0.271 OA
HETATM    2  C           1     -21.418  -5.789  -5.650  0.00  0.00     0.249 C 
HETATM    3  H           1     -19.820  -6.775  -4.780  0.00  0.00     0.163 HD
HETATM    4  N           1     -20.827  -6.677  -4.792  0.00  0.00    -0.345 N 
ENDROOT
BRANCH   2   5
HETATM    5  C           1     -20.569  -4.957  -6.579  0.00  0.00     0.274 C 
BRANCH   5   6
HETATM    6  C           1     -21.424  -3.866  -7.209  0.00  0.00     0.044 C 
BRANCH   6   7
HETATM    7  C           1     -21.494  -4.082  -8.715  0.00  0.00     0.030 C 
BRANCH   7   8
HETATM    8  C           1     -22.950  -4.203  -9.145  0.00  0.00     0.230 C 
BRANCH   8   9
HETATM    9  N           1     -23.838  -4.089  -7.942  0.00  0.00    -0.079 N 
HETATM   10  H           1     -23.251  -3.996  -7.082  0.00  0.00     0.274 HD
HETATM   11  H           1     -24.433  -4.946  -7.865  0.00  0.00     0.274 HD
HETATM   12  H           1     -24.450  -3.248  -8.039  0.00  0.00     0.274 HD
ENDBRANCH   8   9
ENDBRANCH   7   8
ENDBRANCH   6   7
ENDBRANCH   5   6
BRANCH   5  13
HETATM   13  N           1     -20.001  -5.832  -7.656  0.00  0.00    -0.067 N 
HETATM   14  H           1     -19.292  -6.480  -7.242  0.00  0.00     0.275 HD
HETATM   15  H           1     -20.769  -6.390  -8.092  0.00  0.00     0.275 HD
HETATM   16  H           1     -19.545  -5.237  -8.384  0.00  0.00     0.275 HD
ENDBRANCH   5  13
ENDBRANCH   2   5
BRANCH   4  17
HETATM   17  C           1     -21.643  -7.478  -3.900  0.00  0.00     0.185 C 
BRANCH  17  18
HETATM   18  C           1     -21.601  -6.885  -2.513  0.00  0.00     0.196 C 
HETATM   19  O           1     -22.285  -5.874  -2.245  0.00  0.00    -0.646 OA
HETATM   20  O           1     -20.883  -7.405  -1.633  0.00  0.00    -0.646 OA
ENDBRANCH  17  18
BRANCH  17  21
HETATM   21  C           1     -21.104  -8.902  -3.861  0.00  0.00     0.038 C 
BRANCH  21  22
HETATM   22  C           1     -19.801  -8.973  -4.645  0.00  0.00     0.030 C 
BRANCH  22  23
HETATM   23  C           1     -18.655  -9.309  -3.699  0.00  0.00     0.230 C 
BRANCH  23  24
HETATM   24  N           1     -19.211  -9.825  -2.404  0.00  0.00    -0.079 N 
HETATM   25  H           1     -19.029 -10.852  -2.332  0.00  0.00     0.274 HD
HETATM   26  H           1     -20.241  -9.652  -2.373  0.00  0.00     0.274 HD
HETATM   27  H           1     -18.750  -9.332  -1.607  0.00  0.00     0.274 HD
ENDBRANCH  23  24
ENDBRANCH  22  23
ENDBRANCH  21  22
ENDBRANCH  17  21
ENDBRANCH   4  17
TORSDOF 12
ENDMDL
