MODEL 1
REMARK VINA RESULT:      -6.6      0.000      0.000
REMARK  9 active torsions:
REMARK  status: ('A' for Active; 'I' for Inactive)
REMARK    1  A    between atoms: C_2  and  C_24 
REMARK    2  A    between atoms: S_6  and  C_9 
REMARK    3  A    between atoms: N_8  and  C_16 
REMARK    4  A    between atoms: C_9  and  C_11 
REMARK    5  A    between atoms: C_11  and  C_16 
REMARK    6  A    between atoms: N_14  and  C_24 
REMARK       I    between atoms: N_14  and  C_15 
REMARK    7  A    between atoms: C_15  and  C_16 
REMARK    8  A    between atoms: C_22  and  C_23 
REMARK    9  A    between atoms: C_23  and  C_24 
ROOT
HETATM    1  O           1     -33.485  -1.746 -10.153  0.00  0.00    -0.271 OA
HETATM    2  N           1     -35.696  -1.435 -10.116  0.00  0.00    -0.344 N 
HETATM    3  C           1     -34.572  -2.080 -10.558  0.00  0.00     0.249 C 
HETATM    4  H           1     -36.181  -1.769  -9.294  0.00  0.00     0.163 HD
ENDROOT
BRANCH   2   5
HETATM    5  C           1     -36.191  -0.273 -10.828  0.00  0.00     0.189 C 
BRANCH   5   6
HETATM    6  C           1     -36.909   0.639  -9.864  0.00  0.00     0.197 C 
HETATM    7  O           1     -38.074   1.018 -10.112  0.00  0.00    -0.646 OA
HETATM    8  O           1     -36.339   1.016  -8.818  0.00  0.00    -0.646 OA
ENDBRANCH   5   6
BRANCH   5   9
HETATM    9  C           1     -37.155  -0.720 -11.920  0.00  0.00     0.074 C 
BRANCH   9  10
HETATM   10  C           1     -36.742  -0.121 -13.227  0.00  0.00    -0.056 A 
HETATM   11  C           1     -37.608  -0.167 -14.320  0.00  0.00     0.007 A 
HETATM   12  C           1     -37.223   0.391 -15.540  0.00  0.00     0.001 A 
HETATM   13  C           1     -35.972   0.996 -15.666  0.00  0.00     0.000 A 
HETATM   14  C           1     -35.107   1.043 -14.572  0.00  0.00     0.001 A 
HETATM   15  C           1     -35.492   0.484 -13.353  0.00  0.00     0.007 A 
ENDBRANCH   9  10
ENDBRANCH   5   9
ENDBRANCH   2   5
BRANCH   3  16
HETATM   16  C           1     -34.692  -3.211 -11.550  0.00  0.00     0.275 C 
BRANCH  16  17
HETATM   17  N           1     -34.278  -2.728 -12.909  0.00  0.00    -0.066 N 
HETATM   18  H           1     -35.069  -2.853 -13.580  0.00  0.00     0.275 HD
HETATM   19  H           1     -33.452  -3.277 -13.236  0.00  0.00     0.275 HD
HETATM   20  H           1     -34.025  -1.715 -12.856  0.00  0.00     0.275 HD
ENDBRANCH  16  17
BRANCH  16  21
HETATM   21  C           1     -33.789  -4.360 -11.123  0.00  0.00     0.053 C 
BRANCH  21  22
HETATM   22  C           1     -34.496  -5.685 -11.378  0.00  0.00     0.076 C 
BRANCH  22  23
HETATM   23  S           1     -34.924  -6.458  -9.793  0.00  0.00    -0.173 SA
HETATM   24  C           1     -34.439  -8.144 -10.257  0.00  0.00     0.089 C 
ENDBRANCH  22  23
ENDBRANCH  21  22
ENDBRANCH  16  21
ENDBRANCH   3  16
TORSDOF 9
ENDMDL
MODEL 2
REMARK VINA RESULT:      -6.5      2.583      5.444
REMARK  9 active torsions:
REMARK  status: ('A' for Active; 'I' for Inactive)
REMARK    1  A    between atoms: C_2  and  C_24 
REMARK    2  A    between atoms: S_6  and  C_9 
REMARK    3  A    between atoms: N_8  and  C_16 
REMARK    4  A    between atoms: C_9  and  C_11 
REMARK    5  A    between atoms: C_11  and  C_16 
REMARK    6  A    between atoms: N_14  and  C_24 
REMARK       I    between atoms: N_14  and  C_15 
REMARK    7  A    between atoms: C_15  and  C_16 
REMARK    8  A    between atoms: C_22  and  C_23 
REMARK    9  A    between atoms: C_23  and  C_24 
ROOT
HETATM    1  O           1     -37.653  -0.754 -13.022  0.00  0.00    -0.271 OA
HETATM    2  N           1     -36.544   0.024 -11.246  0.00  0.00    -0.344 N 
HETATM    3  C           1     -36.610  -0.362 -12.559  0.00  0.00     0.249 C 
HETATM    4  H           1     -36.726   0.985 -10.992  0.00  0.00     0.163 HD
ENDROOT
BRANCH   2   5
HETATM    5  C           1     -36.212  -0.948 -10.222  0.00  0.00     0.189 C 
BRANCH   5   6
HETATM    6  C           1     -36.626  -0.416  -8.872  0.00  0.00     0.197 C 
HETATM    7  O           1     -37.788  -0.609  -8.454  0.00  0.00    -0.646 OA
HETATM    8  O           1     -35.808   0.218  -8.172  0.00  0.00    -0.646 OA
ENDBRANCH   5   6
BRANCH   5   9
HETATM    9  C           1     -34.711  -1.202 -10.230  0.00  0.00     0.074 C 
BRANCH   9  10
HETATM   10  C           1     -34.442  -2.597 -10.699  0.00  0.00    -0.056 A 
HETATM   11  C           1     -35.474  -3.535 -10.724  0.00  0.00     0.007 A 
HETATM   12  C           1     -35.225  -4.836 -11.162  0.00  0.00     0.001 A 
HETATM   13  C           1     -33.942  -5.199 -11.574  0.00  0.00     0.000 A 
HETATM   14  C           1     -32.911  -4.261 -11.550  0.00  0.00     0.001 A 
HETATM   15  C           1     -33.160  -2.960 -11.113  0.00  0.00     0.007 A 
ENDBRANCH   9  10
ENDBRANCH   5   9
ENDBRANCH   2   5
BRANCH   3  16
HETATM   16  C           1     -35.377  -0.294 -13.428  0.00  0.00     0.275 C 
BRANCH  16  17
HETATM   17  N           1     -34.976  -1.682 -13.832  0.00  0.00    -0.066 N 
HETATM   18  H           1     -34.660  -1.677 -14.828  0.00  0.00     0.275 HD
HETATM   19  H           1     -35.793  -2.324 -13.729  0.00  0.00     0.275 HD
HETATM   20  H           1     -34.195  -2.011 -13.222  0.00  0.00     0.275 HD
ENDBRANCH  16  17
BRANCH  16  21
HETATM   21  C           1     -35.677   0.530 -14.672  0.00  0.00     0.053 C 
BRANCH  21  22
HETATM   22  C           1     -35.624  -0.367 -15.902  0.00  0.00     0.076 C 
BRANCH  22  23
HETATM   23  S           1     -37.312  -0.781 -16.424  0.00  0.00    -0.173 SA
HETATM   24  C           1     -38.075   0.774 -15.883  0.00  0.00     0.089 C 
ENDBRANCH  22  23
ENDBRANCH  21  22
ENDBRANCH  16  21
ENDBRANCH   3  16
TORSDOF 9
ENDMDL
MODEL 3
REMARK VINA RESULT:      -6.2     14.490     16.235
REMARK  9 active torsions:
REMARK  status: ('A' for Active; 'I' for Inactive)
REMARK    1  A    between atoms: C_2  and  C_24 
REMARK    2  A    between atoms: S_6  and  C_9 
REMARK    3  A    between atoms: N_8  and  C_16 
REMARK    4  A    between atoms: C_9  and  C_11 
REMARK    5  A    between atoms: C_11  and  C_16 
REMARK    6  A    between atoms: N_14  and  C_24 
REMARK       I    between atoms: N_14  and  C_15 
REMARK    7  A    between atoms: C_15  and  C_16 
REMARK    8  A    between atoms: C_22  and  C_23 
REMARK    9  A    between atoms: C_23  and  C_24 
ROOT
HETATM    1  O           1     -21.056  -5.817  -3.750  0.00  0.00    -0.271 OA
HETATM    2  N           1     -22.280  -5.813  -5.618  0.00  0.00    -0.344 N 
HETATM    3  C           1     -21.658  -6.454  -4.580  0.00  0.00     0.249 C 
HETATM    4  H           1     -23.240  -5.510  -5.522  0.00  0.00     0.163 HD
ENDROOT
BRANCH   2   5
HETATM    5  C           1     -21.562  -5.569  -6.854  0.00  0.00     0.189 C 
BRANCH   5   6
HETATM    6  C           1     -20.077  -5.609  -6.588  0.00  0.00     0.197 C 
HETATM    7  O           1     -19.500  -4.605  -6.117  0.00  0.00    -0.646 OA
HETATM    8  O           1     -19.424  -6.645  -6.839  0.00  0.00    -0.646 OA
ENDBRANCH   5   6
BRANCH   5   9
HETATM    9  C           1     -21.945  -4.201  -7.402  0.00  0.00     0.074 C 
BRANCH   9  10
HETATM   10  C           1     -21.868  -4.222  -8.896  0.00  0.00    -0.056 A 
HETATM   11  C           1     -23.026  -4.407  -9.651  0.00  0.00     0.007 A 
HETATM   12  C           1     -22.955  -4.426 -11.044  0.00  0.00     0.001 A 
HETATM   13  C           1     -21.726  -4.260 -11.682  0.00  0.00     0.000 A 
HETATM   14  C           1     -20.568  -4.073 -10.927  0.00  0.00     0.001 A 
HETATM   15  C           1     -20.639  -4.054  -9.534  0.00  0.00     0.007 A 
ENDBRANCH   9  10
ENDBRANCH   5   9
ENDBRANCH   2   5
BRANCH   3  16
HETATM   16  C           1     -21.725  -7.959  -4.473  0.00  0.00     0.275 C 
BRANCH  16  17
HETATM   17  N           1     -21.295  -8.570  -5.774  0.00  0.00    -0.066 N 
HETATM   18  H           1     -20.704  -7.888  -6.301  0.00  0.00     0.275 HD
HETATM   19  H           1     -22.138  -8.813  -6.340  0.00  0.00     0.275 HD
HETATM   20  H           1     -20.741  -9.436  -5.585  0.00  0.00     0.275 HD
ENDBRANCH  16  17
BRANCH  16  21
HETATM   21  C           1     -20.800  -8.431  -3.360  0.00  0.00     0.053 C 
BRANCH  21  22
HETATM   22  C           1     -21.614  -9.148  -2.291  0.00  0.00     0.076 C 
BRANCH  22  23
HETATM   23  S           1     -21.214  -8.459  -0.660  0.00  0.00    -0.173 SA
HETATM   24  C           1     -22.389  -7.078  -0.734  0.00  0.00     0.089 C 
ENDBRANCH  22  23
ENDBRANCH  21  22
ENDBRANCH  16  21
ENDBRANCH   3  16
TORSDOF 9
ENDMDL
MODEL 4
REMARK VINA RESULT:      -6.1     13.264     16.422
REMARK  9 active torsions:
REMARK  status: ('A' for Active; 'I' for Inactive)
REMARK    1  A    between atoms: C_2  and  C_24 
REMARK    2  A    between atoms: S_6  and  C_9 
REMARK    3  A    between atoms: N_8  and  C_16 
REMARK    4  A    between atoms: C_9  and  C_11 
REMARK    5  A    between atoms: C_11  and  C_16 
REMARK    6  A    between atoms: N_14  and  C_24 
REMARK       I    between atoms: N_14  and  C_15 
REMARK    7  A    between atoms: C_15  and  C_16 
REMARK    8  A    between atoms: C_22  and  C_23 
REMARK    9  A    between atoms: C_23  and  C_24 
ROOT
HETATM    1  O           1     -23.838  -4.430  -6.808  0.00  0.00    -0.271 OA
HETATM    2  N           1     -21.754  -3.752  -7.238  0.00  0.00    -0.344 N 
HETATM    3  C           1     -22.972  -4.244  -7.627  0.00  0.00     0.249 C 
HETATM    4  H           1     -21.596  -2.754  -7.217  0.00  0.00     0.163 HD
ENDROOT
BRANCH   2   5
HETATM    5  C           1     -20.693  -4.664  -6.859  0.00  0.00     0.189 C 
BRANCH   5   6
HETATM    6  C           1     -19.558  -4.554  -7.848  0.00  0.00     0.197 C 
HETATM    7  O           1     -18.421  -4.212  -7.458  0.00  0.00    -0.646 OA
HETATM    8  O           1     -19.756  -4.806  -9.056  0.00  0.00    -0.646 OA
ENDBRANCH   5   6
BRANCH   5   9
HETATM    9  C           1     -21.226  -6.091  -6.854  0.00  0.00     0.074 C 
BRANCH   9  10
HETATM   10  C           1     -21.055  -6.683  -5.490  0.00  0.00    -0.056 A 
HETATM   11  C           1     -20.411  -7.912  -5.339  0.00  0.00     0.007 A 
HETATM   12  C           1     -20.251  -8.464  -4.069  0.00  0.00     0.001 A 
HETATM   13  C           1     -20.735  -7.788  -2.948  0.00  0.00     0.000 A 
HETATM   14  C           1     -21.377  -6.559  -3.099  0.00  0.00     0.001 A 
HETATM   15  C           1     -21.538  -6.007  -4.370  0.00  0.00     0.007 A 
ENDBRANCH   9  10
ENDBRANCH   5   9
ENDBRANCH   2   5
BRANCH   3  16
HETATM   16  C           1     -23.231  -4.552  -9.082  0.00  0.00     0.275 C 
BRANCH  16  17
HETATM   17  N           1     -24.711  -4.628  -9.319  0.00  0.00    -0.066 N 
HETATM   18  H           1     -25.030  -3.765  -9.815  0.00  0.00     0.275 HD
HETATM   19  H           1     -25.206  -4.708  -8.403  0.00  0.00     0.275 HD
HETATM   20  H           1     -24.927  -5.465  -9.906  0.00  0.00     0.275 HD
ENDBRANCH  16  17
BRANCH  16  21
HETATM   21  C           1     -22.635  -3.451  -9.949  0.00  0.00     0.053 C 
BRANCH  21  22
HETATM   22  C           1     -22.628  -3.897 -11.405  0.00  0.00     0.076 C 
BRANCH  22  23
HETATM   23  S           1     -23.874  -2.960 -12.333  0.00  0.00    -0.173 SA
HETATM   24  C           1     -22.952  -2.895 -13.895  0.00  0.00     0.089 C 
ENDBRANCH  22  23
ENDBRANCH  21  22
ENDBRANCH  16  21
ENDBRANCH   3  16
TORSDOF 9
ENDMDL
MODEL 5
REMARK VINA RESULT:      -6.0      3.025      5.391
REMARK  9 active torsions:
REMARK  status: ('A' for Active; 'I' for Inactive)
REMARK    1  A    between atoms: C_2  and  C_24 
REMARK    2  A    between atoms: S_6  and  C_9 
REMARK    3  A    between atoms: N_8  and  C_16 
REMARK    4  A    between atoms: C_9  and  C_11 
REMARK    5  A    between atoms: C_11  and  C_16 
REMARK    6  A    between atoms: N_14  and  C_24 
REMARK       I    between atoms: N_14  and  C_15 
REMARK    7  A    between atoms: C_15  and  C_16 
REMARK    8  A    between atoms: C_22  and  C_23 
REMARK    9  A    between atoms: C_23  and  C_24 
ROOT
HETATM    1  O           1     -37.177   0.514 -14.513  0.00  0.00    -0.271 OA
HETATM    2  N           1     -35.369  -0.358 -13.535  0.00  0.00    -0.344 N 
HETATM    3  C           1     -36.272  -0.284 -14.561  0.00  0.00     0.249 C 
HETATM    4  H           1     -34.532   0.209 -13.556  0.00  0.00     0.163 HD
ENDROOT
BRANCH   2   5
HETATM    5  C           1     -35.612  -1.252 -12.420  0.00  0.00     0.189 C 
BRANCH   5   6
HETATM    6  C           1     -36.606  -0.621 -11.477  0.00  0.00     0.197 C 
HETATM    7  O           1     -37.750  -1.111 -11.354  0.00  0.00    -0.646 OA
HETATM    8  O           1     -36.287   0.392 -10.818  0.00  0.00    -0.646 OA
ENDBRANCH   5   6
BRANCH   5   9
HETATM    9  C           1     -34.304  -1.510 -11.682  0.00  0.00     0.074 C 
BRANCH   9  10
HETATM   10  C           1     -34.134  -2.981 -11.467  0.00  0.00    -0.056 A 
HETATM   11  C           1     -35.178  -3.734 -10.931  0.00  0.00     0.007 A 
HETATM   12  C           1     -35.020  -5.106 -10.731  0.00  0.00     0.001 A 
HETATM   13  C           1     -33.815  -5.725 -11.068  0.00  0.00     0.000 A 
HETATM   14  C           1     -32.771  -4.972 -11.605  0.00  0.00     0.001 A 
HETATM   15  C           1     -32.930  -3.600 -11.805  0.00  0.00     0.007 A 
ENDBRANCH   9  10
ENDBRANCH   5   9
ENDBRANCH   2   5
BRANCH   3  16
HETATM   16  C           1     -36.136  -1.198 -15.755  0.00  0.00     0.275 C 
BRANCH  16  17
HETATM   17  N           1     -36.839  -0.588 -16.932  0.00  0.00    -0.066 N 
HETATM   18  H           1     -37.802  -0.987 -17.007  0.00  0.00     0.275 HD
HETATM   19  H           1     -36.305  -0.800 -17.804  0.00  0.00     0.275 HD
HETATM   20  H           1     -36.901   0.447 -16.803  0.00  0.00     0.275 HD
ENDBRANCH  16  17
BRANCH  16  21
HETATM   21  C           1     -34.662  -1.385 -16.085  0.00  0.00     0.053 C 
BRANCH  21  22
HETATM   22  C           1     -34.482  -2.655 -16.907  0.00  0.00     0.076 C 
BRANCH  22  23
HETATM   23  S           1     -33.986  -4.018 -15.816  0.00  0.00    -0.173 SA
HETATM   24  C           1     -32.477  -4.460 -16.723  0.00  0.00     0.089 C 
ENDBRANCH  22  23
ENDBRANCH  21  22
ENDBRANCH  16  21
ENDBRANCH   3  16
TORSDOF 9
ENDMDL
MODEL 6
REMARK VINA RESULT:      -6.0     15.265     17.294
REMARK  9 active torsions:
REMARK  status: ('A' for Active; 'I' for Inactive)
REMARK    1  A    between atoms: C_2  and  C_24 
REMARK    2  A    between atoms: S_6  and  C_9 
REMARK    3  A    between atoms: N_8  and  C_16 
REMARK    4  A    between atoms: C_9  and  C_11 
REMARK    5  A    between atoms: C_11  and  C_16 
REMARK    6  A    between atoms: N_14  and  C_24 
REMARK       I    between atoms: N_14  and  C_15 
REMARK    7  A    between atoms: C_15  and  C_16 
REMARK    8  A    between atoms: C_22  and  C_23 
REMARK    9  A    between atoms: C_23  and  C_24 
ROOT
HETATM    1  O           1     -21.586  -5.313  -2.241  0.00  0.00    -0.271 OA
HETATM    2  N           1     -22.560  -6.472  -3.882  0.00  0.00    -0.344 N 
HETATM    3  C           1     -21.954  -6.384  -2.657  0.00  0.00     0.249 C 
HETATM    4  H           1     -23.564  -6.384  -3.958  0.00  0.00     0.163 HD
ENDROOT
BRANCH   2   5
HETATM    5  C           1     -21.760  -6.695  -5.071  0.00  0.00     0.189 C 
BRANCH   5   6
HETATM    6  C           1     -20.983  -7.979  -4.922  0.00  0.00     0.197 C 
HETATM    7  O           1     -19.741  -7.946  -4.780  0.00  0.00    -0.646 OA
HETATM    8  O           1     -21.581  -9.077  -4.938  0.00  0.00    -0.646 OA
ENDBRANCH   5   6
BRANCH   5   9
HETATM    9  C           1     -20.792  -5.533  -5.256  0.00  0.00     0.074 C 
BRANCH   9  10
HETATM   10  C           1     -20.891  -5.018  -6.658  0.00  0.00    -0.056 A 
HETATM   11  C           1     -19.765  -5.016  -7.481  0.00  0.00     0.007 A 
HETATM   12  C           1     -19.857  -4.536  -8.788  0.00  0.00     0.001 A 
HETATM   13  C           1     -21.076  -4.058  -9.271  0.00  0.00     0.000 A 
HETATM   14  C           1     -22.202  -4.061  -8.447  0.00  0.00     0.001 A 
HETATM   15  C           1     -22.110  -4.541  -7.140  0.00  0.00     0.007 A 
ENDBRANCH   9  10
ENDBRANCH   5   9
ENDBRANCH   2   5
BRANCH   3  16
HETATM   16  C           1     -21.748  -7.628  -1.826  0.00  0.00     0.275 C 
BRANCH  16  17
HETATM   17  N           1     -20.278  -7.864  -1.639  0.00  0.00    -0.066 N 
HETATM   18  H           1     -19.928  -8.495  -2.395  0.00  0.00     0.275 HD
HETATM   19  H           1     -20.113  -8.308  -0.709  0.00  0.00     0.275 HD
HETATM   20  H           1     -19.770  -6.952  -1.686  0.00  0.00     0.275 HD
ENDBRANCH  16  17
BRANCH  16  21
HETATM   21  C           1     -22.409  -7.446  -0.467  0.00  0.00     0.053 C 
BRANCH  21  22
HETATM   22  C           1     -22.173  -8.687   0.384  0.00  0.00     0.076 C 
BRANCH  22  23
HETATM   23  S           1     -23.082 -10.089  -0.323  0.00  0.00    -0.173 SA
HETATM   24  C           1     -21.719 -11.283  -0.219  0.00  0.00     0.089 C 
ENDBRANCH  22  23
ENDBRANCH  21  22
ENDBRANCH  16  21
ENDBRANCH   3  16
TORSDOF 9
ENDMDL
MODEL 7
REMARK VINA RESULT:      -5.9     17.349     19.360
REMARK  9 active torsions:
REMARK  status: ('A' for Active; 'I' for Inactive)
REMARK    1  A    between atoms: C_2  and  C_24 
REMARK    2  A    between atoms: S_6  and  C_9 
REMARK    3  A    between atoms: N_8  and  C_16 
REMARK    4  A    between atoms: C_9  and  C_11 
REMARK    5  A    between atoms: C_11  and  C_16 
REMARK    6  A    between atoms: N_14  and  C_24 
REMARK       I    between atoms: N_14  and  C_15 
REMARK    7  A    between atoms: C_15  and  C_16 
REMARK    8  A    between atoms: C_22  and  C_23 
REMARK    9  A    between atoms: C_23  and  C_24 
ROOT
HETATM    1  O           1     -22.219  -5.906  -2.471  0.00  0.00    -0.271 OA
HETATM    2  N           1     -21.681  -7.663  -3.740  0.00  0.00    -0.344 N 
HETATM    3  C           1     -21.824  -7.045  -2.527  0.00  0.00     0.249 C 
HETATM    4  H           1     -22.454  -8.180  -4.138  0.00  0.00     0.163 HD
ENDROOT
BRANCH   2   5
HETATM    5  C           1     -20.421  -7.578  -4.453  0.00  0.00     0.189 C 
BRANCH   5   6
HETATM    6  C           1     -20.548  -6.582  -5.579  0.00  0.00     0.197 C 
HETATM    7  O           1     -20.758  -6.981  -6.745  0.00  0.00    -0.646 OA
HETATM    8  O           1     -20.444  -5.359  -5.347  0.00  0.00    -0.646 OA
ENDBRANCH   5   6
BRANCH   5   9
HETATM    9  C           1     -20.066  -8.946  -5.021  0.00  0.00     0.074 C 
BRANCH   9  10
HETATM   10  C           1     -18.658  -9.290  -4.649  0.00  0.00    -0.056 A 
HETATM   11  C           1     -17.738  -9.633  -5.640  0.00  0.00     0.007 A 
HETATM   12  C           1     -16.426  -9.954  -5.295  0.00  0.00     0.001 A 
HETATM   13  C           1     -16.032  -9.932  -3.956  0.00  0.00     0.000 A 
HETATM   14  C           1     -16.951  -9.588  -2.965  0.00  0.00     0.001 A 
HETATM   15  C           1     -18.264  -9.267  -3.311  0.00  0.00     0.007 A 
ENDBRANCH   9  10
ENDBRANCH   5   9
ENDBRANCH   2   5
BRANCH   3  16
HETATM   16  C           1     -21.489  -7.790  -1.256  0.00  0.00     0.275 C 
BRANCH  16  17
HETATM   17  N           1     -22.398  -7.330  -0.155  0.00  0.00    -0.066 N 
HETATM   18  H           1     -22.738  -8.157   0.385  0.00  0.00     0.275 HD
HETATM   19  H           1     -23.214  -6.823  -0.566  0.00  0.00     0.275 HD
HETATM   20  H           1     -21.876  -6.689   0.483  0.00  0.00     0.275 HD
ENDBRANCH  16  17
BRANCH  16  21
HETATM   21  C           1     -21.677  -9.284  -1.479  0.00  0.00     0.053 C 
BRANCH  21  22
HETATM   22  C           1     -22.790  -9.797  -0.574  0.00  0.00     0.076 C 
BRANCH  22  23
HETATM   23  S           1     -23.584 -11.235  -1.346  0.00  0.00    -0.173 SA
HETATM   24  C           1     -22.721 -11.109  -2.937  0.00  0.00     0.089 C 
ENDBRANCH  22  23
ENDBRANCH  21  22
ENDBRANCH  16  21
ENDBRANCH   3  16
TORSDOF 9
ENDMDL
MODEL 8
REMARK VINA RESULT:      -5.8     17.279     19.626
REMARK  9 active torsions:
REMARK  status: ('A' for Active; 'I' for Inactive)
REMARK    1  A    between atoms: C_2  and  C_24 
REMARK    2  A    between atoms: S_6  and  C_9 
REMARK    3  A    between atoms: N_8  and  C_16 
REMARK    4  A    between atoms: C_9  and  C_11 
REMARK    5  A    between atoms: C_11  and  C_16 
REMARK    6  A    between atoms: N_14  and  C_24 
REMARK       I    between atoms: N_14  and  C_15 
REMARK    7  A    between atoms: C_15  and  C_16 
REMARK    8  A    between atoms: C_22  and  C_23 
REMARK    9  A    between atoms: C_23  and  C_24 
ROOT
HETATM    1  O           1     -20.013 -10.296  -5.987  0.00  0.00    -0.271 OA
HETATM    2  N           1     -19.881  -8.612  -4.526  0.00  0.00    -0.344 N 
HETATM    3  C           1     -19.800  -9.939  -4.854  0.00  0.00     0.249 C 
HETATM    4  H           1     -19.063  -8.022  -4.596  0.00  0.00     0.163 HD
ENDROOT
BRANCH   2   5
HETATM    5  C           1     -21.142  -8.052  -4.078  0.00  0.00     0.189 C 
BRANCH   5   6
HETATM    6  C           1     -21.662  -7.089  -5.118  0.00  0.00     0.197 C 
HETATM    7  O           1     -22.540  -6.254  -4.811  0.00  0.00    -0.646 OA
HETATM    8  O           1     -21.214  -7.126  -6.284  0.00  0.00    -0.646 OA
ENDBRANCH   5   6
BRANCH   5   9
HETATM    9  C           1     -20.931  -7.315  -2.762  0.00  0.00     0.074 C 
BRANCH   9  10
HETATM   10  C           1     -21.748  -7.964  -1.690  0.00  0.00    -0.056 A 
HETATM   11  C           1     -21.965  -9.342  -1.715  0.00  0.00     0.007 A 
HETATM   12  C           1     -22.726  -9.947  -0.715  0.00  0.00     0.001 A 
HETATM   13  C           1     -23.271  -9.174   0.311  0.00  0.00     0.000 A 
HETATM   14  C           1     -23.054  -7.797   0.336  0.00  0.00     0.001 A 
HETATM   15  C           1     -22.293  -7.191  -0.664  0.00  0.00     0.007 A 
ENDBRANCH   9  10
ENDBRANCH   5   9
ENDBRANCH   2   5
BRANCH   3  16
HETATM   16  C           1     -19.442 -10.956  -3.798  0.00  0.00     0.275 C 
BRANCH  16  17
HETATM   17  N           1     -18.769 -12.131  -4.445  0.00  0.00    -0.066 N 
HETATM   18  H           1     -17.977 -12.453  -3.844  0.00  0.00     0.275 HD
HETATM   19  H           1     -18.405 -11.850  -5.382  0.00  0.00     0.275 HD
HETATM   20  H           1     -19.458 -12.908  -4.557  0.00  0.00     0.275 HD
ENDBRANCH  16  17
BRANCH  16  21
HETATM   21  C           1     -18.498 -10.326  -2.784  0.00  0.00     0.053 C 
BRANCH  21  22
HETATM   22  C           1     -17.645 -11.410  -2.139  0.00  0.00     0.076 C 
BRANCH  22  23
HETATM   23  S           1     -15.906 -10.889  -2.130  0.00  0.00    -0.173 SA
HETATM   24  C           1     -16.085  -9.579  -3.373  0.00  0.00     0.089 C 
ENDBRANCH  22  23
ENDBRANCH  21  22
ENDBRANCH  16  21
ENDBRANCH   3  16
TORSDOF 9
ENDMDL
MODEL 9
REMARK VINA RESULT:      -5.8     18.336     20.108
REMARK  9 active torsions:
REMARK  status: ('A' for Active; 'I' for Inactive)
REMARK    1  A    between atoms: C_2  and  C_24 
REMARK    2  A    between atoms: S_6  and  C_9 
REMARK    3  A    between atoms: N_8  and  C_16 
REMARK    4  A    between atoms: C_9  and  C_11 
REMARK    5  A    between atoms: C_11  and  C_16 
REMARK    6  A    between atoms: N_14  and  C_24 
REMARK       I    between atoms: N_14  and  C_15 
REMARK    7  A    between atoms: C_15  and  C_16 
REMARK    8  A    between atoms: C_22  and  C_23 
REMARK    9  A    between atoms: C_23  and  C_24 
ROOT
HETATM    1  O           1     -20.888  -7.806  -4.751  0.00  0.00    -0.271 OA
HETATM    2  N           1     -20.467  -7.821  -2.558  0.00  0.00    -0.344 N 
HETATM    3  C           1     -20.397  -8.377  -3.807  0.00  0.00     0.249 C 
HETATM    4  H           1     -19.736  -7.200  -2.239  0.00  0.00     0.163 HD
ENDROOT
BRANCH   2   5
HETATM    5  C           1     -21.590  -8.125  -1.692  0.00  0.00     0.189 C 
BRANCH   5   6
HETATM    6  C           1     -22.326  -6.850  -1.357  0.00  0.00     0.197 C 
HETATM    7  O           1     -22.870  -6.718  -0.240  0.00  0.00    -0.646 OA
HETATM    8  O           1     -22.391  -5.927  -2.197  0.00  0.00    -0.646 OA
ENDBRANCH   5   6
BRANCH   5   9
HETATM    9  C           1     -21.082  -8.770  -0.409  0.00  0.00     0.074 C 
BRANCH   9  10
HETATM   10  C           1     -21.854 -10.024  -0.140  0.00  0.00    -0.056 A 
HETATM   11  C           1     -23.197 -10.108  -0.507  0.00  0.00     0.007 A 
HETATM   12  C           1     -23.917 -11.277  -0.258  0.00  0.00     0.001 A 
HETATM   13  C           1     -23.293 -12.362   0.359  0.00  0.00     0.000 A 
HETATM   14  C           1     -21.949 -12.277   0.725  0.00  0.00     0.001 A 
HETATM   15  C           1     -21.229 -11.109   0.475  0.00  0.00     0.007 A 
ENDBRANCH   9  10
ENDBRANCH   5   9
ENDBRANCH   2   5
BRANCH   3  16
HETATM   16  C           1     -19.704  -9.703  -4.005  0.00  0.00     0.275 C 
BRANCH  16  17
HETATM   17  N           1     -19.417  -9.902  -5.464  0.00  0.00    -0.066 N 
HETATM   18  H           1     -19.856  -9.129  -6.014  0.00  0.00     0.275 HD
HETATM   19  H           1     -19.809 -10.818  -5.774  0.00  0.00     0.275 HD
HETATM   20  H           1     -18.384  -9.894  -5.620  0.00  0.00     0.275 HD
ENDBRANCH  16  17
BRANCH  16  21
HETATM   21  C           1     -18.398  -9.715  -3.225  0.00  0.00     0.053 C 
BRANCH  21  22
HETATM   22  C           1     -18.442 -10.818  -2.175  0.00  0.00     0.076 C 
BRANCH  22  23
HETATM   23  S           1     -16.758 -11.407  -1.842  0.00  0.00    -0.173 SA
HETATM   24  C           1     -15.901 -10.019  -2.638  0.00  0.00     0.089 C 
ENDBRANCH  22  23
ENDBRANCH  21  22
ENDBRANCH  16  21
ENDBRANCH   3  16
TORSDOF 9
ENDMDL
