MODEL 1
REMARK VINA RESULT:      -6.4      0.000      0.000
REMARK  10 active torsions:
REMARK  status: ('A' for Active; 'I' for Inactive)
REMARK    1  A    between atoms: C_4  and  O_12 
REMARK    2  A    between atoms: C_4  and  C_18 
REMARK    3  A    between atoms: C_5  and  C_20 
REMARK    4  A    between atoms: C_5  and  C_23 
REMARK    5  A    between atoms: C_5  and  N_15 
REMARK    6  A    between atoms: N_7  and  C_8 
REMARK    7  A    between atoms: C_8  and  C_9 
REMARK    8  A    between atoms: C_9  and  C_23 
REMARK    9  A    between atoms: C_17  and  C_18 
REMARK   10  A    between atoms: C_18  and  N_21 
REMARK       I    between atoms: C_20  and  N_21 
ROOT
HETATM    1  C           1     -34.020  -2.250 -11.950  0.00  0.00     0.274 C 
ENDROOT
BRANCH   1   2
HETATM    2  C           1     -35.161  -1.680 -12.756  0.00  0.00     0.249 C 
HETATM    3  O           1     -36.284  -1.703 -12.313  0.00  0.00    -0.271 OA
HETATM    4  N           1     -34.923  -1.138 -13.991  0.00  0.00    -0.343 N 
HETATM    5  H           1     -33.983  -1.119 -14.363  0.00  0.00     0.163 HD
BRANCH   4   6
HETATM    6  C           1     -36.020  -0.590 -14.766  0.00  0.00     0.214 C 
BRANCH   6   7
HETATM    7  C           1     -36.009   0.928 -14.657  0.00  0.00     0.147 C 
HETATM    8  C           1     -34.696   1.383 -14.033  0.00  0.00     0.042 C 
BRANCH   7   9
HETATM    9  O           1     -36.139   1.489 -15.936  0.00  0.00    -0.393 OA
HETATM   10  H           1     -35.469   1.101 -16.473  0.00  0.00     0.210 HD
ENDBRANCH   7   9
ENDBRANCH   6   7
BRANCH   6  11
HETATM   11  C           1     -35.864  -0.993 -16.211  0.00  0.00     0.199 C 
HETATM   12  O           1     -36.834  -0.901 -16.994  0.00  0.00    -0.646 OA
HETATM   13  O           1     -34.764  -1.418 -16.627  0.00  0.00    -0.646 OA
ENDBRANCH   6  11
ENDBRANCH   4   6
ENDBRANCH   1   2
BRANCH   1  14
HETATM   14  C           1     -34.061  -3.771 -12.016  0.00  0.00     0.044 C 
BRANCH  14  15
HETATM   15  C           1     -33.932  -4.343 -10.610  0.00  0.00     0.030 C 
BRANCH  15  16
HETATM   16  C           1     -34.266  -5.829 -10.633  0.00  0.00     0.248 C 
BRANCH  16  17
HETATM   17  N           1     -34.672  -6.230 -12.020  0.00  0.00    -0.079 N 
HETATM   18  H           1     -33.830  -6.245 -12.639  0.00  0.00     0.274 HD
HETATM   19  H           1     -35.366  -5.543 -12.393  0.00  0.00     0.274 HD
HETATM   20  H           1     -35.105  -7.182 -11.996  0.00  0.00     0.274 HD
ENDBRANCH  16  17
ENDBRANCH  15  16
ENDBRANCH  14  15
ENDBRANCH   1  14
BRANCH   1  21
HETATM   21  N           1     -34.147  -1.807 -10.523  0.00  0.00    -0.067 N 
HETATM   22  H           1     -35.158  -1.701 -10.279  0.00  0.00     0.275 HD
HETATM   23  H           1     -33.710  -2.521  -9.898  0.00  0.00     0.275 HD
HETATM   24  H           1     -33.661  -0.890 -10.398  0.00  0.00     0.257 HD
ENDBRANCH   1  21
TORSDOF 10
ENDMDL
MODEL 2
REMARK VINA RESULT:      -6.3      2.075      3.410
REMARK  10 active torsions:
REMARK  status: ('A' for Active; 'I' for Inactive)
REMARK    1  A    between atoms: C_4  and  O_12 
REMARK    2  A    between atoms: C_4  and  C_18 
REMARK    3  A    between atoms: C_5  and  C_20 
REMARK    4  A    between atoms: C_5  and  C_23 
REMARK    5  A    between atoms: C_5  and  N_15 
REMARK    6  A    between atoms: N_7  and  C_8 
REMARK    7  A    between atoms: C_8  and  C_9 
REMARK    8  A    between atoms: C_9  and  C_23 
REMARK    9  A    between atoms: C_17  and  C_18 
REMARK   10  A    between atoms: C_18  and  N_21 
REMARK       I    between atoms: C_20  and  N_21 
ROOT
HETATM    1  C           1     -33.927  -3.888 -11.782  0.00  0.00     0.274 C 
ENDROOT
BRANCH   1   2
HETATM    2  C           1     -34.277  -2.438 -11.557  0.00  0.00     0.249 C 
HETATM    3  O           1     -33.612  -1.765 -10.806  0.00  0.00    -0.271 OA
HETATM    4  N           1     -35.351  -1.885 -12.203  0.00  0.00    -0.343 N 
HETATM    5  H           1     -35.909  -2.449 -12.830  0.00  0.00     0.163 HD
BRANCH   4   6
HETATM    6  C           1     -35.688  -0.492 -11.986  0.00  0.00     0.214 C 
BRANCH   6   7
HETATM    7  C           1     -36.234   0.104 -13.276  0.00  0.00     0.147 C 
HETATM    8  C           1     -35.077   0.469 -14.197  0.00  0.00     0.042 C 
BRANCH   7   9
HETATM    9  O           1     -37.059  -0.836 -13.912  0.00  0.00    -0.393 OA
HETATM   10  H           1     -37.533  -0.374 -14.583  0.00  0.00     0.210 HD
ENDBRANCH   7   9
ENDBRANCH   6   7
BRANCH   6  11
HETATM   11  C           1     -36.733  -0.390 -10.903  0.00  0.00     0.199 C 
HETATM   12  O           1     -37.809  -1.015 -11.011  0.00  0.00    -0.646 OA
HETATM   13  O           1     -36.522   0.320  -9.895  0.00  0.00    -0.646 OA
ENDBRANCH   6  11
ENDBRANCH   4   6
ENDBRANCH   1   2
BRANCH   1  14
HETATM   14  C           1     -34.388  -4.714 -10.588  0.00  0.00     0.044 C 
BRANCH  14  15
HETATM   15  C           1     -33.969  -6.165 -10.782  0.00  0.00     0.030 C 
BRANCH  15  16
HETATM   16  C           1     -34.843  -7.067  -9.920  0.00  0.00     0.248 C 
BRANCH  16  17
HETATM   17  N           1     -34.337  -8.477  -9.998  0.00  0.00    -0.079 N 
HETATM   18  H           1     -34.297  -8.887  -9.038  0.00  0.00     0.274 HD
HETATM   19  H           1     -33.381  -8.482 -10.420  0.00  0.00     0.274 HD
HETATM   20  H           1     -34.982  -9.046 -10.594  0.00  0.00     0.274 HD
ENDBRANCH  16  17
ENDBRANCH  15  16
ENDBRANCH  14  15
ENDBRANCH   1  14
BRANCH   1  21
HETATM   21  N           1     -32.442  -4.025 -11.940  0.00  0.00    -0.067 N 
HETATM   22  H           1     -32.103  -3.348 -12.661  0.00  0.00     0.275 HD
HETATM   23  H           1     -31.975  -3.823 -11.027  0.00  0.00     0.275 HD
HETATM   24  H           1     -32.211  -4.999 -12.242  0.00  0.00     0.257 HD
ENDBRANCH   1  21
TORSDOF 10
ENDMDL
MODEL 3
REMARK VINA RESULT:      -6.2     13.219     14.592
REMARK  10 active torsions:
REMARK  status: ('A' for Active; 'I' for Inactive)
REMARK    1  A    between atoms: C_4  and  O_12 
REMARK    2  A    between atoms: C_4  and  C_18 
REMARK    3  A    between atoms: C_5  and  C_20 
REMARK    4  A    between atoms: C_5  and  C_23 
REMARK    5  A    between atoms: C_5  and  N_15 
REMARK    6  A    between atoms: N_7  and  C_8 
REMARK    7  A    between atoms: C_8  and  C_9 
REMARK    8  A    between atoms: C_9  and  C_23 
REMARK    9  A    between atoms: C_17  and  C_18 
REMARK   10  A    between atoms: C_18  and  N_21 
REMARK       I    between atoms: C_20  and  N_21 
ROOT
HETATM    1  C           1     -21.302  -5.797  -6.975  0.00  0.00     0.274 C 
ENDROOT
BRANCH   1   2
HETATM    2  C           1     -21.739  -4.625  -7.820  0.00  0.00     0.249 C 
HETATM    3  O           1     -21.699  -3.506  -7.367  0.00  0.00    -0.271 OA
HETATM    4  N           1     -22.181  -4.831  -9.099  0.00  0.00    -0.343 N 
HETATM    5  H           1     -22.215  -5.769  -9.478  0.00  0.00     0.163 HD
BRANCH   4   6
HETATM    6  C           1     -22.601  -3.706  -9.911  0.00  0.00     0.214 C 
BRANCH   6   7
HETATM    7  C           1     -21.804  -3.691 -11.208  0.00  0.00     0.147 C 
HETATM    8  C           1     -20.402  -4.228 -10.948  0.00  0.00     0.042 C 
BRANCH   7   9
HETATM    9  O           1     -22.445  -4.497 -12.160  0.00  0.00    -0.393 OA
HETATM   10  H           1     -23.326  -4.176 -12.241  0.00  0.00     0.210 HD
ENDBRANCH   7   9
ENDBRANCH   6   7
BRANCH   6  11
HETATM   11  C           1     -24.071  -3.834 -10.226  0.00  0.00     0.199 C 
HETATM   12  O           1     -24.677  -2.890 -10.777  0.00  0.00    -0.646 OA
HETATM   13  O           1     -24.683  -4.885  -9.935  0.00  0.00    -0.646 OA
ENDBRANCH   6  11
ENDBRANCH   4   6
ENDBRANCH   1   2
BRANCH   1  14
HETATM   14  C           1     -21.241  -5.374  -5.513  0.00  0.00     0.044 C 
BRANCH  14  15
HETATM   15  C           1     -21.926  -6.426  -4.651  0.00  0.00     0.030 C 
BRANCH  15  16
HETATM   16  C           1     -21.356  -6.378  -3.239  0.00  0.00     0.248 C 
BRANCH  16  17
HETATM   17  N           1     -22.405  -5.873  -2.294  0.00  0.00    -0.079 N 
HETATM   18  H           1     -22.257  -6.296  -1.350  0.00  0.00     0.274 HD
HETATM   19  H           1     -23.352  -6.137  -2.649  0.00  0.00     0.274 HD
HETATM   20  H           1     -22.339  -4.831  -2.224  0.00  0.00     0.274 HD
ENDBRANCH  16  17
ENDBRANCH  15  16
ENDBRANCH  14  15
ENDBRANCH   1  14
BRANCH   1  21
HETATM   21  N           1     -19.945  -6.255  -7.420  0.00  0.00    -0.067 N 
HETATM   22  H           1     -19.213  -5.631  -7.007  0.00  0.00     0.275 HD
HETATM   23  H           1     -19.787  -7.236  -7.099  0.00  0.00     0.275 HD
HETATM   24  H           1     -19.888  -6.214  -8.463  0.00  0.00     0.257 HD
ENDBRANCH   1  21
TORSDOF 10
ENDMDL
MODEL 4
REMARK VINA RESULT:      -6.0      1.766      2.291
REMARK  10 active torsions:
REMARK  status: ('A' for Active; 'I' for Inactive)
REMARK    1  A    between atoms: C_4  and  O_12 
REMARK    2  A    between atoms: C_4  and  C_18 
REMARK    3  A    between atoms: C_5  and  C_20 
REMARK    4  A    between atoms: C_5  and  C_23 
REMARK    5  A    between atoms: C_5  and  N_15 
REMARK    6  A    between atoms: N_7  and  C_8 
REMARK    7  A    between atoms: C_8  and  C_9 
REMARK    8  A    between atoms: C_9  and  C_23 
REMARK    9  A    between atoms: C_17  and  C_18 
REMARK   10  A    between atoms: C_18  and  N_21 
REMARK       I    between atoms: C_20  and  N_21 
ROOT
HETATM    1  C           1     -33.549  -2.881 -11.415  0.00  0.00     0.274 C 
ENDROOT
BRANCH   1   2
HETATM    2  C           1     -34.425  -2.426 -12.557  0.00  0.00     0.249 C 
HETATM    3  O           1     -34.592  -3.145 -13.513  0.00  0.00    -0.271 OA
HETATM    4  N           1     -35.028  -1.197 -12.509  0.00  0.00    -0.343 N 
HETATM    5  H           1     -34.887  -0.595 -11.709  0.00  0.00     0.163 HD
BRANCH   4   6
HETATM    6  C           1     -35.869  -0.760 -13.606  0.00  0.00     0.214 C 
BRANCH   6   7
HETATM    7  C           1     -37.258  -0.427 -13.079  0.00  0.00     0.147 C 
HETATM    8  C           1     -37.166  -0.067 -11.602  0.00  0.00     0.042 C 
BRANCH   7   9
HETATM    9  O           1     -37.780   0.661 -13.794  0.00  0.00    -0.393 OA
HETATM   10  H           1     -37.684   1.420 -13.245  0.00  0.00     0.210 HD
ENDBRANCH   7   9
ENDBRANCH   6   7
BRANCH   6  11
HETATM   11  C           1     -35.265   0.466 -14.245  0.00  0.00     0.199 C 
HETATM   12  O           1     -34.597   1.266 -13.554  0.00  0.00    -0.646 OA
HETATM   13  O           1     -35.433   0.683 -15.465  0.00  0.00    -0.646 OA
ENDBRANCH   6  11
ENDBRANCH   4   6
ENDBRANCH   1   2
BRANCH   1  14
HETATM   14  C           1     -34.231  -4.025 -10.676  0.00  0.00     0.044 C 
BRANCH  14  15
HETATM   15  C           1     -33.602  -5.346 -11.093  0.00  0.00     0.030 C 
BRANCH  15  16
HETATM   16  C           1     -34.496  -6.498 -10.653  0.00  0.00     0.248 C 
BRANCH  16  17
HETATM   17  N           1     -33.682  -7.754 -10.551  0.00  0.00    -0.079 N 
HETATM   18  H           1     -33.100  -7.723  -9.684  0.00  0.00     0.274 HD
HETATM   19  H           1     -33.059  -7.834 -11.387  0.00  0.00     0.274 HD
HETATM   20  H           1     -34.320  -8.582 -10.514  0.00  0.00     0.274 HD
ENDBRANCH  16  17
ENDBRANCH  15  16
ENDBRANCH  14  15
ENDBRANCH   1  14
BRANCH   1  21
HETATM   21  N           1     -33.326  -1.738 -10.470  0.00  0.00    -0.067 N 
HETATM   22  H           1     -34.240  -1.275 -10.260  0.00  0.00     0.275 HD
HETATM   23  H           1     -32.904  -2.096  -9.584  0.00  0.00     0.275 HD
HETATM   24  H           1     -32.679  -1.044 -10.910  0.00  0.00     0.257 HD
ENDBRANCH   1  21
TORSDOF 10
ENDMDL
MODEL 5
REMARK VINA RESULT:      -5.7      2.980      5.277
REMARK  10 active torsions:
REMARK  status: ('A' for Active; 'I' for Inactive)
REMARK    1  A    between atoms: C_4  and  O_12 
REMARK    2  A    between atoms: C_4  and  C_18 
REMARK    3  A    between atoms: C_5  and  C_20 
REMARK    4  A    between atoms: C_5  and  C_23 
REMARK    5  A    between atoms: C_5  and  N_15 
REMARK    6  A    between atoms: N_7  and  C_8 
REMARK    7  A    between atoms: C_8  and  C_9 
REMARK    8  A    between atoms: C_9  and  C_23 
REMARK    9  A    between atoms: C_17  and  C_18 
REMARK   10  A    between atoms: C_18  and  N_21 
REMARK       I    between atoms: C_20  and  N_21 
ROOT
HETATM    1  C           1     -36.533  -0.331 -11.933  0.00  0.00     0.274 C 
ENDROOT
BRANCH   1   2
HETATM    2  C           1     -35.364  -1.062 -12.548  0.00  0.00     0.249 C 
HETATM    3  O           1     -34.740  -0.553 -13.448  0.00  0.00    -0.271 OA
HETATM    4  N           1     -35.013  -2.302 -12.085  0.00  0.00    -0.343 N 
HETATM    5  H           1     -35.536  -2.728 -11.332  0.00  0.00     0.163 HD
BRANCH   4   6
HETATM    6  C           1     -33.890  -3.004 -12.676  0.00  0.00     0.214 C 
BRANCH   6   7
HETATM    7  C           1     -33.073  -3.668 -11.576  0.00  0.00     0.147 C 
HETATM    8  C           1     -33.966  -3.938 -10.373  0.00  0.00     0.042 C 
BRANCH   7   9
HETATM    9  O           1     -32.549  -4.880 -12.051  0.00  0.00    -0.393 OA
HETATM   10  H           1     -33.178  -5.550 -11.843  0.00  0.00     0.210 HD
ENDBRANCH   7   9
ENDBRANCH   6   7
BRANCH   6  11
HETATM   11  C           1     -34.400  -4.056 -13.629  0.00  0.00     0.199 C 
HETATM   12  O           1     -34.163  -3.958 -14.853  0.00  0.00    -0.646 OA
HETATM   13  O           1     -35.060  -5.025 -13.196  0.00  0.00    -0.646 OA
ENDBRANCH   6  11
ENDBRANCH   4   6
ENDBRANCH   1   2
BRANCH   1  14
HETATM   14  C           1     -37.086  -1.144 -10.769  0.00  0.00     0.044 C 
BRANCH  14  15
HETATM   15  C           1     -36.638  -0.518  -9.455  0.00  0.00     0.030 C 
BRANCH  15  16
HETATM   16  C           1     -37.155   0.913  -9.371  0.00  0.00     0.248 C 
BRANCH  16  17
HETATM   17  N           1     -36.472   1.625  -8.241  0.00  0.00    -0.079 N 
HETATM   18  H           1     -36.645   1.109  -7.348  0.00  0.00     0.274 HD
HETATM   19  H           1     -36.850   2.596  -8.161  0.00  0.00     0.274 HD
HETATM   20  H           1     -35.444   1.667  -8.426  0.00  0.00     0.274 HD
ENDBRANCH  16  17
ENDBRANCH  15  16
ENDBRANCH  14  15
ENDBRANCH   1  14
BRANCH   1  21
HETATM   21  N           1     -37.605  -0.146 -12.966  0.00  0.00    -0.067 N 
HETATM   22  H           1     -37.529  -0.899 -13.688  0.00  0.00     0.275 HD
HETATM   23  H           1     -38.542  -0.196 -12.507  0.00  0.00     0.275 HD
HETATM   24  H           1     -37.490   0.787 -13.424  0.00  0.00     0.257 HD
ENDBRANCH   1  21
TORSDOF 10
ENDMDL
MODEL 6
REMARK VINA RESULT:      -5.7      4.239      5.212
REMARK  10 active torsions:
REMARK  status: ('A' for Active; 'I' for Inactive)
REMARK    1  A    between atoms: C_4  and  O_12 
REMARK    2  A    between atoms: C_4  and  C_18 
REMARK    3  A    between atoms: C_5  and  C_20 
REMARK    4  A    between atoms: C_5  and  C_23 
REMARK    5  A    between atoms: C_5  and  N_15 
REMARK    6  A    between atoms: N_7  and  C_8 
REMARK    7  A    between atoms: C_8  and  C_9 
REMARK    8  A    between atoms: C_9  and  C_23 
REMARK    9  A    between atoms: C_17  and  C_18 
REMARK   10  A    between atoms: C_18  and  N_21 
REMARK       I    between atoms: C_20  and  N_21 
ROOT
HETATM    1  C           1     -36.571   0.067  -8.563  0.00  0.00     0.274 C 
ENDROOT
BRANCH   1   2
HETATM    2  C           1     -36.799  -0.537  -9.927  0.00  0.00     0.249 C 
HETATM    3  O           1     -37.913  -0.856 -10.268  0.00  0.00    -0.271 OA
HETATM    4  N           1     -35.743  -0.724 -10.778  0.00  0.00    -0.343 N 
HETATM    5  H           1     -34.810  -0.457 -10.492  0.00  0.00     0.163 HD
BRANCH   4   6
HETATM    6  C           1     -35.962  -1.303 -12.089  0.00  0.00     0.214 C 
BRANCH   6   7
HETATM    7  C           1     -36.160  -0.190 -13.109  0.00  0.00     0.147 C 
HETATM    8  C           1     -34.866   0.598 -13.256  0.00  0.00     0.042 C 
BRANCH   7   9
HETATM    9  O           1     -36.512  -0.749 -14.346  0.00  0.00    -0.393 OA
HETATM   10  H           1     -36.639  -1.671 -14.204  0.00  0.00     0.210 HD
ENDBRANCH   7   9
ENDBRANCH   6   7
BRANCH   6  11
HETATM   11  C           1     -34.764  -2.135 -12.477  0.00  0.00     0.199 C 
HETATM   12  O           1     -34.727  -2.693 -13.594  0.00  0.00    -0.646 OA
HETATM   13  O           1     -33.809  -2.265 -11.681  0.00  0.00    -0.646 OA
ENDBRANCH   6  11
ENDBRANCH   4   6
ENDBRANCH   1   2
BRANCH   1  14
HETATM   14  C           1     -37.735  -0.291  -7.647  0.00  0.00     0.044 C 
BRANCH  14  15
HETATM   15  C           1     -37.971   0.844  -6.660  0.00  0.00     0.030 C 
BRANCH  15  16
HETATM   16  C           1     -37.247   0.541  -5.354  0.00  0.00     0.248 C 
BRANCH  16  17
HETATM   17  N           1     -37.962  -0.560  -4.629  0.00  0.00    -0.079 N 
HETATM   18  H           1     -38.958  -0.285  -4.471  0.00  0.00     0.274 HD
HETATM   19  H           1     -37.497  -0.732  -3.709  0.00  0.00     0.274 HD
HETATM   20  H           1     -37.929  -1.434  -5.203  0.00  0.00     0.274 HD
ENDBRANCH  16  17
ENDBRANCH  15  16
ENDBRANCH  14  15
ENDBRANCH   1  14
BRANCH   1  21
HETATM   21  N           1     -36.473   1.558  -8.686  0.00  0.00    -0.067 N 
HETATM   22  H           1     -36.504   1.828  -9.696  0.00  0.00     0.275 HD
HETATM   23  H           1     -37.273   2.002  -8.181  0.00  0.00     0.275 HD
HETATM   24  H           1     -35.572   1.884  -8.268  0.00  0.00     0.257 HD
ENDBRANCH   1  21
TORSDOF 10
ENDMDL
MODEL 7
REMARK VINA RESULT:      -5.4     15.079     17.563
REMARK  10 active torsions:
REMARK  status: ('A' for Active; 'I' for Inactive)
REMARK    1  A    between atoms: C_4  and  O_12 
REMARK    2  A    between atoms: C_4  and  C_18 
REMARK    3  A    between atoms: C_5  and  C_20 
REMARK    4  A    between atoms: C_5  and  C_23 
REMARK    5  A    between atoms: C_5  and  N_15 
REMARK    6  A    between atoms: N_7  and  C_8 
REMARK    7  A    between atoms: C_8  and  C_9 
REMARK    8  A    between atoms: C_9  and  C_23 
REMARK    9  A    between atoms: C_17  and  C_18 
REMARK   10  A    between atoms: C_18  and  N_21 
REMARK       I    between atoms: C_20  and  N_21 
ROOT
HETATM    1  C           1     -20.518  -4.669  -6.435  0.00  0.00     0.274 C 
ENDROOT
BRANCH   1   2
HETATM    2  C           1     -21.347  -5.624  -5.611  0.00  0.00     0.249 C 
HETATM    3  O           1     -22.551  -5.620  -5.711  0.00  0.00    -0.271 OA
HETATM    4  N           1     -20.734  -6.495  -4.751  0.00  0.00    -0.343 N 
HETATM    5  H           1     -19.726  -6.498  -4.667  0.00  0.00     0.163 HD
BRANCH   4   6
HETATM    6  C           1     -21.531  -7.412  -3.959  0.00  0.00     0.214 C 
BRANCH   6   7
HETATM    7  C           1     -20.859  -8.779  -3.939  0.00  0.00     0.147 C 
HETATM    8  C           1     -21.173  -9.518  -5.233  0.00  0.00     0.042 C 
BRANCH   7   9
HETATM    9  O           1     -19.471  -8.615  -3.819  0.00  0.00    -0.393 OA
HETATM   10  H           1     -19.074  -9.154  -4.482  0.00  0.00     0.210 HD
ENDBRANCH   7   9
ENDBRANCH   6   7
BRANCH   6  11
HETATM   11  C           1     -21.648  -6.889  -2.549  0.00  0.00     0.199 C 
HETATM   12  O           1     -20.969  -7.401  -1.634  0.00  0.00    -0.646 OA
HETATM   13  O           1     -22.425  -5.942  -2.297  0.00  0.00    -0.646 OA
ENDBRANCH   6  11
ENDBRANCH   4   6
ENDBRANCH   1   2
BRANCH   1  14
HETATM   14  C           1     -21.438  -3.721  -7.194  0.00  0.00     0.044 C 
BRANCH  14  15
HETATM   15  C           1     -21.452  -4.100  -8.668  0.00  0.00     0.030 C 
BRANCH  15  16
HETATM   16  C           1     -22.891  -4.162  -9.165  0.00  0.00     0.248 C 
BRANCH  16  17
HETATM   17  N           1     -23.827  -4.062  -7.997  0.00  0.00    -0.079 N 
HETATM   18  H           1     -24.743  -3.673  -8.317  0.00  0.00     0.274 HD
HETATM   19  H           1     -23.415  -3.432  -7.272  0.00  0.00     0.274 HD
HETATM   20  H           1     -23.976  -5.013  -7.587  0.00  0.00     0.274 HD
ENDBRANCH  16  17
ENDBRANCH  15  16
ENDBRANCH  14  15
ENDBRANCH   1  14
BRANCH   1  21
HETATM   21  N           1     -19.685  -5.444  -7.411  0.00  0.00    -0.067 N 
HETATM   22  H           1     -18.944  -5.973  -6.896  0.00  0.00     0.275 HD
HETATM   23  H           1     -20.293  -6.115  -7.932  0.00  0.00     0.275 HD
HETATM   24  H           1     -19.234  -4.785  -8.086  0.00  0.00     0.257 HD
ENDBRANCH   1  21
TORSDOF 10
ENDMDL
MODEL 8
REMARK VINA RESULT:      -5.2     13.464     14.816
REMARK  10 active torsions:
REMARK  status: ('A' for Active; 'I' for Inactive)
REMARK    1  A    between atoms: C_4  and  O_12 
REMARK    2  A    between atoms: C_4  and  C_18 
REMARK    3  A    between atoms: C_5  and  C_20 
REMARK    4  A    between atoms: C_5  and  C_23 
REMARK    5  A    between atoms: C_5  and  N_15 
REMARK    6  A    between atoms: N_7  and  C_8 
REMARK    7  A    between atoms: C_8  and  C_9 
REMARK    8  A    between atoms: C_9  and  C_23 
REMARK    9  A    between atoms: C_17  and  C_18 
REMARK   10  A    between atoms: C_18  and  N_21 
REMARK       I    between atoms: C_20  and  N_21 
ROOT
HETATM    1  C           1     -21.517  -5.140  -6.232  0.00  0.00     0.274 C 
ENDROOT
BRANCH   1   2
HETATM    2  C           1     -21.747  -4.173  -7.367  0.00  0.00     0.249 C 
HETATM    3  O           1     -21.576  -2.989  -7.196  0.00  0.00    -0.271 OA
HETATM    4  N           1     -22.151  -4.637  -8.590  0.00  0.00    -0.343 N 
HETATM    5  H           1     -22.295  -5.628  -8.733  0.00  0.00     0.163 HD
BRANCH   4   6
HETATM    6  C           1     -22.372  -3.707  -9.681  0.00  0.00     0.214 C 
BRANCH   6   7
HETATM    7  C           1     -21.347  -3.960 -10.778  0.00  0.00     0.147 C 
HETATM    8  C           1     -20.183  -4.761 -10.210  0.00  0.00     0.042 C 
BRANCH   7   9
HETATM    9  O           1     -21.948  -4.682 -11.820  0.00  0.00    -0.393 OA
HETATM   10  H           1     -22.462  -5.362 -11.421  0.00  0.00     0.210 HD
ENDBRANCH   7   9
ENDBRANCH   6   7
BRANCH   6  11
HETATM   11  C           1     -23.762  -3.904 -10.235  0.00  0.00     0.199 C 
HETATM   12  O           1     -24.354  -4.992 -10.065  0.00  0.00    -0.646 OA
HETATM   13  O           1     -24.321  -2.980 -10.864  0.00  0.00    -0.646 OA
ENDBRANCH   6  11
ENDBRANCH   4   6
ENDBRANCH   1   2
BRANCH   1  14
HETATM   14  C           1     -20.770  -6.364  -6.750  0.00  0.00     0.044 C 
BRANCH  14  15
HETATM   15  C           1     -21.176  -7.587  -5.939  0.00  0.00     0.030 C 
BRANCH  15  16
HETATM   16  C           1     -20.007  -8.032  -5.069  0.00  0.00     0.248 C 
BRANCH  16  17
HETATM   17  N           1     -19.012  -8.773  -5.911  0.00  0.00    -0.079 N 
HETATM   18  H           1     -19.374  -8.855  -6.888  0.00  0.00     0.274 HD
HETATM   19  H           1     -18.861  -9.728  -5.514  0.00  0.00     0.274 HD
HETATM   20  H           1     -18.104  -8.253  -5.918  0.00  0.00     0.274 HD
ENDBRANCH  16  17
ENDBRANCH  15  16
ENDBRANCH  14  15
ENDBRANCH   1  14
BRANCH   1  21
HETATM   21  N           1     -22.837  -5.565  -5.662  0.00  0.00    -0.067 N 
HETATM   22  H           1     -22.678  -6.206  -4.852  0.00  0.00     0.275 HD
HETATM   23  H           1     -23.365  -4.722  -5.342  0.00  0.00     0.275 HD
HETATM   24  H           1     -23.389  -6.065  -6.397  0.00  0.00     0.257 HD
ENDBRANCH   1  21
TORSDOF 10
ENDMDL
MODEL 9
REMARK VINA RESULT:      -5.2     15.123     16.882
REMARK  10 active torsions:
REMARK  status: ('A' for Active; 'I' for Inactive)
REMARK    1  A    between atoms: C_4  and  O_12 
REMARK    2  A    between atoms: C_4  and  C_18 
REMARK    3  A    between atoms: C_5  and  C_20 
REMARK    4  A    between atoms: C_5  and  C_23 
REMARK    5  A    between atoms: C_5  and  N_15 
REMARK    6  A    between atoms: N_7  and  C_8 
REMARK    7  A    between atoms: C_8  and  C_9 
REMARK    8  A    between atoms: C_9  and  C_23 
REMARK    9  A    between atoms: C_17  and  C_18 
REMARK   10  A    between atoms: C_18  and  N_21 
REMARK       I    between atoms: C_20  and  N_21 
ROOT
HETATM    1  C           1     -21.328  -6.477  -2.911  0.00  0.00     0.274 C 
ENDROOT
BRANCH   1   2
HETATM    2  C           1     -21.448  -6.572  -4.412  0.00  0.00     0.249 C 
HETATM    3  O           1     -21.529  -7.654  -4.944  0.00  0.00    -0.271 OA
HETATM    4  N           1     -21.462  -5.433  -5.171  0.00  0.00    -0.343 N 
HETATM    5  H           1     -21.393  -4.527  -4.726  0.00  0.00     0.163 HD
BRANCH   4   6
HETATM    6  C           1     -21.577  -5.525  -6.614  0.00  0.00     0.214 C 
BRANCH   6   7
HETATM    7  C           1     -22.445  -4.384  -7.127  0.00  0.00     0.147 C 
HETATM    8  C           1     -22.541  -4.462  -8.645  0.00  0.00     0.042 C 
BRANCH   7   9
HETATM    9  O           1     -23.729  -4.488  -6.571  0.00  0.00    -0.393 OA
HETATM   10  H           1     -24.062  -5.336  -6.809  0.00  0.00     0.210 HD
ENDBRANCH   7   9
ENDBRANCH   6   7
BRANCH   6  11
HETATM   11  C           1     -20.205  -5.432  -7.234  0.00  0.00     0.199 C 
HETATM   12  O           1     -19.694  -6.436  -7.774  0.00  0.00    -0.646 OA
HETATM   13  O           1     -19.580  -4.349  -7.208  0.00  0.00    -0.646 OA
ENDBRANCH   6  11
ENDBRANCH   4   6
ENDBRANCH   1   2
BRANCH   1  14
HETATM   14  C           1     -21.200  -7.875  -2.321  0.00  0.00     0.044 C 
BRANCH  14  15
HETATM   15  C           1     -21.441  -7.816  -0.818  0.00  0.00     0.030 C 
BRANCH  15  16
HETATM   16  C           1     -22.565  -8.774  -0.445  0.00  0.00     0.248 C 
BRANCH  16  17
HETATM   17  N           1     -23.476  -8.113   0.546  0.00  0.00    -0.079 N 
HETATM   18  H           1     -23.859  -7.232   0.134  0.00  0.00     0.274 HD
HETATM   19  H           1     -22.942  -7.889   1.416  0.00  0.00     0.274 HD
HETATM   20  H           1     -24.265  -8.760   0.780  0.00  0.00     0.274 HD
ENDBRANCH  16  17
ENDBRANCH  15  16
ENDBRANCH  14  15
ENDBRANCH   1  14
BRANCH   1  21
HETATM   21  N           1     -22.550  -5.809  -2.354  0.00  0.00    -0.067 N 
HETATM   22  H           1     -22.313  -5.348  -1.446  0.00  0.00     0.275 HD
HETATM   23  H           1     -22.893  -5.091  -3.031  0.00  0.00     0.275 HD
HETATM   24  H           1     -23.296  -6.525  -2.195  0.00  0.00     0.257 HD
ENDBRANCH   1  21
TORSDOF 10
ENDMDL
