MODEL 1
REMARK VINA RESULT:      -6.2      0.000      0.000
REMARK  8 active torsions:
REMARK  status: ('A' for Active; 'I' for Inactive)
REMARK       I    between atoms: C_5  and  N_7 
REMARK    1  A    between atoms: C_5  and  C_23 
REMARK    2  A    between atoms: N_8  and  C_22 
REMARK       I    between atoms: N_8  and  C_9 
REMARK    3  A    between atoms: C_9  and  C_10 
REMARK    4  A    between atoms: C_10  and  C_11 
REMARK    5  A    between atoms: C_10  and  N_16 
REMARK    6  A    between atoms: C_11  and  O_15 
REMARK    7  A    between atoms: C_21  and  C_22 
REMARK    8  A    between atoms: C_22  and  C_23 
ROOT
HETATM    1  N           1     -34.825  -1.725 -12.881  0.00  0.00    -0.344 N 
HETATM    2  C           1     -34.076  -2.584 -12.124  0.00  0.00     0.251 C 
HETATM    3  H           1     -35.294  -2.060 -13.714  0.00  0.00     0.163 HD
HETATM    4  O           1     -33.516  -2.184 -11.131  0.00  0.00    -0.271 OA
ENDROOT
BRANCH   1   5
HETATM    5  C           1     -34.946  -0.333 -12.491  0.00  0.00     0.194 C 
BRANCH   5   6
HETATM    6  C           1     -36.218  -0.141 -11.702  0.00  0.00     0.197 C 
HETATM    7  O           1     -36.219   0.585 -10.685  0.00  0.00    -0.646 OA
HETATM    8  O           1     -37.271  -0.708 -12.066  0.00  0.00    -0.646 OA
ENDBRANCH   5   6
BRANCH   5   9
HETATM    9  C           1     -34.985   0.540 -13.738  0.00  0.00     0.138 C 
BRANCH   9  10
HETATM   10  C           1     -35.614  -0.229 -14.874  0.00  0.00     0.217 C 
HETATM   11  O           1     -34.932  -0.941 -15.571  0.00  0.00    -0.274 OA
HETATM   12  N           1     -36.958  -0.120 -15.113  0.00  0.00    -0.370 N 
HETATM   13  H           1     -37.529   0.477 -14.529  0.00  0.00     0.159 HD
HETATM   14  H           1     -37.379  -0.635 -15.875  0.00  0.00     0.159 HD
ENDBRANCH   9  10
ENDBRANCH   5   9
ENDBRANCH   1   5
BRANCH   2  15
HETATM   15  C           1     -33.950  -4.032 -12.529  0.00  0.00     0.302 C 
BRANCH  15  16
HETATM   16  C           1     -34.922  -4.875 -11.714  0.00  0.00     0.153 C 
HETATM   17  C           1     -34.148  -5.695 -10.690  0.00  0.00     0.042 C 
BRANCH  16  18
HETATM   18  O           1     -35.827  -4.034 -11.051  0.00  0.00    -0.393 OA
HETATM   19  H           1     -35.319  -3.360 -10.633  0.00  0.00     0.210 HD
ENDBRANCH  16  18
ENDBRANCH  15  16
BRANCH  15  20
HETATM   20  N           1     -32.548  -4.502 -12.275  0.00  0.00    -0.064 N 
HETATM   21  H           1     -32.546  -5.537 -12.133  0.00  0.00     0.275 HD
HETATM   22  H           1     -31.947  -4.262 -13.095  0.00  0.00     0.275 HD
HETATM   23  H           1     -32.174  -4.033 -11.419  0.00  0.00     0.275 HD
ENDBRANCH  15  20
ENDBRANCH   2  15
TORSDOF 8
ENDMDL
MODEL 2
REMARK VINA RESULT:      -6.1      2.043      3.506
REMARK  8 active torsions:
REMARK  status: ('A' for Active; 'I' for Inactive)
REMARK       I    between atoms: C_5  and  N_7 
REMARK    1  A    between atoms: C_5  and  C_23 
REMARK    2  A    between atoms: N_8  and  C_22 
REMARK       I    between atoms: N_8  and  C_9 
REMARK    3  A    between atoms: C_9  and  C_10 
REMARK    4  A    between atoms: C_10  and  C_11 
REMARK    5  A    between atoms: C_10  and  N_16 
REMARK    6  A    between atoms: C_11  and  O_15 
REMARK    7  A    between atoms: C_21  and  C_22 
REMARK    8  A    between atoms: C_22  and  C_23 
ROOT
HETATM    1  N           1     -34.981  -0.513 -14.040  0.00  0.00    -0.344 N 
HETATM    2  C           1     -35.517  -1.066 -12.908  0.00  0.00     0.251 C 
HETATM    3  H           1     -33.977  -0.434 -14.139  0.00  0.00     0.163 HD
HETATM    4  O           1     -36.716  -1.158 -12.790  0.00  0.00    -0.271 OA
ENDROOT
BRANCH   1   5
HETATM    5  C           1     -35.854  -0.037 -15.096  0.00  0.00     0.194 C 
BRANCH   5   6
HETATM    6  C           1     -35.822  -1.010 -16.250  0.00  0.00     0.197 C 
HETATM    7  O           1     -35.008  -1.958 -16.246  0.00  0.00    -0.646 OA
HETATM    8  O           1     -36.610  -0.867 -17.210  0.00  0.00    -0.646 OA
ENDBRANCH   5   6
BRANCH   5   9
HETATM    9  C           1     -35.378   1.329 -15.571  0.00  0.00     0.138 C 
BRANCH   9  10
HETATM   10  C           1     -36.531   2.078 -16.191  0.00  0.00     0.217 C 
HETATM   11  O           1     -36.324   3.077 -16.838  0.00  0.00    -0.274 OA
HETATM   12  N           1     -37.812   1.626 -16.022  0.00  0.00    -0.370 N 
HETATM   13  H           1     -37.986   0.789 -15.480  0.00  0.00     0.159 HD
HETATM   14  H           1     -38.585   2.128 -16.439  0.00  0.00     0.159 HD
ENDBRANCH   9  10
ENDBRANCH   5   9
ENDBRANCH   1   5
BRANCH   2  15
HETATM   15  C           1     -34.610  -1.561 -11.809  0.00  0.00     0.302 C 
BRANCH  15  16
HETATM   16  C           1     -34.185  -2.992 -12.106  0.00  0.00     0.153 C 
HETATM   17  C           1     -34.971  -3.950 -11.220  0.00  0.00     0.042 C 
BRANCH  16  18
HETATM   18  O           1     -34.440  -3.286 -13.453  0.00  0.00    -0.393 OA
HETATM   19  H           1     -35.124  -3.934 -13.467  0.00  0.00     0.210 HD
ENDBRANCH  16  18
ENDBRANCH  15  16
BRANCH  15  20
HETATM   20  N           1     -35.342  -1.519 -10.500  0.00  0.00    -0.064 N 
HETATM   21  H           1     -36.359  -1.695 -10.663  0.00  0.00     0.275 HD
HETATM   22  H           1     -34.959  -2.254  -9.864  0.00  0.00     0.275 HD
HETATM   23  H           1     -35.218  -0.579 -10.061  0.00  0.00     0.275 HD
ENDBRANCH  15  20
ENDBRANCH   2  15
TORSDOF 8
ENDMDL
MODEL 3
REMARK VINA RESULT:      -5.9      1.841      2.358
REMARK  8 active torsions:
REMARK  status: ('A' for Active; 'I' for Inactive)
REMARK       I    between atoms: C_5  and  N_7 
REMARK    1  A    between atoms: C_5  and  C_23 
REMARK    2  A    between atoms: N_8  and  C_22 
REMARK       I    between atoms: N_8  and  C_9 
REMARK    3  A    between atoms: C_9  and  C_10 
REMARK    4  A    between atoms: C_10  and  C_11 
REMARK    5  A    between atoms: C_10  and  N_16 
REMARK    6  A    between atoms: C_11  and  O_15 
REMARK    7  A    between atoms: C_21  and  C_22 
REMARK    8  A    between atoms: C_22  and  C_23 
ROOT
HETATM    1  N           1     -35.412  -1.206 -13.359  0.00  0.00    -0.344 N 
HETATM    2  C           1     -35.055  -1.226 -12.037  0.00  0.00     0.251 C 
HETATM    3  H           1     -35.334  -2.047 -13.917  0.00  0.00     0.163 HD
HETATM    4  O           1     -35.146  -0.223 -11.371  0.00  0.00    -0.271 OA
ENDROOT
BRANCH   1   5
HETATM    5  C           1     -35.900   0.021 -13.958  0.00  0.00     0.194 C 
BRANCH   5   6
HETATM    6  C           1     -37.395  -0.069 -14.141  0.00  0.00     0.197 C 
HETATM    7  O           1     -38.075  -0.792 -13.382  0.00  0.00    -0.646 OA
HETATM    8  O           1     -37.953   0.580 -15.052  0.00  0.00    -0.646 OA
ENDBRANCH   5   6
BRANCH   5   9
HETATM    9  C           1     -35.233   0.223 -15.313  0.00  0.00     0.138 C 
BRANCH   9  10
HETATM   10  C           1     -35.495  -0.978 -16.188  0.00  0.00     0.217 C 
HETATM   11  O           1     -34.969  -2.036 -15.934  0.00  0.00    -0.274 OA
HETATM   12  N           1     -36.329  -0.870 -17.268  0.00  0.00    -0.370 N 
HETATM   13  H           1     -36.770   0.015 -17.480  0.00  0.00     0.159 HD
HETATM   14  H           1     -36.505  -1.676 -17.854  0.00  0.00     0.159 HD
ENDBRANCH   9  10
ENDBRANCH   5   9
ENDBRANCH   1   5
BRANCH   2  15
HETATM   15  C           1     -34.547  -2.503 -11.413  0.00  0.00     0.302 C 
BRANCH  15  16
HETATM   16  C           1     -33.742  -3.286 -12.442  0.00  0.00     0.153 C 
HETATM   17  C           1     -32.920  -4.356 -11.735  0.00  0.00     0.042 C 
BRANCH  16  18
HETATM   18  O           1     -34.615  -3.895 -13.354  0.00  0.00    -0.393 OA
HETATM   19  H           1     -34.371  -4.804 -13.402  0.00  0.00     0.210 HD
ENDBRANCH  16  18
ENDBRANCH  15  16
BRANCH  15  20
HETATM   20  N           1     -35.710  -3.332 -10.954  0.00  0.00    -0.064 N 
HETATM   21  H           1     -36.601  -2.895 -11.281  0.00  0.00     0.275 HD
HETATM   22  H           1     -35.629  -4.295 -11.351  0.00  0.00     0.275 HD
HETATM   23  H           1     -35.711  -3.383  -9.911  0.00  0.00     0.275 HD
ENDBRANCH  15  20
ENDBRANCH   2  15
TORSDOF 8
ENDMDL
MODEL 4
REMARK VINA RESULT:      -5.9     11.618     13.397
REMARK  8 active torsions:
REMARK  status: ('A' for Active; 'I' for Inactive)
REMARK       I    between atoms: C_5  and  N_7 
REMARK    1  A    between atoms: C_5  and  C_23 
REMARK    2  A    between atoms: N_8  and  C_22 
REMARK       I    between atoms: N_8  and  C_9 
REMARK    3  A    between atoms: C_9  and  C_10 
REMARK    4  A    between atoms: C_10  and  C_11 
REMARK    5  A    between atoms: C_10  and  N_16 
REMARK    6  A    between atoms: C_11  and  O_15 
REMARK    7  A    between atoms: C_21  and  C_22 
REMARK    8  A    between atoms: C_22  and  C_23 
ROOT
HETATM    1  N           1     -23.350  -4.174  -8.704  0.00  0.00    -0.344 N 
HETATM    2  C           1     -22.283  -4.069  -7.852  0.00  0.00     0.251 C 
HETATM    3  H           1     -24.201  -4.627  -8.397  0.00  0.00     0.163 HD
HETATM    4  O           1     -21.267  -3.529  -8.220  0.00  0.00    -0.271 OA
ENDROOT
BRANCH   1   5
HETATM    5  C           1     -23.259  -3.636 -10.048  0.00  0.00     0.194 C 
BRANCH   5   6
HETATM    6  C           1     -24.639  -3.279 -10.541  0.00  0.00     0.197 C 
HETATM    7  O           1     -24.842  -3.107 -11.763  0.00  0.00    -0.646 OA
HETATM    8  O           1     -25.580  -3.154  -9.728  0.00  0.00    -0.646 OA
ENDBRANCH   5   6
BRANCH   5   9
HETATM    9  C           1     -22.644  -4.681 -10.970  0.00  0.00     0.138 C 
BRANCH   9  10
HETATM   10  C           1     -21.567  -4.041 -11.810  0.00  0.00     0.217 C 
HETATM   11  O           1     -20.429  -4.003 -11.406  0.00  0.00    -0.274 OA
HETATM   12  N           1     -21.877  -3.503 -13.030  0.00  0.00    -0.370 N 
HETATM   13  H           1     -22.831  -3.534 -13.369  0.00  0.00     0.159 HD
HETATM   14  H           1     -21.155  -3.074 -13.593  0.00  0.00     0.159 HD
ENDBRANCH   9  10
ENDBRANCH   5   9
ENDBRANCH   1   5
BRANCH   2  15
HETATM   15  C           1     -22.378  -4.628  -6.454  0.00  0.00     0.302 C 
BRANCH  15  16
HETATM   16  C           1     -21.336  -5.724  -6.273  0.00  0.00     0.153 C 
HETATM   17  C           1     -21.874  -6.784  -5.321  0.00  0.00     0.042 C 
BRANCH  16  18
HETATM   18  O           1     -21.055  -6.311  -7.515  0.00  0.00    -0.393 OA
HETATM   19  H           1     -21.876  -6.602  -7.872  0.00  0.00     0.210 HD
ENDBRANCH  16  18
ENDBRANCH  15  16
BRANCH  15  20
HETATM   20  N           1     -23.747  -5.200  -6.236  0.00  0.00    -0.064 N 
HETATM   21  H           1     -24.139  -4.838  -5.338  0.00  0.00     0.275 HD
HETATM   22  H           1     -24.371  -4.919  -7.026  0.00  0.00     0.275 HD
HETATM   23  H           1     -23.686  -6.242  -6.193  0.00  0.00     0.275 HD
ENDBRANCH  15  20
ENDBRANCH   2  15
TORSDOF 8
ENDMDL
MODEL 5
REMARK VINA RESULT:      -5.9      1.891      4.603
REMARK  8 active torsions:
REMARK  status: ('A' for Active; 'I' for Inactive)
REMARK       I    between atoms: C_5  and  N_7 
REMARK    1  A    between atoms: C_5  and  C_23 
REMARK    2  A    between atoms: N_8  and  C_22 
REMARK       I    between atoms: N_8  and  C_9 
REMARK    3  A    between atoms: C_9  and  C_10 
REMARK    4  A    between atoms: C_10  and  C_11 
REMARK    5  A    between atoms: C_10  and  N_16 
REMARK    6  A    between atoms: C_11  and  O_15 
REMARK    7  A    between atoms: C_21  and  C_22 
REMARK    8  A    between atoms: C_22  and  C_23 
ROOT
HETATM    1  N           1     -34.805  -1.309 -13.039  0.00  0.00    -0.344 N 
HETATM    2  C           1     -35.940  -0.714 -13.520  0.00  0.00     0.251 C 
HETATM    3  H           1     -33.901  -1.057 -13.417  0.00  0.00     0.163 HD
HETATM    4  O           1     -37.019  -1.017 -13.069  0.00  0.00    -0.271 OA
ENDROOT
BRANCH   1   5
HETATM    5  C           1     -34.899  -2.303 -11.986  0.00  0.00     0.194 C 
BRANCH   5   6
HETATM    6  C           1     -34.673  -1.642 -10.649  0.00  0.00     0.197 C 
HETATM    7  O           1     -33.532  -1.640 -10.138  0.00  0.00    -0.646 OA
HETATM    8  O           1     -35.625  -1.096 -10.052  0.00  0.00    -0.646 OA
ENDBRANCH   5   6
BRANCH   5   9
HETATM    9  C           1     -33.843  -3.377 -12.208  0.00  0.00     0.138 C 
BRANCH   9  10
HETATM   10  C           1     -34.294  -4.310 -13.305  0.00  0.00     0.217 C 
HETATM   11  O           1     -34.242  -3.955 -14.458  0.00  0.00    -0.274 OA
HETATM   12  N           1     -34.763  -5.558 -12.993  0.00  0.00    -0.370 N 
HETATM   13  H           1     -34.807  -5.855 -12.027  0.00  0.00     0.159 HD
HETATM   14  H           1     -35.066  -6.183 -13.729  0.00  0.00     0.159 HD
ENDBRANCH   9  10
ENDBRANCH   5   9
ENDBRANCH   1   5
BRANCH   2  15
HETATM   15  C           1     -35.842   0.320 -14.615  0.00  0.00     0.302 C 
BRANCH  15  16
HETATM   16  C           1     -36.399  -0.258 -15.910  0.00  0.00     0.153 C 
HETATM   17  C           1     -35.445  -1.318 -16.445  0.00  0.00     0.042 C 
BRANCH  16  18
HETATM   18  O           1     -37.651  -0.839 -15.663  0.00  0.00    -0.393 OA
HETATM   19  H           1     -37.834  -0.716 -14.748  0.00  0.00     0.210 HD
ENDBRANCH  16  18
ENDBRANCH  15  16
BRANCH  15  20
HETATM   20  N           1     -34.406   0.700 -14.816  0.00  0.00    -0.064 N 
HETATM   21  H           1     -34.352   1.666 -15.211  0.00  0.00     0.275 HD
HETATM   22  H           1     -33.907   0.672 -13.898  0.00  0.00     0.275 HD
HETATM   23  H           1     -33.956   0.029 -15.478  0.00  0.00     0.275 HD
ENDBRANCH  15  20
ENDBRANCH   2  15
TORSDOF 8
ENDMDL
MODEL 6
REMARK VINA RESULT:      -5.6     11.708     13.413
REMARK  8 active torsions:
REMARK  status: ('A' for Active; 'I' for Inactive)
REMARK       I    between atoms: C_5  and  N_7 
REMARK    1  A    between atoms: C_5  and  C_23 
REMARK    2  A    between atoms: N_8  and  C_22 
REMARK       I    between atoms: N_8  and  C_9 
REMARK    3  A    between atoms: C_9  and  C_10 
REMARK    4  A    between atoms: C_10  and  C_11 
REMARK    5  A    between atoms: C_10  and  N_16 
REMARK    6  A    between atoms: C_11  and  O_15 
REMARK    7  A    between atoms: C_21  and  C_22 
REMARK    8  A    between atoms: C_22  and  C_23 
ROOT
HETATM    1  N           1     -22.523  -4.842  -9.566  0.00  0.00    -0.344 N 
HETATM    2  C           1     -21.743  -4.411  -8.526  0.00  0.00     0.251 C 
HETATM    3  H           1     -22.526  -5.820  -9.825  0.00  0.00     0.163 HD
HETATM    4  O           1     -21.738  -3.243  -8.217  0.00  0.00    -0.271 OA
ENDROOT
BRANCH   1   5
HETATM    5  C           1     -23.343  -3.894 -10.296  0.00  0.00     0.194 C 
BRANCH   5   6
HETATM    6  C           1     -24.771  -3.995  -9.821  0.00  0.00     0.197 C 
HETATM    7  O           1     -25.235  -5.099  -9.463  0.00  0.00    -0.646 OA
HETATM    8  O           1     -25.491  -2.974  -9.785  0.00  0.00    -0.646 OA
ENDBRANCH   5   6
BRANCH   5   9
HETATM    9  C           1     -23.279  -4.211 -11.784  0.00  0.00     0.138 C 
BRANCH   9  10
HETATM   10  C           1     -22.268  -3.310 -12.449  0.00  0.00     0.217 C 
HETATM   11  O           1     -21.458  -2.714 -11.780  0.00  0.00    -0.274 OA
HETATM   12  N           1     -22.269  -3.166 -13.811  0.00  0.00    -0.370 N 
HETATM   13  H           1     -22.947  -3.665 -14.372  0.00  0.00     0.159 HD
HETATM   14  H           1     -21.591  -2.561 -14.256  0.00  0.00     0.159 HD
ENDBRANCH   9  10
ENDBRANCH   5   9
ENDBRANCH   1   5
BRANCH   2  15
HETATM   15  C           1     -20.890  -5.396  -7.766  0.00  0.00     0.302 C 
BRANCH  15  16
HETATM   16  C           1     -21.519  -5.671  -6.406  0.00  0.00     0.153 C 
HETATM   17  C           1     -20.610  -5.134  -5.308  0.00  0.00     0.042 C 
BRANCH  16  18
HETATM   18  O           1     -22.767  -5.036  -6.331  0.00  0.00    -0.393 OA
HETATM   19  H           1     -23.405  -5.706  -6.154  0.00  0.00     0.210 HD
ENDBRANCH  16  18
ENDBRANCH  15  16
BRANCH  15  20
HETATM   20  N           1     -19.517  -4.823  -7.573  0.00  0.00    -0.064 N 
HETATM   21  H           1     -18.912  -5.521  -7.084  0.00  0.00     0.275 HD
HETATM   22  H           1     -19.101  -4.595  -8.504  0.00  0.00     0.275 HD
HETATM   23  H           1     -19.580  -3.954  -6.997  0.00  0.00     0.275 HD
ENDBRANCH  15  20
ENDBRANCH   2  15
TORSDOF 8
ENDMDL
MODEL 7
REMARK VINA RESULT:      -5.5     12.197     14.012
REMARK  8 active torsions:
REMARK  status: ('A' for Active; 'I' for Inactive)
REMARK       I    between atoms: C_5  and  N_7 
REMARK    1  A    between atoms: C_5  and  C_23 
REMARK    2  A    between atoms: N_8  and  C_22 
REMARK       I    between atoms: N_8  and  C_9 
REMARK    3  A    between atoms: C_9  and  C_10 
REMARK    4  A    between atoms: C_10  and  C_11 
REMARK    5  A    between atoms: C_10  and  N_16 
REMARK    6  A    between atoms: C_11  and  O_15 
REMARK    7  A    between atoms: C_21  and  C_22 
REMARK    8  A    between atoms: C_22  and  C_23 
ROOT
HETATM    1  N           1     -21.881  -4.063  -9.792  0.00  0.00    -0.344 N 
HETATM    2  C           1     -20.683  -4.363  -9.200  0.00  0.00     0.251 C 
HETATM    3  H           1     -22.603  -3.590  -9.263  0.00  0.00     0.163 HD
HETATM    4  O           1     -19.822  -4.928  -9.831  0.00  0.00    -0.271 OA
ENDROOT
BRANCH   1   5
HETATM    5  C           1     -22.115  -4.425 -11.177  0.00  0.00     0.194 C 
BRANCH   5   6
HETATM    6  C           1     -21.895  -3.218 -12.055  0.00  0.00     0.197 C 
HETATM    7  O           1     -22.382  -3.186 -13.206  0.00  0.00    -0.646 OA
HETATM    8  O           1     -21.224  -2.252 -11.633  0.00  0.00    -0.646 OA
ENDBRANCH   5   6
BRANCH   5   9
HETATM    9  C           1     -23.548  -4.916 -11.337  0.00  0.00     0.138 C 
BRANCH   9  10
HETATM   10  C           1     -24.464  -4.085 -10.472  0.00  0.00     0.217 C 
HETATM   11  O           1     -24.611  -2.909 -10.704  0.00  0.00    -0.274 OA
HETATM   12  N           1     -25.130  -4.664  -9.425  0.00  0.00    -0.370 N 
HETATM   13  H           1     -25.007  -5.650  -9.231  0.00  0.00     0.159 HD
HETATM   14  H           1     -25.744  -4.107  -8.846  0.00  0.00     0.159 HD
ENDBRANCH   9  10
ENDBRANCH   5   9
ENDBRANCH   1   5
BRANCH   2  15
HETATM   15  C           1     -20.439  -3.987  -7.759  0.00  0.00     0.302 C 
BRANCH  15  16
HETATM   16  C           1     -20.126  -5.240  -6.953  0.00  0.00     0.153 C 
HETATM   17  C           1     -20.420  -4.983  -5.480  0.00  0.00     0.042 C 
BRANCH  16  18
HETATM   18  O           1     -20.922  -6.301  -7.408  0.00  0.00    -0.393 OA
HETATM   19  H           1     -21.547  -6.485  -6.729  0.00  0.00     0.210 HD
ENDBRANCH  16  18
ENDBRANCH  15  16
BRANCH  15  20
HETATM   20  N           1     -21.665  -3.327  -7.201  0.00  0.00    -0.064 N 
HETATM   21  H           1     -22.197  -4.013  -6.619  0.00  0.00     0.275 HD
HETATM   22  H           1     -21.383  -2.514  -6.609  0.00  0.00     0.275 HD
HETATM   23  H           1     -22.270  -2.995  -7.985  0.00  0.00     0.275 HD
ENDBRANCH  15  20
ENDBRANCH   2  15
TORSDOF 8
ENDMDL
MODEL 8
REMARK VINA RESULT:      -5.4      3.298      5.466
REMARK  8 active torsions:
REMARK  status: ('A' for Active; 'I' for Inactive)
REMARK       I    between atoms: C_5  and  N_7 
REMARK    1  A    between atoms: C_5  and  C_23 
REMARK    2  A    between atoms: N_8  and  C_22 
REMARK       I    between atoms: N_8  and  C_9 
REMARK    3  A    between atoms: C_9  and  C_10 
REMARK    4  A    between atoms: C_10  and  C_11 
REMARK    5  A    between atoms: C_10  and  N_16 
REMARK    6  A    between atoms: C_11  and  O_15 
REMARK    7  A    between atoms: C_21  and  C_22 
REMARK    8  A    between atoms: C_22  and  C_23 
ROOT
HETATM    1  N           1     -33.511  -3.884 -14.383  0.00  0.00    -0.344 N 
HETATM    2  C           1     -34.031  -4.502 -15.489  0.00  0.00     0.251 C 
HETATM    3  H           1     -32.632  -3.386 -14.447  0.00  0.00     0.163 HD
HETATM    4  O           1     -35.080  -5.097 -15.411  0.00  0.00    -0.271 OA
ENDROOT
BRANCH   1   5
HETATM    5  C           1     -34.221  -3.944 -13.119  0.00  0.00     0.194 C 
BRANCH   5   6
HETATM    6  C           1     -34.621  -2.550 -12.701  0.00  0.00     0.197 C 
HETATM    7  O           1     -35.068  -1.748 -13.549  0.00  0.00    -0.646 OA
HETATM    8  O           1     -34.504  -2.198 -11.508  0.00  0.00    -0.646 OA
ENDBRANCH   5   6
BRANCH   5   9
HETATM    9  C           1     -33.314  -4.552 -12.058  0.00  0.00     0.138 C 
BRANCH   9  10
HETATM   10  C           1     -34.075  -5.601 -11.285  0.00  0.00     0.217 C 
HETATM   11  O           1     -34.076  -5.578 -10.077  0.00  0.00    -0.274 OA
HETATM   12  N           1     -34.766  -6.577 -11.951  0.00  0.00    -0.370 N 
HETATM   13  H           1     -34.766  -6.595 -12.963  0.00  0.00     0.159 HD
HETATM   14  H           1     -35.277  -7.279 -11.433  0.00  0.00     0.159 HD
ENDBRANCH   9  10
ENDBRANCH   5   9
ENDBRANCH   1   5
BRANCH   2  15
HETATM   15  C           1     -33.293  -4.440 -16.804  0.00  0.00     0.302 C 
BRANCH  15  16
HETATM   16  C           1     -31.793  -4.409 -16.543  0.00  0.00     0.153 C 
HETATM   17  C           1     -31.163  -5.699 -17.052  0.00  0.00     0.042 C 
BRANCH  16  18
HETATM   18  O           1     -31.225  -3.316 -17.213  0.00  0.00    -0.393 OA
HETATM   19  H           1     -30.828  -2.769 -16.557  0.00  0.00     0.210 HD
ENDBRANCH  16  18
ENDBRANCH  15  16
BRANCH  15  20
HETATM   20  N           1     -33.697  -3.200 -17.545  0.00  0.00    -0.064 N 
HETATM   21  H           1     -33.243  -2.367 -17.107  0.00  0.00     0.275 HD
HETATM   22  H           1     -33.395  -3.277 -18.542  0.00  0.00     0.275 HD
HETATM   23  H           1     -34.736  -3.091 -17.502  0.00  0.00     0.275 HD
ENDBRANCH  15  20
ENDBRANCH   2  15
TORSDOF 8
ENDMDL
MODEL 9
REMARK VINA RESULT:      -5.4     12.232     14.746
REMARK  8 active torsions:
REMARK  status: ('A' for Active; 'I' for Inactive)
REMARK       I    between atoms: C_5  and  N_7 
REMARK    1  A    between atoms: C_5  and  C_23 
REMARK    2  A    between atoms: N_8  and  C_22 
REMARK       I    between atoms: N_8  and  C_9 
REMARK    3  A    between atoms: C_9  and  C_10 
REMARK    4  A    between atoms: C_10  and  C_11 
REMARK    5  A    between atoms: C_10  and  N_16 
REMARK    6  A    between atoms: C_11  and  O_15 
REMARK    7  A    between atoms: C_21  and  C_22 
REMARK    8  A    between atoms: C_22  and  C_23 
ROOT
HETATM    1  N           1     -22.221  -5.263  -8.541  0.00  0.00    -0.344 N 
HETATM    2  C           1     -23.040  -4.281  -9.031  0.00  0.00     0.251 C 
HETATM    3  H           1     -22.348  -6.223  -8.837  0.00  0.00     0.163 HD
HETATM    4  O           1     -22.888  -3.136  -8.677  0.00  0.00    -0.271 OA
ENDROOT
BRANCH   1   5
HETATM    5  C           1     -21.172  -4.928  -7.597  0.00  0.00     0.194 C 
BRANCH   5   6
HETATM    6  C           1     -19.885  -4.675  -8.345  0.00  0.00     0.197 C 
HETATM    7  O           1     -18.857  -4.336  -7.721  0.00  0.00    -0.646 OA
HETATM    8  O           1     -19.849  -4.805  -9.587  0.00  0.00    -0.646 OA
ENDBRANCH   5   6
BRANCH   5   9
HETATM    9  C           1     -20.977  -6.083  -6.625  0.00  0.00     0.138 C 
BRANCH   9  10
HETATM   10  C           1     -21.907  -5.916  -5.449  0.00  0.00     0.217 C 
HETATM   11  O           1     -23.095  -5.792  -5.632  0.00  0.00    -0.274 OA
HETATM   12  N           1     -21.405  -5.903  -4.175  0.00  0.00    -0.370 N 
HETATM   13  H           1     -20.410  -6.006  -4.022  0.00  0.00     0.159 HD
HETATM   14  H           1     -22.029  -5.790  -3.387  0.00  0.00     0.159 HD
ENDBRANCH   9  10
ENDBRANCH   5   9
ENDBRANCH   1   5
BRANCH   2  15
HETATM   15  C           1     -24.131  -4.630 -10.013  0.00  0.00     0.302 C 
BRANCH  15  16
HETATM   16  C           1     -23.617  -4.438 -11.433  0.00  0.00     0.153 C 
HETATM   17  C           1     -24.182  -3.145 -12.007  0.00  0.00     0.042 C 
BRANCH  16  18
HETATM   18  O           1     -22.217  -4.370 -11.419  0.00  0.00    -0.393 OA
HETATM   19  H           1     -21.901  -5.252 -11.324  0.00  0.00     0.210 HD
ENDBRANCH  16  18
ENDBRANCH  15  16
BRANCH  15  20
HETATM   20  N           1     -25.313  -3.735  -9.784  0.00  0.00    -0.064 N 
HETATM   21  H           1     -25.252  -2.906 -10.418  0.00  0.00     0.275 HD
HETATM   22  H           1     -26.192  -4.262  -9.985  0.00  0.00     0.275 HD
HETATM   23  H           1     -25.318  -3.411  -8.791  0.00  0.00     0.275 HD
ENDBRANCH  15  20
ENDBRANCH   2  15
TORSDOF 8
ENDMDL
