MODEL 1
REMARK VINA RESULT:      -7.4      0.000      0.000
REMARK  11 active torsions:
REMARK  status: ('A' for Active; 'I' for Inactive)
REMARK    1  A    between atoms: N_4  and  C_7 
REMARK    2  A    between atoms: P_6  and  O_14 
REMARK    3  A    between atoms: P_6  and  O_16 
REMARK    4  A    between atoms: C_7  and  C_8 
REMARK    5  A    between atoms: C_7  and  C_15 
REMARK       I    between atoms: C_8  and  N_9 
REMARK    6  A    between atoms: N_9  and  C_27 
REMARK    7  A    between atoms: C_10  and  C_15 
REMARK    8  A    between atoms: O_14  and  C_28 
REMARK    9  A    between atoms: C_18  and  C_27 
REMARK   10  A    between atoms: O_26  and  C_29 
REMARK   11  A    between atoms: C_27  and  C_28 
ROOT
HETATM    1  H           1     -23.078  -6.258  -4.624  0.00  0.00     0.163 HD
HETATM    2  C           1     -21.436  -5.630  -5.716  0.00  0.00     0.249 C 
HETATM    3  N           1     -22.068  -6.190  -4.639  0.00  0.00    -0.343 N 
HETATM    4  O           1     -20.231  -5.549  -5.736  0.00  0.00    -0.271 OA
ENDROOT
BRANCH   2   5
HETATM    5  C           1     -22.246  -5.113  -6.881  0.00  0.00     0.278 C 
BRANCH   5   6
HETATM    6  N           1     -23.652  -4.851  -6.433  0.00  0.00    -0.066 N 
HETATM    7  H           1     -24.321  -5.287  -7.109  0.00  0.00     0.275 HD
HETATM    8  H           1     -23.799  -5.266  -5.485  0.00  0.00     0.275 HD
HETATM    9  H           1     -23.820  -3.821  -6.393  0.00  0.00     0.275 HD
ENDBRANCH   5   6
BRANCH   5  10
HETATM   10  C           1     -21.628  -3.819  -7.395  0.00  0.00     0.081 C 
BRANCH  10  11
HETATM   11  C           1     -21.666  -3.806  -8.891  0.00  0.00    -0.056 A 
HETATM   12  C           1     -22.857  -3.517  -9.557  0.00  0.00     0.010 A 
HETATM   13  C           1     -22.892  -3.506 -10.951  0.00  0.00     0.037 A 
HETATM   14  C           1     -21.736  -3.784 -11.679  0.00  0.00     0.065 A 
HETATM   15  C           1     -20.544  -4.074 -11.014  0.00  0.00     0.037 A 
HETATM   16  C           1     -20.510  -4.085  -9.620  0.00  0.00     0.010 A 
BRANCH  14  17
HETATM   17  O           1     -21.769  -3.773 -13.034  0.00  0.00    -0.361 OA
HETATM   18  H           1     -22.306  -4.529 -13.327  0.00  0.00     0.217 HD
ENDBRANCH  14  17
ENDBRANCH  10  11
ENDBRANCH   5  10
ENDBRANCH   2   5
BRANCH   3  19
HETATM   19  C           1     -21.290  -6.687  -3.521  0.00  0.00     0.210 C 
BRANCH  19  20
HETATM   20  C           1     -20.914  -8.127  -3.769  0.00  0.00     0.198 C 
HETATM   21  O           1     -21.805  -8.997  -3.875  0.00  0.00    -0.646 OA
HETATM   22  O           1     -19.711  -8.450  -3.869  0.00  0.00    -0.646 OA
ENDBRANCH  19  20
BRANCH  19  23
HETATM   23  C           1     -22.116  -6.591  -2.246  0.00  0.00     0.217 C 
BRANCH  23  24
HETATM   24  O           1     -21.387  -7.124  -1.175  0.00  0.00    -0.287 OA
BRANCH  24  25
HETATM   25  P           1     -22.193  -8.127  -0.198  0.00  0.00     0.406 P 
HETATM   26  O           1     -23.449  -7.482   0.246  0.00  0.00    -0.624 OA
HETATM   27  O           1     -21.358  -8.444   0.981  0.00  0.00    -0.624 OA
BRANCH  25  28
HETATM   28  O           1     -22.540  -9.488  -0.994  0.00  0.00    -0.300 OA
HETATM   29  H           1     -22.201  -9.356  -1.863  0.00  0.00     0.223 HD
ENDBRANCH  25  28
ENDBRANCH  24  25
ENDBRANCH  23  24
ENDBRANCH  19  23
ENDBRANCH   3  19
TORSDOF 11
ENDMDL
MODEL 2
REMARK VINA RESULT:      -7.4     13.890     17.166
REMARK  11 active torsions:
REMARK  status: ('A' for Active; 'I' for Inactive)
REMARK    1  A    between atoms: N_4  and  C_7 
REMARK    2  A    between atoms: P_6  and  O_14 
REMARK    3  A    between atoms: P_6  and  O_16 
REMARK    4  A    between atoms: C_7  and  C_8 
REMARK    5  A    between atoms: C_7  and  C_15 
REMARK       I    between atoms: C_8  and  N_9 
REMARK    6  A    between atoms: N_9  and  C_27 
REMARK    7  A    between atoms: C_10  and  C_15 
REMARK    8  A    between atoms: O_14  and  C_28 
REMARK    9  A    between atoms: C_18  and  C_27 
REMARK   10  A    between atoms: O_26  and  C_29 
REMARK   11  A    between atoms: C_27  and  C_28 
ROOT
HETATM    1  H           1     -36.381  -2.200 -13.294  0.00  0.00     0.163 HD
HETATM    2  C           1     -34.676  -2.212 -12.121  0.00  0.00     0.249 C 
HETATM    3  N           1     -35.776  -1.643 -12.704  0.00  0.00    -0.343 N 
HETATM    4  O           1     -33.955  -1.548 -11.415  0.00  0.00    -0.271 OA
ENDROOT
BRANCH   2   5
HETATM    5  C           1     -34.366  -3.669 -12.358  0.00  0.00     0.278 C 
BRANCH   5   6
HETATM    6  N           1     -33.903  -3.857 -13.772  0.00  0.00    -0.066 N 
HETATM    7  H           1     -34.629  -4.383 -14.310  0.00  0.00     0.275 HD
HETATM    8  H           1     -33.752  -2.922 -14.215  0.00  0.00     0.275 HD
HETATM    9  H           1     -33.007  -4.395 -13.778  0.00  0.00     0.275 HD
ENDBRANCH   5   6
BRANCH   5  10
HETATM   10  C           1     -33.268  -4.117 -11.402  0.00  0.00     0.081 C 
BRANCH  10  11
HETATM   11  C           1     -33.598  -5.474 -10.862  0.00  0.00    -0.056 A 
HETATM   12  C           1     -32.698  -6.528 -11.023  0.00  0.00     0.010 A 
HETATM   13  C           1     -33.006  -7.791 -10.520  0.00  0.00     0.037 A 
HETATM   14  C           1     -34.214  -8.001  -9.855  0.00  0.00     0.065 A 
HETATM   15  C           1     -35.114  -6.948  -9.693  0.00  0.00     0.037 A 
HETATM   16  C           1     -34.806  -5.684 -10.197  0.00  0.00     0.010 A 
BRANCH  14  17
HETATM   17  O           1     -34.513  -9.229  -9.366  0.00  0.00    -0.361 OA
HETATM   18  H           1     -35.349  -9.160  -8.872  0.00  0.00     0.217 HD
ENDBRANCH  14  17
ENDBRANCH  10  11
ENDBRANCH   5  10
ENDBRANCH   2   5
BRANCH   3  19
HETATM   19  C           1     -36.075  -0.242 -12.475  0.00  0.00     0.210 C 
BRANCH  19  20
HETATM   20  C           1     -36.969  -0.109 -11.268  0.00  0.00     0.198 C 
HETATM   21  O           1     -38.075  -0.691 -11.240  0.00  0.00    -0.646 OA
HETATM   22  O           1     -36.605   0.585 -10.294  0.00  0.00    -0.646 OA
ENDBRANCH  19  20
BRANCH  19  23
HETATM   23  C           1     -36.781   0.331 -13.696  0.00  0.00     0.217 C 
BRANCH  23  24
HETATM   24  O           1     -36.942  -0.675 -14.658  0.00  0.00    -0.287 OA
BRANCH  24  25
HETATM   25  P           1     -35.827  -0.723 -15.826  0.00  0.00     0.406 P 
HETATM   26  O           1     -35.062  -1.987 -15.727  0.00  0.00    -0.624 OA
HETATM   27  O           1     -34.905   0.424 -15.674  0.00  0.00    -0.624 OA
BRANCH  25  28
HETATM   28  O           1     -36.553  -0.645 -17.266  0.00  0.00    -0.300 OA
HETATM   29  H           1     -37.473  -0.592 -17.072  0.00  0.00     0.223 HD
ENDBRANCH  25  28
ENDBRANCH  24  25
ENDBRANCH  23  24
ENDBRANCH  19  23
ENDBRANCH   3  19
TORSDOF 11
ENDMDL
MODEL 3
REMARK VINA RESULT:      -7.2     15.220     17.331
REMARK  11 active torsions:
REMARK  status: ('A' for Active; 'I' for Inactive)
REMARK    1  A    between atoms: N_4  and  C_7 
REMARK    2  A    between atoms: P_6  and  O_14 
REMARK    3  A    between atoms: P_6  and  O_16 
REMARK    4  A    between atoms: C_7  and  C_8 
REMARK    5  A    between atoms: C_7  and  C_15 
REMARK       I    between atoms: C_8  and  N_9 
REMARK    6  A    between atoms: N_9  and  C_27 
REMARK    7  A    between atoms: C_10  and  C_15 
REMARK    8  A    between atoms: O_14  and  C_28 
REMARK    9  A    between atoms: C_18  and  C_27 
REMARK   10  A    between atoms: O_26  and  C_29 
REMARK   11  A    between atoms: C_27  and  C_28 
ROOT
HETATM    1  H           1     -33.208  -3.105 -14.225  0.00  0.00     0.163 HD
HETATM    2  C           1     -34.437  -4.684 -13.694  0.00  0.00     0.249 C 
HETATM    3  N           1     -33.813  -3.839 -14.572  0.00  0.00    -0.343 N 
HETATM    4  O           1     -35.158  -5.561 -14.108  0.00  0.00    -0.271 OA
ENDROOT
BRANCH   2   5
HETATM    5  C           1     -34.224  -4.521 -12.209  0.00  0.00     0.278 C 
BRANCH   5   6
HETATM    6  N           1     -33.292  -5.588 -11.719  0.00  0.00    -0.066 N 
HETATM    7  H           1     -32.447  -5.145 -11.292  0.00  0.00     0.275 HD
HETATM    8  H           1     -33.778  -6.172 -11.001  0.00  0.00     0.275 HD
HETATM    9  H           1     -33.001  -6.192 -12.520  0.00  0.00     0.275 HD
ENDBRANCH   5   6
BRANCH   5  10
HETATM   10  C           1     -33.617  -3.152 -11.930  0.00  0.00     0.081 C 
BRANCH  10  11
HETATM   11  C           1     -34.707  -2.177 -11.612  0.00  0.00    -0.056 A 
HETATM   12  C           1     -35.691  -2.508 -10.680  0.00  0.00     0.010 A 
HETATM   13  C           1     -36.706  -1.599 -10.385  0.00  0.00     0.037 A 
HETATM   14  C           1     -36.738  -0.359 -11.021  0.00  0.00     0.065 A 
HETATM   15  C           1     -35.755  -0.027 -11.953  0.00  0.00     0.037 A 
HETATM   16  C           1     -34.740  -0.936 -12.249  0.00  0.00     0.010 A 
BRANCH  14  17
HETATM   17  O           1     -37.725   0.524 -10.734  0.00  0.00    -0.361 OA
HETATM   18  H           1     -38.578   0.083 -10.889  0.00  0.00     0.217 HD
ENDBRANCH  14  17
ENDBRANCH  10  11
ENDBRANCH   5  10
ENDBRANCH   2   5
BRANCH   3  19
HETATM   19  C           1     -34.017  -3.996 -15.999  0.00  0.00     0.210 C 
BRANCH  19  20
HETATM   20  C           1     -32.683  -3.997 -16.702  0.00  0.00     0.198 C 
HETATM   21  O           1     -32.445  -3.155 -17.594  0.00  0.00    -0.646 OA
HETATM   22  O           1     -31.814  -4.841 -16.392  0.00  0.00    -0.646 OA
ENDBRANCH  19  20
BRANCH  19  23
HETATM   23  C           1     -34.865  -2.844 -16.520  0.00  0.00     0.217 C 
BRANCH  23  24
HETATM   24  O           1     -35.078  -1.918 -15.489  0.00  0.00    -0.287 OA
BRANCH  24  25
HETATM   25  P           1     -36.029  -0.663 -15.850  0.00  0.00     0.406 P 
HETATM   26  O           1     -35.327   0.599 -15.526  0.00  0.00    -0.624 OA
HETATM   27  O           1     -37.278  -0.749 -15.061  0.00  0.00    -0.624 OA
BRANCH  25  28
HETATM   28  O           1     -36.383  -0.692 -17.425  0.00  0.00    -0.300 OA
HETATM   29  H           1     -36.557  -1.598 -17.619  0.00  0.00     0.223 HD
ENDBRANCH  25  28
ENDBRANCH  24  25
ENDBRANCH  23  24
ENDBRANCH  19  23
ENDBRANCH   3  19
TORSDOF 11
ENDMDL
MODEL 4
REMARK VINA RESULT:      -7.2      1.251      1.678
REMARK  11 active torsions:
REMARK  status: ('A' for Active; 'I' for Inactive)
REMARK    1  A    between atoms: N_4  and  C_7 
REMARK    2  A    between atoms: P_6  and  O_14 
REMARK    3  A    between atoms: P_6  and  O_16 
REMARK    4  A    between atoms: C_7  and  C_8 
REMARK    5  A    between atoms: C_7  and  C_15 
REMARK       I    between atoms: C_8  and  N_9 
REMARK    6  A    between atoms: N_9  and  C_27 
REMARK    7  A    between atoms: C_10  and  C_15 
REMARK    8  A    between atoms: O_14  and  C_28 
REMARK    9  A    between atoms: C_18  and  C_27 
REMARK   10  A    between atoms: O_26  and  C_29 
REMARK   11  A    between atoms: C_27  and  C_28 
ROOT
HETATM    1  H           1     -22.764  -6.107  -5.588  0.00  0.00     0.163 HD
HETATM    2  C           1     -21.073  -5.145  -6.293  0.00  0.00     0.249 C 
HETATM    3  N           1     -21.767  -5.985  -5.465  0.00  0.00    -0.343 N 
HETATM    4  O           1     -19.882  -5.000  -6.147  0.00  0.00    -0.271 OA
ENDROOT
BRANCH   2   5
HETATM    5  C           1     -21.795  -4.399  -7.388  0.00  0.00     0.278 C 
BRANCH   5   6
HETATM    6  N           1     -21.607  -2.924  -7.196  0.00  0.00    -0.066 N 
HETATM    7  H           1     -21.645  -2.698  -6.176  0.00  0.00     0.275 HD
HETATM    8  H           1     -20.677  -2.639  -7.580  0.00  0.00     0.275 HD
HETATM    9  H           1     -22.365  -2.407  -7.696  0.00  0.00     0.275 HD
ENDBRANCH   5   6
BRANCH   5  10
HETATM   10  C           1     -21.229  -4.810  -8.741  0.00  0.00     0.081 C 
BRANCH  10  11
HETATM   11  C           1     -22.017  -4.158  -9.833  0.00  0.00    -0.056 A 
HETATM   12  C           1     -21.360  -3.568 -10.913  0.00  0.00     0.010 A 
HETATM   13  C           1     -22.095  -2.960 -11.930  0.00  0.00     0.037 A 
HETATM   14  C           1     -23.488  -2.940 -11.867  0.00  0.00     0.065 A 
HETATM   15  C           1     -24.147  -3.529 -10.787  0.00  0.00     0.037 A 
HETATM   16  C           1     -23.411  -4.138  -9.770  0.00  0.00     0.010 A 
BRANCH  14  17
HETATM   17  O           1     -24.203  -2.349 -12.855  0.00  0.00    -0.361 OA
HETATM   18  H           1     -24.838  -1.740 -12.442  0.00  0.00     0.217 HD
ENDBRANCH  14  17
ENDBRANCH  10  11
ENDBRANCH   5  10
ENDBRANCH   2   5
BRANCH   3  19
HETATM   19  C           1     -21.073  -6.702  -4.412  0.00  0.00     0.210 C 
BRANCH  19  20
HETATM   20  C           1     -20.887  -8.142  -4.822  0.00  0.00     0.198 C 
HETATM   21  O           1     -21.712  -9.007  -4.457  0.00  0.00    -0.646 OA
HETATM   22  O           1     -19.908  -8.470  -5.525  0.00  0.00    -0.646 OA
ENDBRANCH  19  20
BRANCH  19  23
HETATM   23  C           1     -21.892  -6.640  -3.131  0.00  0.00     0.217 C 
BRANCH  23  24
HETATM   24  O           1     -21.095  -7.032  -2.047  0.00  0.00    -0.287 OA
BRANCH  24  25
HETATM   25  P           1     -21.820  -7.944  -0.928  0.00  0.00     0.406 P 
HETATM   26  O           1     -22.986  -7.217  -0.377  0.00  0.00    -0.624 OA
HETATM   27  O           1     -20.864  -8.238   0.163  0.00  0.00    -0.624 OA
BRANCH  25  28
HETATM   28  O           1     -22.316  -9.326  -1.599  0.00  0.00    -0.300 OA
HETATM   29  H           1     -21.531  -9.734  -1.923  0.00  0.00     0.223 HD
ENDBRANCH  25  28
ENDBRANCH  24  25
ENDBRANCH  23  24
ENDBRANCH  19  23
ENDBRANCH   3  19
TORSDOF 11
ENDMDL
MODEL 5
REMARK VINA RESULT:      -6.9      2.160      3.431
REMARK  11 active torsions:
REMARK  status: ('A' for Active; 'I' for Inactive)
REMARK    1  A    between atoms: N_4  and  C_7 
REMARK    2  A    between atoms: P_6  and  O_14 
REMARK    3  A    between atoms: P_6  and  O_16 
REMARK    4  A    between atoms: C_7  and  C_8 
REMARK    5  A    between atoms: C_7  and  C_15 
REMARK       I    between atoms: C_8  and  N_9 
REMARK    6  A    between atoms: N_9  and  C_27 
REMARK    7  A    between atoms: C_10  and  C_15 
REMARK    8  A    between atoms: O_14  and  C_28 
REMARK    9  A    between atoms: C_18  and  C_27 
REMARK   10  A    between atoms: O_26  and  C_29 
REMARK   11  A    between atoms: C_27  and  C_28 
ROOT
HETATM    1  H           1     -20.166  -6.500  -5.316  0.00  0.00     0.163 HD
HETATM    2  C           1     -21.805  -5.472  -6.051  0.00  0.00     0.249 C 
HETATM    3  N           1     -21.171  -6.391  -5.259  0.00  0.00    -0.343 N 
HETATM    4  O           1     -23.004  -5.341  -5.984  0.00  0.00    -0.271 OA
ENDROOT
BRANCH   2   5
HETATM    5  C           1     -21.006  -4.622  -7.009  0.00  0.00     0.278 C 
BRANCH   5   6
HETATM    6  N           1     -19.640  -4.380  -6.440  0.00  0.00    -0.066 N 
HETATM    7  H           1     -19.250  -5.279  -6.076  0.00  0.00     0.275 HD
HETATM    8  H           1     -19.013  -4.008  -7.189  0.00  0.00     0.275 HD
HETATM    9  H           1     -19.704  -3.687  -5.661  0.00  0.00     0.275 HD
ENDBRANCH   5   6
BRANCH   5  10
HETATM   10  C           1     -20.879  -5.343  -8.344  0.00  0.00     0.081 C 
BRANCH  10  11
HETATM   11  C           1     -21.510  -4.518  -9.422  0.00  0.00    -0.056 A 
HETATM   12  C           1     -22.874  -4.231  -9.373  0.00  0.00     0.010 A 
HETATM   13  C           1     -23.462  -3.462 -10.377  0.00  0.00     0.037 A 
HETATM   14  C           1     -22.685  -2.980 -11.430  0.00  0.00     0.065 A 
HETATM   15  C           1     -21.321  -3.267 -11.480  0.00  0.00     0.037 A 
HETATM   16  C           1     -20.733  -4.036 -10.476  0.00  0.00     0.010 A 
BRANCH  14  17
HETATM   17  O           1     -23.256  -2.233 -12.406  0.00  0.00    -0.361 OA
HETATM   18  H           1     -23.812  -2.820 -12.947  0.00  0.00     0.217 HD
ENDBRANCH  14  17
ENDBRANCH  10  11
ENDBRANCH   5  10
ENDBRANCH   2   5
BRANCH   3  19
HETATM   19  C           1     -21.938  -7.207  -4.339  0.00  0.00     0.210 C 
BRANCH  19  20
HETATM   20  C           1     -21.650  -6.776  -2.923  0.00  0.00     0.198 C 
HETATM   21  O           1     -22.327  -5.868  -2.395  0.00  0.00    -0.646 OA
HETATM   22  O           1     -20.732  -7.327  -2.277  0.00  0.00    -0.646 OA
ENDBRANCH  19  20
BRANCH  19  23
HETATM   23  C           1     -21.551  -8.669  -4.514  0.00  0.00     0.217 C 
BRANCH  23  24
HETATM   24  O           1     -20.581  -8.778  -5.519  0.00  0.00    -0.287 OA
BRANCH  24  25
HETATM   25  P           1     -19.223  -9.553  -5.112  0.00  0.00     0.406 P 
HETATM   26  O           1     -18.187  -9.308  -6.140  0.00  0.00    -0.624 OA
HETATM   27  O           1     -19.492 -11.005  -5.020  0.00  0.00    -0.624 OA
BRANCH  25  28
HETATM   28  O           1     -18.702  -9.010  -3.684  0.00  0.00    -0.300 OA
HETATM   29  H           1     -17.956  -9.547  -3.476  0.00  0.00     0.223 HD
ENDBRANCH  25  28
ENDBRANCH  24  25
ENDBRANCH  23  24
ENDBRANCH  19  23
ENDBRANCH   3  19
TORSDOF 11
ENDMDL
MODEL 6
REMARK VINA RESULT:      -6.8      0.987      1.809
REMARK  11 active torsions:
REMARK  status: ('A' for Active; 'I' for Inactive)
REMARK    1  A    between atoms: N_4  and  C_7 
REMARK    2  A    between atoms: P_6  and  O_14 
REMARK    3  A    between atoms: P_6  and  O_16 
REMARK    4  A    between atoms: C_7  and  C_8 
REMARK    5  A    between atoms: C_7  and  C_15 
REMARK       I    between atoms: C_8  and  N_9 
REMARK    6  A    between atoms: N_9  and  C_27 
REMARK    7  A    between atoms: C_10  and  C_15 
REMARK    8  A    between atoms: O_14  and  C_28 
REMARK    9  A    between atoms: C_18  and  C_27 
REMARK   10  A    between atoms: O_26  and  C_29 
REMARK   11  A    between atoms: C_27  and  C_28 
ROOT
HETATM    1  H           1     -21.565  -7.808  -6.113  0.00  0.00     0.163 HD
HETATM    2  C           1     -21.273  -5.822  -5.611  0.00  0.00     0.249 C 
HETATM    3  N           1     -21.138  -7.174  -5.449  0.00  0.00    -0.343 N 
HETATM    4  O           1     -20.763  -5.065  -4.820  0.00  0.00    -0.271 OA
ENDROOT
BRANCH   2   5
HETATM    5  C           1     -22.059  -5.276  -6.778  0.00  0.00     0.278 C 
BRANCH   5   6
HETATM    6  N           1     -23.461  -4.978  -6.340  0.00  0.00    -0.066 N 
HETATM    7  H           1     -23.699  -5.564  -5.507  0.00  0.00     0.275 HD
HETATM    8  H           1     -23.538  -3.967  -6.085  0.00  0.00     0.275 HD
HETATM    9  H           1     -24.124  -5.193  -7.118  0.00  0.00     0.275 HD
ENDBRANCH   5   6
BRANCH   5  10
HETATM   10  C           1     -21.401  -3.997  -7.280  0.00  0.00     0.081 C 
BRANCH  10  11
HETATM   11  C           1     -21.486  -3.944  -8.774  0.00  0.00    -0.056 A 
HETATM   12  C           1     -20.359  -4.221  -9.547  0.00  0.00     0.010 A 
HETATM   13  C           1     -20.439  -4.170 -10.939  0.00  0.00     0.037 A 
HETATM   14  C           1     -21.645  -3.842 -11.556  0.00  0.00     0.065 A 
HETATM   15  C           1     -22.772  -3.564 -10.783  0.00  0.00     0.037 A 
HETATM   16  C           1     -22.693  -3.615  -9.392  0.00  0.00     0.010 A 
BRANCH  14  17
HETATM   17  O           1     -21.722  -3.792 -12.908  0.00  0.00    -0.361 OA
HETATM   18  H           1     -21.078  -4.426 -13.269  0.00  0.00     0.217 HD
ENDBRANCH  14  17
ENDBRANCH  10  11
ENDBRANCH   5  10
ENDBRANCH   2   5
BRANCH   3  19
HETATM   19  C           1     -20.383  -7.698  -4.328  0.00  0.00     0.210 C 
BRANCH  19  20
HETATM   20  C           1     -19.397  -8.727  -4.822  0.00  0.00     0.198 C 
HETATM   21  O           1     -18.867  -9.523  -4.017  0.00  0.00    -0.646 OA
HETATM   22  O           1     -19.108  -8.783  -6.037  0.00  0.00    -0.646 OA
ENDBRANCH  19  20
BRANCH  19  23
HETATM   23  C           1     -21.336  -8.346  -3.332  0.00  0.00     0.217 C 
BRANCH  23  24
HETATM   24  O           1     -21.538  -7.480  -2.248  0.00  0.00    -0.287 OA
BRANCH  24  25
HETATM   25  P           1     -22.000  -8.174  -0.865  0.00  0.00     0.406 P 
HETATM   26  O           1     -20.840  -8.278   0.048  0.00  0.00    -0.624 OA
HETATM   27  O           1     -22.529  -9.528  -1.145  0.00  0.00    -0.624 OA
BRANCH  25  28
HETATM   28  O           1     -23.151  -7.278  -0.173  0.00  0.00    -0.300 OA
HETATM   29  H           1     -23.956  -7.565  -0.570  0.00  0.00     0.223 HD
ENDBRANCH  25  28
ENDBRANCH  24  25
ENDBRANCH  23  24
ENDBRANCH  19  23
ENDBRANCH   3  19
TORSDOF 11
ENDMDL
MODEL 7
REMARK VINA RESULT:      -6.6      1.798      2.689
REMARK  11 active torsions:
REMARK  status: ('A' for Active; 'I' for Inactive)
REMARK    1  A    between atoms: N_4  and  C_7 
REMARK    2  A    between atoms: P_6  and  O_14 
REMARK    3  A    between atoms: P_6  and  O_16 
REMARK    4  A    between atoms: C_7  and  C_8 
REMARK    5  A    between atoms: C_7  and  C_15 
REMARK       I    between atoms: C_8  and  N_9 
REMARK    6  A    between atoms: N_9  and  C_27 
REMARK    7  A    between atoms: C_10  and  C_15 
REMARK    8  A    between atoms: O_14  and  C_28 
REMARK    9  A    between atoms: C_18  and  C_27 
REMARK   10  A    between atoms: O_26  and  C_29 
REMARK   11  A    between atoms: C_27  and  C_28 
ROOT
HETATM    1  H           1     -19.949  -6.578  -4.773  0.00  0.00     0.163 HD
HETATM    2  C           1     -21.644  -5.758  -5.632  0.00  0.00     0.249 C 
HETATM    3  N           1     -20.961  -6.583  -4.779  0.00  0.00    -0.343 N 
HETATM    4  O           1     -22.852  -5.763  -5.640  0.00  0.00    -0.271 OA
ENDROOT
BRANCH   2   5
HETATM    5  C           1     -20.887  -4.842  -6.563  0.00  0.00     0.278 C 
BRANCH   5   6
HETATM    6  N           1     -19.569  -4.483  -5.946  0.00  0.00    -0.066 N 
HETATM    7  H           1     -18.792  -4.854  -6.540  0.00  0.00     0.275 HD
HETATM    8  H           1     -19.488  -3.442  -5.879  0.00  0.00     0.275 HD
HETATM    9  H           1     -19.505  -4.899  -4.990  0.00  0.00     0.275 HD
ENDBRANCH   5   6
BRANCH   5  10
HETATM   10  C           1     -20.648  -5.551  -7.890  0.00  0.00     0.081 C 
BRANCH  10  11
HETATM   11  C           1     -21.215  -4.728  -9.005  0.00  0.00    -0.056 A 
HETATM   12  C           1     -22.549  -4.325  -8.968  0.00  0.00     0.010 A 
HETATM   13  C           1     -23.076  -3.559 -10.007  0.00  0.00     0.037 A 
HETATM   14  C           1     -22.268  -3.197 -11.085  0.00  0.00     0.065 A 
HETATM   15  C           1     -20.934  -3.601 -11.124  0.00  0.00     0.037 A 
HETATM   16  C           1     -20.407  -4.367 -10.084  0.00  0.00     0.010 A 
BRANCH  14  17
HETATM   17  O           1     -22.780  -2.453 -12.095  0.00  0.00    -0.361 OA
HETATM   18  H           1     -23.632  -2.845 -12.355  0.00  0.00     0.217 HD
ENDBRANCH  14  17
ENDBRANCH  10  11
ENDBRANCH   5  10
ENDBRANCH   2   5
BRANCH   3  19
HETATM   19  C           1     -21.688  -7.462  -3.885  0.00  0.00     0.210 C 
BRANCH  19  20
HETATM   20  C           1     -21.660  -6.895  -2.488  0.00  0.00     0.198 C 
HETATM   21  O           1     -20.946  -7.427  -1.610  0.00  0.00    -0.646 OA
HETATM   22  O           1     -22.351  -5.892  -2.206  0.00  0.00    -0.646 OA
ENDBRANCH  19  20
BRANCH  19  23
HETATM   23  C           1     -21.038  -8.839  -3.887  0.00  0.00     0.217 C 
BRANCH  23  24
HETATM   24  O           1     -22.032  -9.826  -3.848  0.00  0.00    -0.287 OA
BRANCH  24  25
HETATM   25  P           1     -21.971 -10.843  -2.595  0.00  0.00     0.406 P 
HETATM   26  O           1     -20.581 -11.319  -2.412  0.00  0.00    -0.624 OA
HETATM   27  O           1     -22.857 -11.999  -2.855  0.00  0.00    -0.624 OA
BRANCH  25  28
HETATM   28  O           1     -22.458 -10.080  -1.258  0.00  0.00    -0.300 OA
HETATM   29  H           1     -23.330 -10.400  -1.098  0.00  0.00     0.223 HD
ENDBRANCH  25  28
ENDBRANCH  24  25
ENDBRANCH  23  24
ENDBRANCH  19  23
ENDBRANCH   3  19
TORSDOF 11
ENDMDL
MODEL 8
REMARK VINA RESULT:      -6.5      2.053      3.519
REMARK  11 active torsions:
REMARK  status: ('A' for Active; 'I' for Inactive)
REMARK    1  A    between atoms: N_4  and  C_7 
REMARK    2  A    between atoms: P_6  and  O_14 
REMARK    3  A    between atoms: P_6  and  O_16 
REMARK    4  A    between atoms: C_7  and  C_8 
REMARK    5  A    between atoms: C_7  and  C_15 
REMARK       I    between atoms: C_8  and  N_9 
REMARK    6  A    between atoms: N_9  and  C_27 
REMARK    7  A    between atoms: C_10  and  C_15 
REMARK    8  A    between atoms: O_14  and  C_28 
REMARK    9  A    between atoms: C_18  and  C_27 
REMARK   10  A    between atoms: O_26  and  C_29 
REMARK   11  A    between atoms: C_27  and  C_28 
ROOT
HETATM    1  H           1     -19.813  -7.131  -4.393  0.00  0.00     0.163 HD
HETATM    2  C           1     -21.271  -6.035  -5.371  0.00  0.00     0.249 C 
HETATM    3  N           1     -20.805  -6.931  -4.448  0.00  0.00    -0.343 N 
HETATM    4  O           1     -22.453  -5.795  -5.437  0.00  0.00    -0.271 OA
ENDROOT
BRANCH   2   5
HETATM    5  C           1     -20.308  -5.346  -6.307  0.00  0.00     0.278 C 
BRANCH   5   6
HETATM    6  N           1     -20.024  -6.239  -7.477  0.00  0.00    -0.066 N 
HETATM    7  H           1     -20.848  -6.861  -7.649  0.00  0.00     0.275 HD
HETATM    8  H           1     -19.847  -5.656  -8.326  0.00  0.00     0.275 HD
HETATM    9  H           1     -19.183  -6.824  -7.274  0.00  0.00     0.275 HD
ENDBRANCH   5   6
BRANCH   5  10
HETATM   10  C           1     -20.924  -4.043  -6.801  0.00  0.00     0.081 C 
BRANCH  10  11
HETATM   11  C           1     -21.237  -4.160  -8.260  0.00  0.00    -0.056 A 
HETATM   12  C           1     -20.225  -4.002  -9.207  0.00  0.00     0.010 A 
HETATM   13  C           1     -20.517  -4.109 -10.566  0.00  0.00     0.037 A 
HETATM   14  C           1     -21.822  -4.375 -10.979  0.00  0.00     0.065 A 
HETATM   15  C           1     -22.836  -4.533 -10.033  0.00  0.00     0.037 A 
HETATM   16  C           1     -22.543  -4.425  -8.674  0.00  0.00     0.010 A 
BRANCH  14  17
HETATM   17  O           1     -22.107  -4.480 -12.300  0.00  0.00    -0.361 OA
HETATM   18  H           1     -21.537  -3.855 -12.780  0.00  0.00     0.217 HD
ENDBRANCH  14  17
ENDBRANCH  10  11
ENDBRANCH   5  10
ENDBRANCH   2   5
BRANCH   3  19
HETATM   19  C           1     -21.729  -7.593  -3.548  0.00  0.00     0.210 C 
BRANCH  19  20
HETATM   20  C           1     -21.691  -6.917  -2.200  0.00  0.00     0.198 C 
HETATM   21  O           1     -22.249  -5.811  -2.038  0.00  0.00    -0.646 OA
HETATM   22  O           1     -21.099  -7.464  -1.244  0.00  0.00    -0.646 OA
ENDBRANCH  19  20
BRANCH  19  23
HETATM   23  C           1     -21.331  -9.054  -3.396  0.00  0.00     0.217 C 
BRANCH  23  24
HETATM   24  O           1     -21.628  -9.745  -4.579  0.00  0.00    -0.287 OA
BRANCH  24  25
HETATM   25  P           1     -20.379 -10.456  -5.317  0.00  0.00     0.406 P 
HETATM   26  O           1     -19.744 -11.422  -4.393  0.00  0.00    -0.624 OA
HETATM   27  O           1     -19.390  -9.428  -5.711  0.00  0.00    -0.624 OA
BRANCH  25  28
HETATM   28  O           1     -20.903 -11.233  -6.631  0.00  0.00    -0.300 OA
HETATM   29  H           1     -21.247 -10.559  -7.192  0.00  0.00     0.223 HD
ENDBRANCH  25  28
ENDBRANCH  24  25
ENDBRANCH  23  24
ENDBRANCH  19  23
ENDBRANCH   3  19
TORSDOF 11
ENDMDL
MODEL 9
REMARK VINA RESULT:      -6.4     12.983     15.159
REMARK  11 active torsions:
REMARK  status: ('A' for Active; 'I' for Inactive)
REMARK    1  A    between atoms: N_4  and  C_7 
REMARK    2  A    between atoms: P_6  and  O_14 
REMARK    3  A    between atoms: P_6  and  O_16 
REMARK    4  A    between atoms: C_7  and  C_8 
REMARK    5  A    between atoms: C_7  and  C_15 
REMARK       I    between atoms: C_8  and  N_9 
REMARK    6  A    between atoms: N_9  and  C_27 
REMARK    7  A    between atoms: C_10  and  C_15 
REMARK    8  A    between atoms: O_14  and  C_28 
REMARK    9  A    between atoms: C_18  and  C_27 
REMARK   10  A    between atoms: O_26  and  C_29 
REMARK   11  A    between atoms: C_27  and  C_28 
ROOT
HETATM    1  H           1     -27.545  -8.302 -19.336  0.00  0.00     0.163 HD
HETATM    2  C           1     -28.341  -6.418 -19.021  0.00  0.00     0.249 C 
HETATM    3  N           1     -27.359  -7.307 -19.367  0.00  0.00    -0.343 N 
HETATM    4  O           1     -28.121  -5.230 -19.059  0.00  0.00    -0.271 OA
ENDROOT
BRANCH   2   5
HETATM    5  C           1     -29.698  -6.921 -18.592  0.00  0.00     0.278 C 
BRANCH   5   6
HETATM    6  N           1     -29.719  -8.418 -18.661  0.00  0.00    -0.066 N 
HETATM    7  H           1     -29.486  -8.726 -19.634  0.00  0.00     0.275 HD
HETATM    8  H           1     -29.013  -8.808 -17.996  0.00  0.00     0.275 HD
HETATM    9  H           1     -30.671  -8.766 -18.405  0.00  0.00     0.275 HD
ENDBRANCH   5   6
BRANCH   5  10
HETATM   10  C           1     -29.976  -6.476 -17.162  0.00  0.00     0.081 C 
BRANCH  10  11
HETATM   11  C           1     -31.096  -5.482 -17.156  0.00  0.00    -0.056 A 
HETATM   12  C           1     -30.870  -4.172 -17.578  0.00  0.00     0.010 A 
HETATM   13  C           1     -31.914  -3.248 -17.571  0.00  0.00     0.037 A 
HETATM   14  C           1     -33.183  -3.633 -17.143  0.00  0.00     0.065 A 
HETATM   15  C           1     -33.410  -4.943 -16.720  0.00  0.00     0.037 A 
HETATM   16  C           1     -32.367  -5.867 -16.727  0.00  0.00     0.010 A 
BRANCH  14  17
HETATM   17  O           1     -34.198  -2.734 -17.136  0.00  0.00    -0.361 OA
HETATM   18  H           1     -33.839  -1.875 -17.418  0.00  0.00     0.217 HD
ENDBRANCH  14  17
ENDBRANCH  10  11
ENDBRANCH   5  10
ENDBRANCH   2   5
BRANCH   3  19
HETATM   19  C           1     -26.056  -6.824 -19.780  0.00  0.00     0.210 C 
BRANCH  19  20
HETATM   20  C           1     -25.531  -7.687 -20.900  0.00  0.00     0.198 C 
HETATM   21  O           1     -24.337  -7.589 -21.258  0.00  0.00    -0.646 OA
HETATM   22  O           1     -26.289  -8.500 -21.470  0.00  0.00    -0.646 OA
ENDBRANCH  19  20
BRANCH  19  23
HETATM   23  C           1     -25.096  -6.883 -18.599  0.00  0.00     0.217 C 
BRANCH  23  24
HETATM   24  O           1     -25.626  -6.149 -17.529  0.00  0.00    -0.287 OA
BRANCH  24  25
HETATM   25  P           1     -25.351  -6.748 -16.054  0.00  0.00     0.406 P 
HETATM   26  O           1     -26.580  -7.400 -15.549  0.00  0.00    -0.624 OA
HETATM   27  O           1     -24.964  -5.650 -15.141  0.00  0.00    -0.624 OA
BRANCH  25  28
HETATM   28  O           1     -24.158  -7.834 -16.129  0.00  0.00    -0.300 OA
HETATM   29  H           1     -24.258  -8.359 -15.353  0.00  0.00     0.223 HD
ENDBRANCH  25  28
ENDBRANCH  24  25
ENDBRANCH  23  24
ENDBRANCH  19  23
ENDBRANCH   3  19
TORSDOF 11
ENDMDL
