MODEL 1
REMARK VINA RESULT:      -6.2      0.000      0.000
REMARK  3 active torsions:
REMARK  status: ('A' for Active; 'I' for Inactive)
REMARK    1  A    between atoms: C_2  and  C_12 
REMARK    2  A    between atoms: N_6  and  C_12 
REMARK       I    between atoms: N_6  and  C_7 
REMARK    3  A    between atoms: C_7  and  C_10 
ROOT
HETATM    1  H           1     -33.709  -1.187 -12.831  0.00  0.00     0.163 HD
HETATM    2  N           1     -34.711  -1.069 -12.765  0.00  0.00    -0.345 N 
HETATM    3  C           1     -35.420  -1.750 -11.812  0.00  0.00     0.251 C 
HETATM    4  O           1     -36.617  -1.608 -11.733  0.00  0.00    -0.271 OA
ENDROOT
BRANCH   3   5
HETATM    5  C           1     -34.706  -2.679 -10.862  0.00  0.00     0.311 C 
HETATM    6  N           1     -35.236  -4.035 -10.964  0.00  0.00     0.097 N 
HETATM    7  H           1     -34.961  -4.593 -10.156  0.00  0.00     0.317 HD
HETATM    8  C           1     -34.624  -4.590 -12.168  0.00  0.00     0.271 C 
HETATM    9  C           1     -33.192  -4.085 -12.114  0.00  0.00     0.033 C 
HETATM   10  C           1     -33.245  -2.831 -11.249  0.00  0.00     0.047 C 
ENDBRANCH   3   5
BRANCH   2  11
HETATM   11  C           1     -35.398  -0.176 -13.678  0.00  0.00     0.181 C 
HETATM   12  C           1     -34.645   1.145 -13.762  0.00  0.00     0.043 C 
BRANCH  11  13
HETATM   13  C           1     -35.457  -0.807 -15.048  0.00  0.00     0.196 C 
HETATM   14  O           1     -35.879  -0.147 -16.023  0.00  0.00    -0.646 OA
HETATM   15  O           1     -35.084  -1.990 -15.208  0.00  0.00    -0.646 OA
ENDBRANCH  11  13
ENDBRANCH   2  11
TORSDOF 3
ENDMDL
MODEL 2
REMARK VINA RESULT:      -6.1      1.466      2.050
REMARK  3 active torsions:
REMARK  status: ('A' for Active; 'I' for Inactive)
REMARK    1  A    between atoms: C_2  and  C_12 
REMARK    2  A    between atoms: N_6  and  C_12 
REMARK       I    between atoms: N_6  and  C_7 
REMARK    3  A    between atoms: C_7  and  C_10 
ROOT
HETATM    1  H           1     -34.379  -1.793 -13.575  0.00  0.00     0.163 HD
HETATM    2  N           1     -34.619  -1.340 -12.703  0.00  0.00    -0.345 N 
HETATM    3  C           1     -34.203  -1.877 -11.514  0.00  0.00     0.251 C 
HETATM    4  O           1     -34.489  -1.336 -10.474  0.00  0.00    -0.271 OA
ENDROOT
BRANCH   3   5
HETATM    5  C           1     -33.386  -3.146 -11.505  0.00  0.00     0.311 C 
HETATM    6  N           1     -33.805  -4.025 -10.417  0.00  0.00     0.097 N 
HETATM    7  H           1     -33.098  -4.738 -10.236  0.00  0.00     0.317 HD
HETATM    8  C           1     -35.028  -4.663 -10.897  0.00  0.00     0.271 C 
HETATM    9  C           1     -34.733  -4.962 -12.357  0.00  0.00     0.033 C 
HETATM   10  C           1     -33.649  -3.968 -12.756  0.00  0.00     0.047 C 
ENDBRANCH   3   5
BRANCH   2  11
HETATM   11  C           1     -35.403  -0.121 -12.712  0.00  0.00     0.181 C 
HETATM   12  C           1     -34.921   0.787 -13.835  0.00  0.00     0.043 C 
BRANCH  11  13
HETATM   13  C           1     -36.857  -0.461 -12.931  0.00  0.00     0.196 C 
HETATM   14  O           1     -37.262  -0.768 -14.073  0.00  0.00    -0.646 OA
HETATM   15  O           1     -37.657  -0.435 -11.970  0.00  0.00    -0.646 OA
ENDBRANCH  11  13
ENDBRANCH   2  11
TORSDOF 3
ENDMDL
MODEL 3
REMARK VINA RESULT:      -6.0      1.916      4.753
REMARK  3 active torsions:
REMARK  status: ('A' for Active; 'I' for Inactive)
REMARK    1  A    between atoms: C_2  and  C_12 
REMARK    2  A    between atoms: N_6  and  C_12 
REMARK       I    between atoms: N_6  and  C_7 
REMARK    3  A    between atoms: C_7  and  C_10 
ROOT
HETATM    1  H           1     -34.850  -2.162 -11.298  0.00  0.00     0.163 HD
HETATM    2  N           1     -34.686  -2.480 -12.243  0.00  0.00    -0.345 N 
HETATM    3  C           1     -35.195  -1.774 -13.301  0.00  0.00     0.251 C 
HETATM    4  O           1     -34.999  -2.154 -14.431  0.00  0.00    -0.271 OA
ENDROOT
BRANCH   3   5
HETATM    5  C           1     -36.002  -0.524 -13.055  0.00  0.00     0.311 C 
HETATM    6  N           1     -35.170   0.525 -12.471  0.00  0.00     0.097 N 
HETATM    7  H           1     -35.748   1.256 -12.057  0.00  0.00     0.317 HD
HETATM    8  C           1     -34.418   1.078 -13.594  0.00  0.00     0.271 C 
HETATM    9  C           1     -35.434   1.129 -14.722  0.00  0.00     0.033 C 
HETATM   10  C           1     -36.480   0.080 -14.364  0.00  0.00     0.047 C 
ENDBRANCH   3   5
BRANCH   2  11
HETATM   11  C           1     -33.911  -3.682 -12.481  0.00  0.00     0.181 C 
HETATM   12  C           1     -32.668  -3.668 -11.600  0.00  0.00     0.043 C 
BRANCH  11  13
HETATM   13  C           1     -34.748  -4.893 -12.149  0.00  0.00     0.196 C 
HETATM   14  O           1     -34.950  -5.205 -10.955  0.00  0.00    -0.646 OA
HETATM   15  O           1     -35.240  -5.584 -13.068  0.00  0.00    -0.646 OA
ENDBRANCH  11  13
ENDBRANCH   2  11
TORSDOF 3
ENDMDL
MODEL 4
REMARK VINA RESULT:      -5.7     12.881     14.004
REMARK  3 active torsions:
REMARK  status: ('A' for Active; 'I' for Inactive)
REMARK    1  A    between atoms: C_2  and  C_12 
REMARK    2  A    between atoms: N_6  and  C_12 
REMARK       I    between atoms: N_6  and  C_7 
REMARK    3  A    between atoms: C_7  and  C_10 
ROOT
HETATM    1  H           1     -21.723  -5.382 -10.175  0.00  0.00     0.163 HD
HETATM    2  N           1     -22.008  -4.532  -9.707  0.00  0.00    -0.345 N 
HETATM    3  C           1     -21.924  -4.439  -8.344  0.00  0.00     0.251 C 
HETATM    4  O           1     -22.263  -3.423  -7.786  0.00  0.00    -0.271 OA
ENDROOT
BRANCH   3   5
HETATM    5  C           1     -21.409  -5.607  -7.539  0.00  0.00     0.311 C 
HETATM    6  N           1     -20.000  -5.856  -7.828  0.00  0.00     0.097 N 
HETATM    7  H           1     -19.724  -6.785  -7.510  0.00  0.00     0.317 HD
HETATM    8  C           1     -19.273  -4.845  -7.065  0.00  0.00     0.271 C 
HETATM    9  C           1     -20.019  -4.782  -5.743  0.00  0.00     0.033 C 
HETATM   10  C           1     -21.423  -5.289  -6.053  0.00  0.00     0.047 C 
ENDBRANCH   3   5
BRANCH   2  11
HETATM   11  C           1     -22.502  -3.410 -10.481  0.00  0.00     0.181 C 
HETATM   12  C           1     -21.478  -3.032 -11.543  0.00  0.00     0.043 C 
BRANCH  11  13
HETATM   13  C           1     -23.800  -3.794 -11.149  0.00  0.00     0.196 C 
HETATM   14  O           1     -23.791  -4.558 -12.139  0.00  0.00    -0.646 OA
HETATM   15  O           1     -24.884  -3.348 -10.713  0.00  0.00    -0.646 OA
ENDBRANCH  11  13
ENDBRANCH   2  11
TORSDOF 3
ENDMDL
MODEL 5
REMARK VINA RESULT:      -5.7      1.877      4.823
REMARK  3 active torsions:
REMARK  status: ('A' for Active; 'I' for Inactive)
REMARK    1  A    between atoms: C_2  and  C_12 
REMARK    2  A    between atoms: N_6  and  C_12 
REMARK       I    between atoms: N_6  and  C_7 
REMARK    3  A    between atoms: C_7  and  C_10 
ROOT
HETATM    1  H           1     -33.895  -1.364 -13.660  0.00  0.00     0.163 HD
HETATM    2  N           1     -34.770  -1.525 -13.181  0.00  0.00    -0.345 N 
HETATM    3  C           1     -35.892  -0.833 -13.552  0.00  0.00     0.251 C 
HETATM    4  O           1     -36.938  -1.026 -12.979  0.00  0.00    -0.271 OA
ENDROOT
BRANCH   3   5
HETATM    5  C           1     -35.821   0.170 -14.676  0.00  0.00     0.311 C 
HETATM    6  N           1     -34.871  -0.261 -15.698  0.00  0.00     0.097 N 
HETATM    7  H           1     -34.617   0.517 -16.306  0.00  0.00     0.317 HD
HETATM    8  C           1     -35.585  -1.271 -16.474  0.00  0.00     0.271 C 
HETATM    9  C           1     -36.990  -0.708 -16.599  0.00  0.00     0.033 C 
HETATM   10  C           1     -37.144   0.245 -15.420  0.00  0.00     0.047 C 
ENDBRANCH   3   5
BRANCH   2  11
HETATM   11  C           1     -34.839  -2.490 -12.100  0.00  0.00     0.181 C 
HETATM   12  C           1     -33.900  -3.652 -12.395  0.00  0.00     0.043 C 
BRANCH  11  13
HETATM   13  C           1     -34.425  -1.827 -10.809  0.00  0.00     0.196 C 
HETATM   14  O           1     -35.291  -1.321 -10.061  0.00  0.00    -0.646 OA
HETATM   15  O           1     -33.218  -1.783 -10.487  0.00  0.00    -0.646 OA
ENDBRANCH  11  13
ENDBRANCH   2  11
TORSDOF 3
ENDMDL
MODEL 6
REMARK VINA RESULT:      -5.7     12.754     13.955
REMARK  3 active torsions:
REMARK  status: ('A' for Active; 'I' for Inactive)
REMARK    1  A    between atoms: C_2  and  C_12 
REMARK    2  A    between atoms: N_6  and  C_12 
REMARK       I    between atoms: N_6  and  C_7 
REMARK    3  A    between atoms: C_7  and  C_10 
ROOT
HETATM    1  H           1     -22.821  -3.240  -9.051  0.00  0.00     0.163 HD
HETATM    2  N           1     -22.269  -3.802  -9.685  0.00  0.00    -0.345 N 
HETATM    3  C           1     -20.984  -4.143  -9.357  0.00  0.00     0.251 C 
HETATM    4  O           1     -20.325  -4.814 -10.115  0.00  0.00    -0.271 OA
ENDROOT
BRANCH   3   5
HETATM    5  C           1     -20.391  -3.678  -8.050  0.00  0.00     0.311 C 
HETATM    6  N           1     -21.376  -3.760  -6.975  0.00  0.00     0.097 N 
HETATM    7  H           1     -21.081  -3.206  -6.171  0.00  0.00     0.317 HD
HETATM    8  C           1     -21.412  -5.172  -6.604  0.00  0.00     0.271 C 
HETATM    9  C           1     -19.955  -5.598  -6.650  0.00  0.00     0.033 C 
HETATM   10  C           1     -19.281  -4.612  -7.597  0.00  0.00     0.047 C 
ENDBRANCH   3   5
BRANCH   2  11
HETATM   11  C           1     -22.839  -4.248 -10.942  0.00  0.00     0.181 C 
HETATM   12  C           1     -23.780  -5.418 -10.687  0.00  0.00     0.043 C 
BRANCH  11  13
HETATM   13  C           1     -23.607  -3.114 -11.575  0.00  0.00     0.196 C 
HETATM   14  O           1     -23.007  -2.258 -12.260  0.00  0.00    -0.646 OA
HETATM   15  O           1     -24.845  -3.031 -11.415  0.00  0.00    -0.646 OA
ENDBRANCH  11  13
ENDBRANCH   2  11
TORSDOF 3
ENDMDL
MODEL 7
REMARK VINA RESULT:      -5.6      9.740     11.005
REMARK  3 active torsions:
REMARK  status: ('A' for Active; 'I' for Inactive)
REMARK    1  A    between atoms: C_2  and  C_12 
REMARK    2  A    between atoms: N_6  and  C_12 
REMARK       I    between atoms: N_6  and  C_7 
REMARK    3  A    between atoms: C_7  and  C_10 
ROOT
HETATM    1  H           1     -27.883  -8.432 -19.151  0.00  0.00     0.163 HD
HETATM    2  N           1     -27.769  -7.443 -19.327  0.00  0.00    -0.345 N 
HETATM    3  C           1     -28.583  -6.537 -18.700  0.00  0.00     0.251 C 
HETATM    4  O           1     -28.447  -5.356 -18.910  0.00  0.00    -0.271 OA
ENDROOT
BRANCH   3   5
HETATM    5  C           1     -29.650  -7.016 -17.747  0.00  0.00     0.311 C 
HETATM    6  N           1     -29.132  -8.063 -16.870  0.00  0.00     0.097 N 
HETATM    7  H           1     -29.896  -8.572 -16.425  0.00  0.00     0.317 HD
HETATM    8  C           1     -28.362  -7.354 -15.852  0.00  0.00     0.271 C 
HETATM    9  C           1     -29.205  -6.129 -15.545  0.00  0.00     0.033 C 
HETATM   10  C           1     -30.058  -5.910 -16.789  0.00  0.00     0.047 C 
ENDBRANCH   3   5
BRANCH   2  11
HETATM   11  C           1     -26.743  -6.982 -20.242  0.00  0.00     0.181 C 
HETATM   12  C           1     -25.476  -6.653 -19.463  0.00  0.00     0.043 C 
BRANCH  11  13
HETATM   13  C           1     -26.445  -8.066 -21.249  0.00  0.00     0.196 C 
HETATM   14  O           1     -27.342  -8.871 -21.584  0.00  0.00    -0.646 OA
HETATM   15  O           1     -25.303  -8.160 -21.748  0.00  0.00    -0.646 OA
ENDBRANCH  11  13
ENDBRANCH   2  11
TORSDOF 3
ENDMDL
MODEL 8
REMARK VINA RESULT:      -5.4     13.391     14.891
REMARK  3 active torsions:
REMARK  status: ('A' for Active; 'I' for Inactive)
REMARK    1  A    between atoms: C_2  and  C_12 
REMARK    2  A    between atoms: N_6  and  C_12 
REMARK       I    between atoms: N_6  and  C_7 
REMARK    3  A    between atoms: C_7  and  C_10 
ROOT
HETATM    1  H           1     -21.925  -3.985  -8.360  0.00  0.00     0.163 HD
HETATM    2  N           1     -21.152  -4.459  -8.808  0.00  0.00    -0.345 N 
HETATM    3  C           1     -20.937  -4.303 -10.151  0.00  0.00     0.251 C 
HETATM    4  O           1     -20.014  -4.869 -10.685  0.00  0.00    -0.271 OA
ENDROOT
BRANCH   3   5
HETATM    5  C           1     -21.856  -3.425 -10.964  0.00  0.00     0.311 C 
HETATM    6  N           1     -22.347  -4.136 -12.141  0.00  0.00     0.097 N 
HETATM    7  H           1     -22.735  -3.483 -12.822  0.00  0.00     0.317 HD
HETATM    8  C           1     -23.410  -5.004 -11.641  0.00  0.00     0.271 C 
HETATM    9  C           1     -24.139  -4.139 -10.627  0.00  0.00     0.033 C 
HETATM   10  C           1     -23.119  -3.096 -10.186  0.00  0.00     0.047 C 
ENDBRANCH   3   5
BRANCH   2  11
HETATM   11  C           1     -20.268  -5.303  -8.027  0.00  0.00     0.181 C 
HETATM   12  C           1     -19.161  -4.454  -7.417  0.00  0.00     0.043 C 
BRANCH  11  13
HETATM   13  C           1     -21.055  -5.969  -6.924  0.00  0.00     0.196 C 
HETATM   14  O           1     -21.982  -5.350  -6.356  0.00  0.00    -0.646 OA
HETATM   15  O           1     -20.781  -7.138  -6.578  0.00  0.00    -0.646 OA
ENDBRANCH  11  13
ENDBRANCH   2  11
TORSDOF 3
ENDMDL
MODEL 9
REMARK VINA RESULT:      -5.2      2.544      5.014
REMARK  3 active torsions:
REMARK  status: ('A' for Active; 'I' for Inactive)
REMARK    1  A    between atoms: C_2  and  C_12 
REMARK    2  A    between atoms: N_6  and  C_12 
REMARK       I    between atoms: N_6  and  C_7 
REMARK    3  A    between atoms: C_7  and  C_10 
ROOT
HETATM    1  H           1     -35.080   0.204 -12.316  0.00  0.00     0.163 HD
HETATM    2  N           1     -35.984  -0.249 -12.339  0.00  0.00    -0.345 N 
HETATM    3  C           1     -36.750  -0.192 -13.473  0.00  0.00     0.251 C 
HETATM    4  O           1     -37.830  -0.733 -13.500  0.00  0.00    -0.271 OA
ENDROOT
BRANCH   3   5
HETATM    5  C           1     -36.245   0.548 -14.687  0.00  0.00     0.311 C 
HETATM    6  N           1     -34.974  -0.007 -15.142  0.00  0.00     0.097 N 
HETATM    7  H           1     -34.501   0.641 -15.772  0.00  0.00     0.317 HD
HETATM    8  C           1     -35.331  -1.221 -15.872  0.00  0.00     0.271 C 
HETATM    9  C           1     -36.576  -0.825 -16.647  0.00  0.00     0.033 C 
HETATM   10  C           1     -37.175   0.343 -15.871  0.00  0.00     0.047 C 
ENDBRANCH   3   5
BRANCH   2  11
HETATM   11  C           1     -36.470  -0.960 -11.172  0.00  0.00     0.181 C 
HETATM   12  C           1     -35.373  -1.873 -10.640  0.00  0.00     0.043 C 
BRANCH  11  13
HETATM   13  C           1     -36.858   0.034 -10.105  0.00  0.00     0.196 C 
HETATM   14  O           1     -37.815   0.815 -10.297  0.00  0.00    -0.646 OA
HETATM   15  O           1     -36.223   0.075  -9.028  0.00  0.00    -0.646 OA
ENDBRANCH  11  13
ENDBRANCH   2  11
TORSDOF 3
ENDMDL
