MODEL 1
REMARK VINA RESULT:      -5.5      0.000      0.000
REMARK  3 active torsions:
REMARK  status: ('A' for Active; 'I' for Inactive)
REMARK    1  A    between atoms: C_5  and  C_6 
REMARK    2  A    between atoms: C_6  and  N_14 
REMARK       I    between atoms: N_14  and  C_15 
REMARK    3  A    between atoms: C_15  and  C_16 
ROOT
HETATM    1  H           1     -19.475  -3.929  -9.025  0.00  0.00     0.275 HD
HETATM    2  H           1     -19.063  -5.522  -8.572  0.00  0.00     0.275 HD
HETATM    3  H           1     -20.654  -5.163  -9.075  0.00  0.00     0.275 HD
HETATM    4  N           1     -19.819  -4.801  -8.562  0.00  0.00    -0.067 N 
HETATM    5  C           1     -23.802  -4.974 -10.237  0.00  0.00     0.000 C 
HETATM    6 Se           1     -22.023  -4.367  -9.719  0.00  0.00     0.000 Se
HETATM    7  C           1     -20.198  -4.496  -7.142  0.00  0.00     0.274 C 
HETATM    8  C           1     -21.300  -3.445  -7.126  0.00  0.00     0.042 C 
HETATM    9  C           1     -22.516  -3.971  -7.876  0.00  0.00     0.003 C 
ENDROOT
BRANCH   7  10
HETATM   10  C           1     -20.694  -5.755  -6.474  0.00  0.00     0.249 C 
HETATM   11  O           1     -21.054  -6.693  -7.144  0.00  0.00    -0.271 OA
HETATM   12  N           1     -20.738  -5.834  -5.108  0.00  0.00    -0.345 N 
HETATM   13  H           1     -20.437  -5.047  -4.546  0.00  0.00     0.163 HD
BRANCH  12  14
HETATM   14  C           1     -21.215  -7.043  -4.466  0.00  0.00     0.181 C 
HETATM   15  C           1     -20.127  -8.107  -4.513  0.00  0.00     0.043 C 
BRANCH  14  16
HETATM   16  C           1     -21.565  -6.744  -3.029  0.00  0.00     0.196 C 
HETATM   17  O           1     -20.924  -7.288  -2.103  0.00  0.00    -0.646 OA
HETATM   18  O           1     -22.496  -5.953  -2.764  0.00  0.00    -0.646 OA
ENDBRANCH  14  16
ENDBRANCH  12  14
ENDBRANCH   7  10
TORSDOF 3
ENDMDL
MODEL 2
REMARK VINA RESULT:      -4.9      3.594      6.024
REMARK  3 active torsions:
REMARK  status: ('A' for Active; 'I' for Inactive)
REMARK    1  A    between atoms: C_5  and  C_6 
REMARK    2  A    between atoms: C_6  and  N_14 
REMARK       I    between atoms: N_14  and  C_15 
REMARK    3  A    between atoms: C_15  and  C_16 
ROOT
HETATM    1  H           1     -21.958  -8.436  -0.033  0.00  0.00     0.275 HD
HETATM    2  H           1     -22.966  -7.202  -0.643  0.00  0.00     0.275 HD
HETATM    3  H           1     -22.715  -8.625  -1.551  0.00  0.00     0.275 HD
HETATM    4  N           1     -22.272  -7.940  -0.898  0.00  0.00    -0.067 N 
HETATM    5  C           1     -22.719 -11.334  -3.540  0.00  0.00     0.000 C 
HETATM    6 Se           1     -22.259 -10.205  -2.020  0.00  0.00     0.000 Se
HETATM    7  C           1     -21.089  -7.303  -1.567  0.00  0.00     0.274 C 
HETATM    8  C           1     -20.077  -8.379  -1.939  0.00  0.00     0.042 C 
HETATM    9  C           1     -20.723  -9.378  -2.889  0.00  0.00     0.003 C 
ENDROOT
BRANCH   7  10
HETATM   10  C           1     -21.545  -6.588  -2.815  0.00  0.00     0.249 C 
HETATM   11  O           1     -22.648  -6.100  -2.864  0.00  0.00    -0.271 OA
HETATM   12  N           1     -20.707  -6.493  -3.895  0.00  0.00    -0.345 N 
HETATM   13  H           1     -19.782  -6.903  -3.854  0.00  0.00     0.163 HD
BRANCH  12  14
HETATM   14  C           1     -21.145  -5.807  -5.095  0.00  0.00     0.181 C 
HETATM   15  C           1     -20.203  -4.646  -5.387  0.00  0.00     0.043 C 
BRANCH  14  16
HETATM   16  C           1     -21.134  -6.770  -6.256  0.00  0.00     0.196 C 
HETATM   17  O           1     -21.311  -7.992  -6.056  0.00  0.00    -0.646 OA
HETATM   18  O           1     -20.948  -6.347  -7.417  0.00  0.00    -0.646 OA
ENDBRANCH  14  16
ENDBRANCH  12  14
ENDBRANCH   7  10
TORSDOF 3
ENDMDL
MODEL 3
REMARK VINA RESULT:      -4.8      4.631      7.145
REMARK  3 active torsions:
REMARK  status: ('A' for Active; 'I' for Inactive)
REMARK    1  A    between atoms: C_5  and  C_6 
REMARK    2  A    between atoms: C_6  and  N_14 
REMARK       I    between atoms: N_14  and  C_15 
REMARK    3  A    between atoms: C_15  and  C_16 
ROOT
HETATM    1  H           1     -23.442  -7.896   0.912  0.00  0.00     0.275 HD
HETATM    2  H           1     -23.297  -6.985  -0.523  0.00  0.00     0.275 HD
HETATM    3  H           1     -23.388  -8.688  -0.599  0.00  0.00     0.275 HD
HETATM    4  N           1     -23.029  -7.876  -0.048  0.00  0.00    -0.067 N 
HETATM    5  C           1     -23.797 -11.962  -1.238  0.00  0.00     0.000 C 
HETATM    6 Se           1     -23.609 -10.332  -0.186  0.00  0.00     0.000 Se
HETATM    7  C           1     -21.534  -7.959   0.048  0.00  0.00     0.274 C 
HETATM    8  C           1     -21.142  -9.258   0.741  0.00  0.00     0.042 C 
HETATM    9  C           1     -21.668 -10.441  -0.061  0.00  0.00     0.003 C 
ENDROOT
BRANCH   7  10
HETATM   10  C           1     -20.940  -7.930  -1.338  0.00  0.00     0.249 C 
HETATM   11  O           1     -19.769  -8.179  -1.500  0.00  0.00    -0.271 OA
HETATM   12  N           1     -21.727  -7.620  -2.415  0.00  0.00    -0.345 N 
HETATM   13  H           1     -22.709  -7.410  -2.279  0.00  0.00     0.163 HD
BRANCH  12  14
HETATM   14  C           1     -21.157  -7.590  -3.747  0.00  0.00     0.181 C 
HETATM   15  C           1     -21.601  -8.827  -4.517  0.00  0.00     0.043 C 
BRANCH  14  16
HETATM   16  C           1     -21.628  -6.352  -4.468  0.00  0.00     0.196 C 
HETATM   17  O           1     -20.838  -5.403  -4.663  0.00  0.00    -0.646 OA
HETATM   18  O           1     -22.809  -6.273  -4.870  0.00  0.00    -0.646 OA
ENDBRANCH  14  16
ENDBRANCH  12  14
ENDBRANCH   7  10
TORSDOF 3
ENDMDL
MODEL 4
REMARK VINA RESULT:      -4.6      6.562      8.729
REMARK  3 active torsions:
REMARK  status: ('A' for Active; 'I' for Inactive)
REMARK    1  A    between atoms: C_5  and  C_6 
REMARK    2  A    between atoms: C_6  and  N_14 
REMARK       I    between atoms: N_14  and  C_15 
REMARK    3  A    between atoms: C_15  and  C_16 
ROOT
HETATM    1  H           1     -22.218 -12.936  -2.573  0.00  0.00     0.275 HD
HETATM    2  H           1     -22.568 -11.306  -2.936  0.00  0.00     0.275 HD
HETATM    3  H           1     -21.342 -11.686  -1.810  0.00  0.00     0.275 HD
HETATM    4  N           1     -22.277 -11.968  -2.182  0.00  0.00    -0.067 N 
HETATM    5  C           1     -18.698 -11.966   0.246  0.00  0.00     0.000 C 
HETATM    6 Se           1     -20.189 -12.533  -0.874  0.00  0.00     0.000 Se
HETATM    7  C           1     -23.287 -11.937  -1.073  0.00  0.00     0.274 C 
HETATM    8  C           1     -22.863 -12.903   0.026  0.00  0.00     0.042 C 
HETATM    9  C           1     -21.500 -12.493   0.567  0.00  0.00     0.003 C 
ENDROOT
BRANCH   7  10
HETATM   10  C           1     -23.370 -10.540  -0.509  0.00  0.00     0.249 C 
HETATM   11  O           1     -24.285 -10.234   0.217  0.00  0.00    -0.271 OA
HETATM   12  N           1     -22.408  -9.617  -0.822  0.00  0.00    -0.345 N 
HETATM   13  H           1     -21.640  -9.873  -1.431  0.00  0.00     0.163 HD
BRANCH  12  14
HETATM   14  C           1     -22.487  -8.274  -0.282  0.00  0.00     0.181 C 
HETATM   15  C           1     -21.693  -8.201   1.016  0.00  0.00     0.043 C 
BRANCH  14  16
HETATM   16  C           1     -21.915  -7.297  -1.279  0.00  0.00     0.196 C 
HETATM   17  O           1     -22.571  -6.286  -1.611  0.00  0.00    -0.646 OA
HETATM   18  O           1     -20.784  -7.498  -1.773  0.00  0.00    -0.646 OA
ENDBRANCH  14  16
ENDBRANCH  12  14
ENDBRANCH   7  10
TORSDOF 3
ENDMDL
MODEL 5
REMARK VINA RESULT:      -4.6      3.947      6.131
REMARK  3 active torsions:
REMARK  status: ('A' for Active; 'I' for Inactive)
REMARK    1  A    between atoms: C_5  and  C_6 
REMARK    2  A    between atoms: C_6  and  N_14 
REMARK       I    between atoms: N_14  and  C_15 
REMARK    3  A    between atoms: C_15  and  C_16 
ROOT
HETATM    1  H           1     -18.556  -9.466  -2.010  0.00  0.00     0.275 HD
HETATM    2  H           1     -18.347  -8.403  -3.329  0.00  0.00     0.275 HD
HETATM    3  H           1     -19.730  -8.270  -2.336  0.00  0.00     0.275 HD
HETATM    4  N           1     -19.048  -8.935  -2.765  0.00  0.00    -0.067 N 
HETATM    5  C           1     -22.441  -7.478  -0.515  0.00  0.00     0.000 C 
HETATM    6 Se           1     -20.842  -8.455  -1.051  0.00  0.00     0.000 Se
HETATM    7  C           1     -19.780  -9.896  -3.656  0.00  0.00     0.274 C 
HETATM    8  C           1     -20.800 -10.672  -2.834  0.00  0.00     0.042 C 
HETATM    9  C           1     -21.792  -9.702  -2.207  0.00  0.00     0.003 C 
ENDROOT
BRANCH   7  10
HETATM   10  C           1     -20.489  -9.129  -4.745  0.00  0.00     0.249 C 
HETATM   11  O           1     -21.044  -9.722  -5.639  0.00  0.00    -0.271 OA
HETATM   12  N           1     -20.502  -7.760  -4.721  0.00  0.00    -0.345 N 
HETATM   13  H           1     -20.036  -7.263  -3.972  0.00  0.00     0.163 HD
BRANCH  12  14
HETATM   14  C           1     -21.183  -7.023  -5.768  0.00  0.00     0.181 C 
HETATM   15  C           1     -22.398  -6.316  -5.182  0.00  0.00     0.043 C 
BRANCH  14  16
HETATM   16  C           1     -20.241  -6.001  -6.356  0.00  0.00     0.196 C 
HETATM   17  O           1     -19.705  -6.211  -7.466  0.00  0.00    -0.646 OA
HETATM   18  O           1     -19.996  -4.945  -5.734  0.00  0.00    -0.646 OA
ENDBRANCH  14  16
ENDBRANCH  12  14
ENDBRANCH   7  10
TORSDOF 3
ENDMDL
MODEL 6
REMARK VINA RESULT:      -4.5      5.006      7.515
REMARK  3 active torsions:
REMARK  status: ('A' for Active; 'I' for Inactive)
REMARK    1  A    between atoms: C_5  and  C_6 
REMARK    2  A    between atoms: C_6  and  N_14 
REMARK       I    between atoms: N_14  and  C_15 
REMARK    3  A    between atoms: C_15  and  C_16 
ROOT
HETATM    1  H           1     -23.754 -10.029   0.084  0.00  0.00     0.275 HD
HETATM    2  H           1     -23.680  -9.671  -1.583  0.00  0.00     0.275 HD
HETATM    3  H           1     -22.289 -10.236  -0.769  0.00  0.00     0.275 HD
HETATM    4  N           1     -23.151  -9.651  -0.682  0.00  0.00    -0.067 N 
HETATM    5  C           1     -19.409 -11.558   0.350  0.00  0.00     0.000 C 
HETATM    6 Se           1     -21.242 -10.897   0.409  0.00  0.00     0.000 Se
HETATM    7  C           1     -22.764  -8.236  -0.362  0.00  0.00     0.274 C 
HETATM    8  C           1     -21.994  -8.206   0.952  0.00  0.00     0.042 C 
HETATM    9  C           1     -20.740  -9.061   0.825  0.00  0.00     0.003 C 
ENDROOT
BRANCH   7  10
HETATM   10  C           1     -21.895  -7.692  -1.468  0.00  0.00     0.249 C 
HETATM   11  O           1     -21.588  -6.523  -1.475  0.00  0.00    -0.271 OA
HETATM   12  N           1     -21.454  -8.521  -2.464  0.00  0.00    -0.345 N 
HETATM   13  H           1     -21.712  -9.500  -2.458  0.00  0.00     0.163 HD
BRANCH  12  14
HETATM   14  C           1     -20.619  -7.998  -3.528  0.00  0.00     0.181 C 
HETATM   15  C           1     -19.438  -8.932  -3.752  0.00  0.00     0.043 C 
BRANCH  14  16
HETATM   16  C           1     -21.429  -7.896  -4.797  0.00  0.00     0.196 C 
HETATM   17  O           1     -22.329  -7.034  -4.897  0.00  0.00    -0.646 OA
HETATM   18  O           1     -21.199  -8.673  -5.749  0.00  0.00    -0.646 OA
ENDBRANCH  14  16
ENDBRANCH  12  14
ENDBRANCH   7  10
TORSDOF 3
ENDMDL
MODEL 7
REMARK VINA RESULT:      -4.5      5.602      7.819
REMARK  3 active torsions:
REMARK  status: ('A' for Active; 'I' for Inactive)
REMARK    1  A    between atoms: C_5  and  C_6 
REMARK    2  A    between atoms: C_6  and  N_14 
REMARK       I    between atoms: N_14  and  C_15 
REMARK    3  A    between atoms: C_15  and  C_16 
ROOT
HETATM    1  H           1     -24.306 -11.892  -0.930  0.00  0.00     0.275 HD
HETATM    2  H           1     -24.254 -10.252  -1.397  0.00  0.00     0.275 HD
HETATM    3  H           1     -23.106 -11.352  -2.017  0.00  0.00     0.275 HD
HETATM    4  N           1     -23.677 -11.096  -1.180  0.00  0.00    -0.067 N 
HETATM    5  C           1     -20.835 -13.194  -3.676  0.00  0.00     0.000 C 
HETATM    6 Se           1     -22.278 -12.791  -2.428  0.00  0.00     0.000 Se
HETATM    7  C           1     -22.766 -10.795  -0.026  0.00  0.00     0.274 C 
HETATM    8  C           1     -21.926 -12.025   0.290  0.00  0.00     0.042 C 
HETATM    9  C           1     -21.095 -12.401  -0.930  0.00  0.00     0.003 C 
ENDROOT
BRANCH   7  10
HETATM   10  C           1     -21.859  -9.646  -0.390  0.00  0.00     0.249 C 
HETATM   11  O           1     -21.052  -9.235   0.410  0.00  0.00    -0.271 OA
HETATM   12  N           1     -21.950  -9.065  -1.627  0.00  0.00    -0.345 N 
HETATM   13  H           1     -22.627  -9.408  -2.297  0.00  0.00     0.163 HD
BRANCH  12  14
HETATM   14  C           1     -21.079  -7.960  -1.976  0.00  0.00     0.181 C 
HETATM   15  C           1     -20.423  -8.237  -3.322  0.00  0.00     0.043 C 
BRANCH  14  16
HETATM   16  C           1     -21.889  -6.690  -2.063  0.00  0.00     0.196 C 
HETATM   17  O           1     -22.626  -6.353  -1.110  0.00  0.00    -0.646 OA
HETATM   18  O           1     -21.825  -5.976  -3.086  0.00  0.00    -0.646 OA
ENDBRANCH  14  16
ENDBRANCH  12  14
ENDBRANCH   7  10
TORSDOF 3
ENDMDL
MODEL 8
REMARK VINA RESULT:      -4.5      6.113      7.722
REMARK  3 active torsions:
REMARK  status: ('A' for Active; 'I' for Inactive)
REMARK    1  A    between atoms: C_5  and  C_6 
REMARK    2  A    between atoms: C_6  and  N_14 
REMARK       I    between atoms: N_14  and  C_15 
REMARK    3  A    between atoms: C_15  and  C_16 
ROOT
HETATM    1  H           1     -20.866 -12.922  -3.195  0.00  0.00     0.275 HD
HETATM    2  H           1     -19.624 -11.918  -2.593  0.00  0.00     0.275 HD
HETATM    3  H           1     -20.933 -12.353  -1.587  0.00  0.00     0.275 HD
HETATM    4  N           1     -20.650 -12.117  -2.564  0.00  0.00    -0.067 N 
HETATM    5  C           1     -23.153 -13.158   0.805  0.00  0.00     0.000 C 
HETATM    6 Se           1     -22.331 -13.113  -0.962  0.00  0.00     0.000 Se
HETATM    7  C           1     -21.406 -10.905  -3.025  0.00  0.00     0.274 C 
HETATM    8  C           1     -22.900 -11.193  -2.984  0.00  0.00     0.042 C 
HETATM    9  C           1     -23.312 -11.540  -1.559  0.00  0.00     0.003 C 
ENDROOT
BRANCH   7  10
HETATM   10  C           1     -21.092  -9.743  -2.114  0.00  0.00     0.249 C 
HETATM   11  O           1     -20.142  -9.797  -1.370  0.00  0.00    -0.271 OA
HETATM   12  N           1     -21.886  -8.627  -2.130  0.00  0.00    -0.345 N 
HETATM   13  H           1     -22.682  -8.582  -2.753  0.00  0.00     0.163 HD
BRANCH  12  14
HETATM   14  C           1     -21.586  -7.511  -1.254  0.00  0.00     0.181 C 
HETATM   15  C           1     -22.096  -6.221  -1.884  0.00  0.00     0.043 C 
BRANCH  14  16
HETATM   16  C           1     -22.260  -7.722   0.078  0.00  0.00     0.196 C 
HETATM   17  O           1     -23.495  -7.553   0.188  0.00  0.00    -0.646 OA
HETATM   18  O           1     -21.586  -8.067   1.073  0.00  0.00    -0.646 OA
ENDBRANCH  14  16
ENDBRANCH  12  14
ENDBRANCH   7  10
TORSDOF 3
ENDMDL
MODEL 9
REMARK VINA RESULT:      -4.4      5.131      6.313
REMARK  3 active torsions:
REMARK  status: ('A' for Active; 'I' for Inactive)
REMARK    1  A    between atoms: C_5  and  C_6 
REMARK    2  A    between atoms: C_6  and  N_14 
REMARK       I    between atoms: N_14  and  C_15 
REMARK    3  A    between atoms: C_15  and  C_16 
ROOT
HETATM    1  H           1     -17.307 -11.920  -2.673  0.00  0.00     0.275 HD
HETATM    2  H           1     -18.682 -12.071  -1.675  0.00  0.00     0.275 HD
HETATM    3  H           1     -18.867 -11.939  -3.367  0.00  0.00     0.275 HD
HETATM    4  N           1     -18.303 -11.630  -2.543  0.00  0.00    -0.067 N 
HETATM    5  C           1     -19.683 -11.975  -6.628  0.00  0.00     0.000 C 
HETATM    6 Se           1     -18.547 -11.886  -5.046  0.00  0.00     0.000 Se
HETATM    7  C           1     -18.378 -10.137  -2.418  0.00  0.00     0.274 C 
HETATM    8  C           1     -17.824  -9.494  -3.683  0.00  0.00     0.042 C 
HETATM    9  C           1     -18.644  -9.946  -4.884  0.00  0.00     0.003 C 
ENDROOT
BRANCH   7  10
HETATM   10  C           1     -19.816  -9.721  -2.230  0.00  0.00     0.249 C 
HETATM   11  O           1     -20.696 -10.547  -2.281  0.00  0.00    -0.271 OA
HETATM   12  N           1     -20.125  -8.406  -2.004  0.00  0.00    -0.345 N 
HETATM   13  H           1     -19.388  -7.714  -1.962  0.00  0.00     0.163 HD
BRANCH  12  14
HETATM   14  C           1     -21.507  -8.006  -1.824  0.00  0.00     0.181 C 
HETATM   15  C           1     -21.787  -7.801  -0.342  0.00  0.00     0.043 C 
BRANCH  14  16
HETATM   16  C           1     -21.757  -6.717  -2.567  0.00  0.00     0.196 C 
HETATM   17  O           1     -22.560  -5.876  -2.108  0.00  0.00    -0.646 OA
HETATM   18  O           1     -21.161  -6.489  -3.643  0.00  0.00    -0.646 OA
ENDBRANCH  14  16
ENDBRANCH  12  14
ENDBRANCH   7  10
TORSDOF 3
ENDMDL
