MODEL 1
REMARK VINA RESULT:      -7.5      0.000      0.000
REMARK  6 active torsions:
REMARK  status: ('A' for Active; 'I' for Inactive)
REMARK    1  A    between atoms: C_6  and  C_19 
REMARK    2  A    between atoms: C_6  and  C_14 
REMARK    3  A    between atoms: C_9  and  C_21 
REMARK    4  A    between atoms: N_11  and  C_14 
REMARK       I    between atoms: N_11  and  C_21 
REMARK    5  A    between atoms: C_14  and  C_23 
REMARK    6  A    between atoms: C_15  and  O_16 
ROOT
HETATM    1  C           1     -35.169  -1.196 -11.658  0.00  0.00     0.189 C 
ENDROOT
BRANCH   1   2
HETATM    2  C           1     -33.984  -1.799 -10.916  0.00  0.00     0.074 C 
BRANCH   2   3
HETATM    3  C           1     -34.076  -3.293 -10.956  0.00  0.00    -0.056 A 
HETATM    4  C           1     -35.270  -3.927 -10.612  0.00  0.00     0.010 A 
HETATM    5  C           1     -35.356  -5.318 -10.649  0.00  0.00     0.037 A 
HETATM    6  C           1     -34.249  -6.076 -11.031  0.00  0.00     0.065 A 
HETATM    7  C           1     -33.056  -5.441 -11.375  0.00  0.00     0.037 A 
HETATM    8  C           1     -32.969  -4.049 -11.338  0.00  0.00     0.010 A 
BRANCH   6   9
HETATM    9  O           1     -34.333  -7.428 -11.068  0.00  0.00    -0.361 OA
HETATM   10  H           1     -34.570  -7.739 -10.179  0.00  0.00     0.217 HD
ENDBRANCH   6   9
ENDBRANCH   2   3
ENDBRANCH   1   2
BRANCH   1  11
HETATM   11  N           1     -34.762   0.042 -12.293  0.00  0.00    -0.344 N 
HETATM   12  H           1     -34.248   0.736 -11.766  0.00  0.00     0.163 HD
HETATM   13  C           1     -35.071   0.272 -13.606  0.00  0.00     0.251 C 
HETATM   14  O           1     -34.732   1.303 -14.136  0.00  0.00    -0.271 OA
BRANCH  13  15
HETATM   15  C           1     -35.836  -0.764 -14.394  0.00  0.00     0.311 C 
HETATM   16  C           1     -35.633  -0.569 -15.886  0.00  0.00     0.047 C 
HETATM   17  C           1     -36.813   0.280 -16.341  0.00  0.00     0.033 C 
HETATM   18  C           1     -37.635   0.520 -15.085  0.00  0.00     0.271 C 
HETATM   19  N           1     -37.275  -0.594 -14.214  0.00  0.00     0.097 N 
HETATM   20  H           1     -37.778  -1.432 -14.508  0.00  0.00     0.317 HD
ENDBRANCH  13  15
ENDBRANCH   1  11
BRANCH   1  21
HETATM   21  C           1     -36.284  -0.915 -10.682  0.00  0.00     0.197 C 
HETATM   22  O           1     -36.018  -0.542  -9.518  0.00  0.00    -0.646 OA
HETATM   23  O           1     -37.475  -1.056 -11.036  0.00  0.00    -0.646 OA
ENDBRANCH   1  21
TORSDOF 6
ENDMDL
MODEL 2
REMARK VINA RESULT:      -6.9      2.664      5.982
REMARK  6 active torsions:
REMARK  status: ('A' for Active; 'I' for Inactive)
REMARK    1  A    between atoms: C_6  and  C_19 
REMARK    2  A    between atoms: C_6  and  C_14 
REMARK    3  A    between atoms: C_9  and  C_21 
REMARK    4  A    between atoms: N_11  and  C_14 
REMARK       I    between atoms: N_11  and  C_21 
REMARK    5  A    between atoms: C_14  and  C_23 
REMARK    6  A    between atoms: C_15  and  O_16 
ROOT
HETATM    1  C           1     -36.911  -0.767 -11.383  0.00  0.00     0.189 C 
ENDROOT
BRANCH   1   2
HETATM    2  C           1     -37.937   0.213 -10.830  0.00  0.00     0.074 C 
BRANCH   2   3
HETATM    3  C           1     -37.724   0.381  -9.357  0.00  0.00    -0.056 A 
HETATM    4  C           1     -37.204   1.577  -8.860  0.00  0.00     0.010 A 
HETATM    5  C           1     -37.006   1.734  -7.489  0.00  0.00     0.037 A 
HETATM    6  C           1     -37.326   0.696  -6.614  0.00  0.00     0.065 A 
HETATM    7  C           1     -37.845  -0.499  -7.111  0.00  0.00     0.037 A 
HETATM    8  C           1     -38.044  -0.657  -8.483  0.00  0.00     0.010 A 
BRANCH   6   9
HETATM    9  O           1     -37.133   0.848  -5.281  0.00  0.00    -0.361 OA
HETATM   10  H           1     -37.615   0.139  -4.825  0.00  0.00     0.217 HD
ENDBRANCH   6   9
ENDBRANCH   2   3
ENDBRANCH   1   2
BRANCH   1  11
HETATM   11  N           1     -35.730  -0.756 -10.542  0.00  0.00    -0.344 N 
HETATM   12  H           1     -35.562   0.023  -9.917  0.00  0.00     0.163 HD
HETATM   13  C           1     -34.844  -1.798 -10.591  0.00  0.00     0.251 C 
HETATM   14  O           1     -33.860  -1.788  -9.891  0.00  0.00    -0.271 OA
BRANCH  13  15
HETATM   15  C           1     -35.096  -2.959 -11.522  0.00  0.00     0.311 C 
HETATM   16  C           1     -35.004  -4.279 -10.777  0.00  0.00     0.047 C 
HETATM   17  C           1     -33.571  -4.753 -10.984  0.00  0.00     0.033 C 
HETATM   18  C           1     -32.919  -3.682 -11.843  0.00  0.00     0.271 C 
HETATM   19  N           1     -34.044  -3.054 -12.530  0.00  0.00     0.097 N 
HETATM   20  H           1     -34.341  -3.645 -13.308  0.00  0.00     0.317 HD
ENDBRANCH  13  15
ENDBRANCH   1  11
BRANCH   1  21
HETATM   21  C           1     -36.532  -0.361 -12.785  0.00  0.00     0.197 C 
HETATM   22  O           1     -37.077  -0.914 -13.765  0.00  0.00    -0.646 OA
HETATM   23  O           1     -35.673   0.528 -12.969  0.00  0.00    -0.646 OA
ENDBRANCH   1  21
TORSDOF 6
ENDMDL
MODEL 3
REMARK VINA RESULT:      -6.7     15.633     17.783
REMARK  6 active torsions:
REMARK  status: ('A' for Active; 'I' for Inactive)
REMARK    1  A    between atoms: C_6  and  C_19 
REMARK    2  A    between atoms: C_6  and  C_14 
REMARK    3  A    between atoms: C_9  and  C_21 
REMARK    4  A    between atoms: N_11  and  C_14 
REMARK       I    between atoms: N_11  and  C_21 
REMARK    5  A    between atoms: C_14  and  C_23 
REMARK    6  A    between atoms: C_15  and  O_16 
ROOT
HETATM    1  C           1     -20.230  -8.713  -4.429  0.00  0.00     0.189 C 
ENDROOT
BRANCH   1   2
HETATM    2  C           1     -19.698  -8.852  -3.009  0.00  0.00     0.074 C 
BRANCH   2   3
HETATM    3  C           1     -20.800  -8.577  -2.033  0.00  0.00    -0.056 A 
HETATM    4  C           1     -21.097  -7.264  -1.668  0.00  0.00     0.010 A 
HETATM    5  C           1     -22.123  -7.009  -0.759  0.00  0.00     0.037 A 
HETATM    6  C           1     -22.853  -8.066  -0.214  0.00  0.00     0.065 A 
HETATM    7  C           1     -22.555  -9.378  -0.580  0.00  0.00     0.037 A 
HETATM    8  C           1     -21.528  -9.635  -1.489  0.00  0.00     0.010 A 
BRANCH   6   9
HETATM    9  O           1     -23.850  -7.818   0.669  0.00  0.00    -0.361 OA
HETATM   10  H           1     -23.950  -6.855   0.747  0.00  0.00     0.217 HD
ENDBRANCH   6   9
ENDBRANCH   2   3
ENDBRANCH   1   2
BRANCH   1  11
HETATM   11  N           1     -21.466  -7.954  -4.409  0.00  0.00    -0.344 N 
HETATM   12  H           1     -22.279  -8.325  -3.936  0.00  0.00     0.163 HD
HETATM   13  C           1     -21.531  -6.737  -5.031  0.00  0.00     0.251 C 
HETATM   14  O           1     -22.560  -6.105  -5.015  0.00  0.00    -0.271 OA
BRANCH  13  15
HETATM   15  C           1     -20.318  -6.183  -5.736  0.00  0.00     0.311 C 
HETATM   16  C           1     -20.263  -4.671  -5.613  0.00  0.00     0.047 C 
HETATM   17  C           1     -20.925  -4.144  -6.880  0.00  0.00     0.033 C 
HETATM   18  C           1     -21.317  -5.383  -7.666  0.00  0.00     0.271 C 
HETATM   19  N           1     -20.405  -6.411  -7.176  0.00  0.00     0.097 N 
HETATM   20  H           1     -19.491  -6.294  -7.616  0.00  0.00     0.317 HD
ENDBRANCH  13  15
ENDBRANCH   1  11
BRANCH   1  21
HETATM   21  C           1     -20.491 -10.083  -5.005  0.00  0.00     0.197 C 
HETATM   22  O           1     -21.092 -10.198  -6.096  0.00  0.00    -0.646 OA
HETATM   23  O           1     -20.108 -11.103  -4.392  0.00  0.00    -0.646 OA
ENDBRANCH   1  21
TORSDOF 6
ENDMDL
MODEL 4
REMARK VINA RESULT:      -6.5      2.034      5.918
REMARK  6 active torsions:
REMARK  status: ('A' for Active; 'I' for Inactive)
REMARK    1  A    between atoms: C_6  and  C_19 
REMARK    2  A    between atoms: C_6  and  C_14 
REMARK    3  A    between atoms: C_9  and  C_21 
REMARK    4  A    between atoms: N_11  and  C_14 
REMARK       I    between atoms: N_11  and  C_21 
REMARK    5  A    between atoms: C_14  and  C_23 
REMARK    6  A    between atoms: C_15  and  O_16 
ROOT
HETATM    1  C           1     -34.833  -1.267 -11.717  0.00  0.00     0.189 C 
ENDROOT
BRANCH   1   2
HETATM    2  C           1     -34.941   0.120 -12.335  0.00  0.00     0.074 C 
BRANCH   2   3
HETATM    3  C           1     -35.773   0.050 -13.578  0.00  0.00    -0.056 A 
HETATM    4  C           1     -35.155   0.007 -14.828  0.00  0.00     0.010 A 
HETATM    5  C           1     -35.930  -0.058 -15.986  0.00  0.00     0.037 A 
HETATM    6  C           1     -37.322  -0.080 -15.894  0.00  0.00     0.065 A 
HETATM    7  C           1     -37.938  -0.036 -14.644  0.00  0.00     0.037 A 
HETATM    8  C           1     -37.164   0.029 -13.485  0.00  0.00     0.010 A 
BRANCH   6   9
HETATM    9  O           1     -38.075  -0.143 -17.019  0.00  0.00    -0.361 OA
HETATM   10  H           1     -38.648   0.642 -17.041  0.00  0.00     0.217 HD
ENDBRANCH   6   9
ENDBRANCH   2   3
ENDBRANCH   1   2
BRANCH   1  11
HETATM   11  N           1     -35.010  -2.270 -12.749  0.00  0.00    -0.344 N 
HETATM   12  H           1     -35.685  -2.121 -13.488  0.00  0.00     0.163 HD
HETATM   13  C           1     -34.266  -3.418 -12.723  0.00  0.00     0.251 C 
HETATM   14  O           1     -34.414  -4.254 -13.582  0.00  0.00    -0.271 OA
BRANCH  13  15
HETATM   15  C           1     -33.259  -3.641 -11.621  0.00  0.00     0.311 C 
HETATM   16  C           1     -32.345  -4.808 -11.950  0.00  0.00     0.047 C 
HETATM   17  C           1     -32.978  -6.014 -11.268  0.00  0.00     0.033 C 
HETATM   18  C           1     -34.219  -5.473 -10.578  0.00  0.00     0.271 C 
HETATM   19  N           1     -33.922  -4.056 -10.388  0.00  0.00     0.097 N 
HETATM   20  H           1     -33.300  -3.943  -9.587  0.00  0.00     0.317 HD
ENDBRANCH  13  15
ENDBRANCH   1  11
BRANCH   1  21
HETATM   21  C           1     -35.900  -1.435 -10.665  0.00  0.00     0.197 C 
HETATM   22  O           1     -36.245  -0.459  -9.963  0.00  0.00    -0.646 OA
HETATM   23  O           1     -36.440  -2.549 -10.494  0.00  0.00    -0.646 OA
ENDBRANCH   1  21
TORSDOF 6
ENDMDL
MODEL 5
REMARK VINA RESULT:      -6.5      1.391      1.948
REMARK  6 active torsions:
REMARK  status: ('A' for Active; 'I' for Inactive)
REMARK    1  A    between atoms: C_6  and  C_19 
REMARK    2  A    between atoms: C_6  and  C_14 
REMARK    3  A    between atoms: C_9  and  C_21 
REMARK    4  A    between atoms: N_11  and  C_14 
REMARK       I    between atoms: N_11  and  C_21 
REMARK    5  A    between atoms: C_14  and  C_23 
REMARK    6  A    between atoms: C_15  and  O_16 
ROOT
HETATM    1  C           1     -36.432  -0.923 -11.045  0.00  0.00     0.189 C 
ENDROOT
BRANCH   1   2
HETATM    2  C           1     -35.783  -1.805  -9.988  0.00  0.00     0.074 C 
BRANCH   2   3
HETATM    3  C           1     -34.770  -2.698 -10.635  0.00  0.00    -0.056 A 
HETATM    4  C           1     -33.431  -2.309 -10.690  0.00  0.00     0.010 A 
HETATM    5  C           1     -32.488  -3.140 -11.293  0.00  0.00     0.037 A 
HETATM    6  C           1     -32.882  -4.361 -11.841  0.00  0.00     0.065 A 
HETATM    7  C           1     -34.221  -4.749 -11.786  0.00  0.00     0.037 A 
HETATM    8  C           1     -35.165  -3.918 -11.183  0.00  0.00     0.010 A 
BRANCH   6   9
HETATM    9  O           1     -31.966  -5.170 -12.427  0.00  0.00    -0.361 OA
HETATM   10  H           1     -31.652  -5.801 -11.760  0.00  0.00     0.217 HD
ENDBRANCH   6   9
ENDBRANCH   2   3
ENDBRANCH   1   2
BRANCH   1  11
HETATM   11  N           1     -35.447   0.000 -11.574  0.00  0.00    -0.344 N 
HETATM   12  H           1     -34.815   0.480 -10.946  0.00  0.00     0.163 HD
HETATM   13  C           1     -35.371   0.222 -12.923  0.00  0.00     0.251 C 
HETATM   14  O           1     -34.551   0.991 -13.364  0.00  0.00    -0.271 OA
BRANCH  13  15
HETATM   15  C           1     -36.312  -0.495 -13.859  0.00  0.00     0.311 C 
HETATM   16  C           1     -35.543  -1.248 -14.930  0.00  0.00     0.047 C 
HETATM   17  C           1     -35.486  -0.299 -16.121  0.00  0.00     0.033 C 
HETATM   18  C           1     -36.234   0.945 -15.672  0.00  0.00     0.271 C 
HETATM   19  N           1     -37.118   0.459 -14.617  0.00  0.00     0.097 N 
HETATM   20  H           1     -37.926  -0.002 -15.036  0.00  0.00     0.317 HD
ENDBRANCH  13  15
ENDBRANCH   1  11
BRANCH   1  21
HETATM   21  C           1     -37.566  -0.145 -10.425  0.00  0.00     0.197 C 
HETATM   22  O           1     -38.072   0.819 -11.039  0.00  0.00    -0.646 OA
HETATM   23  O           1     -38.000  -0.464  -9.296  0.00  0.00    -0.646 OA
ENDBRANCH   1  21
TORSDOF 6
ENDMDL
MODEL 6
REMARK VINA RESULT:      -6.3     15.374     18.311
REMARK  6 active torsions:
REMARK  status: ('A' for Active; 'I' for Inactive)
REMARK    1  A    between atoms: C_6  and  C_19 
REMARK    2  A    between atoms: C_6  and  C_14 
REMARK    3  A    between atoms: C_9  and  C_21 
REMARK    4  A    between atoms: N_11  and  C_14 
REMARK       I    between atoms: N_11  and  C_21 
REMARK    5  A    between atoms: C_14  and  C_23 
REMARK    6  A    between atoms: C_15  and  O_16 
ROOT
HETATM    1  C           1     -21.423  -7.212  -4.120  0.00  0.00     0.189 C 
ENDROOT
BRANCH   1   2
HETATM    2  C           1     -22.417  -6.384  -4.921  0.00  0.00     0.074 C 
BRANCH   2   3
HETATM    3  C           1     -21.698  -5.663  -6.019  0.00  0.00    -0.056 A 
HETATM    4  C           1     -20.322  -5.828  -6.177  0.00  0.00     0.010 A 
HETATM    5  C           1     -19.652  -5.156  -7.199  0.00  0.00     0.037 A 
HETATM    6  C           1     -20.358  -4.319  -8.063  0.00  0.00     0.065 A 
HETATM    7  C           1     -21.734  -4.154  -7.904  0.00  0.00     0.037 A 
HETATM    8  C           1     -22.404  -4.826  -6.882  0.00  0.00     0.010 A 
BRANCH   6   9
HETATM    9  O           1     -19.707  -3.665  -9.057  0.00  0.00    -0.361 OA
HETATM   10  H           1     -20.116  -2.790  -9.158  0.00  0.00     0.217 HD
ENDBRANCH   6   9
ENDBRANCH   2   3
ENDBRANCH   1   2
BRANCH   1  11
HETATM   11  N           1     -21.680  -8.622  -4.340  0.00  0.00    -0.344 N 
HETATM   12  H           1     -22.628  -8.974  -4.306  0.00  0.00     0.163 HD
HETATM   13  C           1     -20.641  -9.476  -4.593  0.00  0.00     0.251 C 
HETATM   14  O           1     -20.855 -10.651  -4.776  0.00  0.00    -0.271 OA
BRANCH  13  15
HETATM   15  C           1     -19.227  -8.951  -4.645  0.00  0.00     0.311 C 
HETATM   16  C           1     -18.359  -9.821  -5.537  0.00  0.00     0.047 C 
HETATM   17  C           1     -17.686 -10.811  -4.593  0.00  0.00     0.033 C 
HETATM   18  C           1     -18.200 -10.450  -3.210  0.00  0.00     0.271 C 
HETATM   19  N           1     -18.589  -9.049  -3.335  0.00  0.00     0.097 N 
HETATM   20  H           1     -17.756  -8.460  -3.294  0.00  0.00     0.317 HD
ENDBRANCH  13  15
ENDBRANCH   1  11
BRANCH   1  21
HETATM   21  C           1     -21.572  -6.897  -2.652  0.00  0.00     0.197 C 
HETATM   22  O           1     -20.870  -7.498  -1.810  0.00  0.00    -0.646 OA
HETATM   23  O           1     -22.397  -6.036  -2.278  0.00  0.00    -0.646 OA
ENDBRANCH   1  21
TORSDOF 6
ENDMDL
MODEL 7
REMARK VINA RESULT:      -6.2     15.965     18.704
REMARK  6 active torsions:
REMARK  status: ('A' for Active; 'I' for Inactive)
REMARK    1  A    between atoms: C_6  and  C_19 
REMARK    2  A    between atoms: C_6  and  C_14 
REMARK    3  A    between atoms: C_9  and  C_21 
REMARK    4  A    between atoms: N_11  and  C_14 
REMARK       I    between atoms: N_11  and  C_21 
REMARK    5  A    between atoms: C_14  and  C_23 
REMARK    6  A    between atoms: C_15  and  O_16 
ROOT
HETATM    1  C           1     -20.581  -8.892  -4.959  0.00  0.00     0.189 C 
ENDROOT
BRANCH   1   2
HETATM    2  C           1     -19.656  -8.880  -3.749  0.00  0.00     0.074 C 
BRANCH   2   3
HETATM    3  C           1     -18.323  -9.444  -4.133  0.00  0.00    -0.056 A 
HETATM    4  C           1     -17.960  -9.523  -5.478  0.00  0.00     0.010 A 
HETATM    5  C           1     -16.719 -10.048  -5.835  0.00  0.00     0.037 A 
HETATM    6  C           1     -15.840 -10.495  -4.848  0.00  0.00     0.065 A 
HETATM    7  C           1     -16.204 -10.416  -3.504  0.00  0.00     0.037 A 
HETATM    8  C           1     -17.446  -9.891  -3.146  0.00  0.00     0.010 A 
BRANCH   6   9
HETATM    9  O           1     -14.633 -11.006  -5.195  0.00  0.00    -0.361 OA
HETATM   10  H           1     -14.088 -11.058  -4.393  0.00  0.00     0.217 HD
ENDBRANCH   6   9
ENDBRANCH   2   3
ENDBRANCH   1   2
BRANCH   1  11
HETATM   11  N           1     -21.694  -7.994  -4.725  0.00  0.00    -0.344 N 
HETATM   12  H           1     -22.528  -8.332  -4.263  0.00  0.00     0.163 HD
HETATM   13  C           1     -21.617  -6.689  -5.129  0.00  0.00     0.251 C 
HETATM   14  O           1     -22.545  -5.940  -4.935  0.00  0.00    -0.271 OA
BRANCH  13  15
HETATM   15  C           1     -20.373  -6.183  -5.818  0.00  0.00     0.311 C 
HETATM   16  C           1     -20.234  -4.681  -5.651  0.00  0.00     0.047 C 
HETATM   17  C           1     -20.863  -4.081  -6.903  0.00  0.00     0.033 C 
HETATM   18  C           1     -21.322  -5.274  -7.725  0.00  0.00     0.271 C 
HETATM   19  N           1     -20.470  -6.365  -7.264  0.00  0.00     0.097 N 
HETATM   20  H           1     -19.550  -6.286  -7.700  0.00  0.00     0.317 HD
ENDBRANCH  13  15
ENDBRANCH   1  11
BRANCH   1  21
HETATM   21  C           1     -21.102 -10.291  -5.180  0.00  0.00     0.197 C 
HETATM   22  O           1     -21.117 -10.777  -6.331  0.00  0.00    -0.646 OA
HETATM   23  O           1     -21.519 -10.963  -4.212  0.00  0.00    -0.646 OA
ENDBRANCH   1  21
TORSDOF 6
ENDMDL
MODEL 8
REMARK VINA RESULT:      -6.1     17.589     19.003
REMARK  6 active torsions:
REMARK  status: ('A' for Active; 'I' for Inactive)
REMARK    1  A    between atoms: C_6  and  C_19 
REMARK    2  A    between atoms: C_6  and  C_14 
REMARK    3  A    between atoms: C_9  and  C_21 
REMARK    4  A    between atoms: N_11  and  C_14 
REMARK       I    between atoms: N_11  and  C_21 
REMARK    5  A    between atoms: C_14  and  C_23 
REMARK    6  A    between atoms: C_15  and  O_16 
ROOT
HETATM    1  C           1     -21.618  -7.974  -1.860  0.00  0.00     0.189 C 
ENDROOT
BRANCH   1   2
HETATM    2  C           1     -21.622  -8.238  -0.360  0.00  0.00     0.074 C 
BRANCH   2   3
HETATM    3  C           1     -22.085  -9.638  -0.100  0.00  0.00    -0.056 A 
HETATM    4  C           1     -21.182 -10.598   0.356  0.00  0.00     0.010 A 
HETATM    5  C           1     -21.613 -11.901   0.598  0.00  0.00     0.037 A 
HETATM    6  C           1     -22.948 -12.246   0.384  0.00  0.00     0.065 A 
HETATM    7  C           1     -23.850 -11.286  -0.073  0.00  0.00     0.037 A 
HETATM    8  C           1     -23.419  -9.982  -0.315  0.00  0.00     0.010 A 
BRANCH   6   9
HETATM    9  O           1     -23.367 -13.513   0.620  0.00  0.00    -0.361 OA
HETATM   10  H           1     -23.861 -13.816  -0.160  0.00  0.00     0.217 HD
ENDBRANCH   6   9
ENDBRANCH   2   3
ENDBRANCH   1   2
BRANCH   1  11
HETATM   11  N           1     -20.289  -8.211  -2.388  0.00  0.00    -0.344 N 
HETATM   12  H           1     -19.479  -7.846  -1.902  0.00  0.00     0.163 HD
HETATM   13  C           1     -20.128  -8.928  -3.542  0.00  0.00     0.251 C 
HETATM   14  O           1     -19.021  -9.125  -3.983  0.00  0.00    -0.271 OA
BRANCH  13  15
HETATM   15  C           1     -21.335  -9.473  -4.267  0.00  0.00     0.311 C 
HETATM   16  C           1     -21.804 -10.772  -3.635  0.00  0.00     0.047 C 
HETATM   17  C           1     -21.135 -11.874  -4.449  0.00  0.00     0.033 C 
HETATM   18  C           1     -20.324 -11.147  -5.508  0.00  0.00     0.271 C 
HETATM   19  N           1     -20.991  -9.855  -5.634  0.00  0.00     0.097 N 
HETATM   20  H           1     -21.833  -9.960  -6.201  0.00  0.00     0.317 HD
ENDBRANCH  13  15
ENDBRANCH   1  11
BRANCH   1  21
HETATM   21  C           1     -22.014  -6.542  -2.121  0.00  0.00     0.197 C 
HETATM   22  O           1     -22.375  -5.811  -1.173  0.00  0.00    -0.646 OA
HETATM   23  O           1     -21.982  -6.087  -3.285  0.00  0.00    -0.646 OA
ENDBRANCH   1  21
TORSDOF 6
ENDMDL
MODEL 9
REMARK VINA RESULT:      -5.8     17.885     20.323
REMARK  6 active torsions:
REMARK  status: ('A' for Active; 'I' for Inactive)
REMARK    1  A    between atoms: C_6  and  C_19 
REMARK    2  A    between atoms: C_6  and  C_14 
REMARK    3  A    between atoms: C_9  and  C_21 
REMARK    4  A    between atoms: N_11  and  C_14 
REMARK       I    between atoms: N_11  and  C_21 
REMARK    5  A    between atoms: C_14  and  C_23 
REMARK    6  A    between atoms: C_15  and  O_16 
ROOT
HETATM    1  C           1     -20.025  -8.740  -3.839  0.00  0.00     0.189 C 
ENDROOT
BRANCH   1   2
HETATM    2  C           1     -18.992  -9.633  -4.512  0.00  0.00     0.074 C 
BRANCH   2   3
HETATM    3  C           1     -18.069 -10.199  -3.477  0.00  0.00    -0.056 A 
HETATM    4  C           1     -16.812  -9.628  -3.278  0.00  0.00     0.010 A 
HETATM    5  C           1     -15.952 -10.155  -2.315  0.00  0.00     0.037 A 
HETATM    6  C           1     -16.349 -11.252  -1.550  0.00  0.00     0.065 A 
HETATM    7  C           1     -17.607 -11.822  -1.750  0.00  0.00     0.037 A 
HETATM    8  C           1     -18.467 -11.295  -2.714  0.00  0.00     0.010 A 
BRANCH   6   9
HETATM    9  O           1     -15.514 -11.764  -0.613  0.00  0.00    -0.361 OA
HETATM   10  H           1     -15.992 -12.461  -0.134  0.00  0.00     0.217 HD
ENDBRANCH   6   9
ENDBRANCH   2   3
ENDBRANCH   1   2
BRANCH   1  11
HETATM   11  N           1     -21.208  -9.519  -3.528  0.00  0.00    -0.344 N 
HETATM   12  H           1     -21.696 -10.011  -4.265  0.00  0.00     0.163 HD
HETATM   13  C           1     -21.664  -9.588  -2.240  0.00  0.00     0.251 C 
HETATM   14  O           1     -22.649 -10.236  -1.981  0.00  0.00    -0.271 OA
BRANCH  13  15
HETATM   15  C           1     -20.935  -8.854  -1.141  0.00  0.00     0.311 C 
HETATM   16  C           1     -21.530  -9.183   0.217  0.00  0.00     0.047 C 
HETATM   17  C           1     -22.536  -8.072   0.490  0.00  0.00     0.033 C 
HETATM   18  C           1     -22.458  -7.161  -0.723  0.00  0.00     0.271 C 
HETATM   19  N           1     -21.126  -7.412  -1.264  0.00  0.00     0.097 N 
HETATM   20  H           1     -20.433  -6.907  -0.710  0.00  0.00     0.317 HD
ENDBRANCH  13  15
ENDBRANCH   1  11
BRANCH   1  21
HETATM   21  C           1     -20.396  -7.611  -4.767  0.00  0.00     0.197 C 
HETATM   22  O           1     -21.128  -6.682  -4.360  0.00  0.00    -0.646 OA
HETATM   23  O           1     -19.972  -7.603  -5.943  0.00  0.00    -0.646 OA
ENDBRANCH   1  21
TORSDOF 6
ENDMDL
