MODEL 1
REMARK VINA RESULT:      -7.2      0.000      0.000
REMARK  10 active torsions:
REMARK  status: ('A' for Active; 'I' for Inactive)
REMARK    1  A    between atoms: C_2  and  C_3 
REMARK    2  A    between atoms: C_3  and  C_24 
REMARK    3  A    between atoms: C_3  and  N_5 
REMARK    4  A    between atoms: N_4  and  C_19 
REMARK       I    between atoms: N_5  and  C_16 
REMARK    5  A    between atoms: C_6  and  C_7 
REMARK    6  A    between atoms: C_6  and  C_24 
REMARK    7  A    between atoms: C_7  and  N_10 
REMARK       I    between atoms: N_10  and  C_15 
REMARK       I    between atoms: N_11  and  C_15 
REMARK    8  A    between atoms: C_16  and  C_19 
REMARK    9  A    between atoms: C_19  and  C_20 
REMARK   10  A    between atoms: C_20  and  C_27 
ROOT
HETATM    1  C           1     -35.850  -0.762 -13.332  0.00  0.00     0.185 C 
ENDROOT
BRANCH   1   2
HETATM    2  C           1     -35.111   0.242 -14.183  0.00  0.00     0.196 C 
HETATM    3  O           1     -34.783   1.348 -13.704  0.00  0.00    -0.646 OA
HETATM    4  O           1     -34.826  -0.035 -15.369  0.00  0.00    -0.646 OA
ENDBRANCH   1   2
BRANCH   1   5
HETATM    5  C           1     -37.070  -0.098 -12.707  0.00  0.00     0.038 C 
BRANCH   5   6
HETATM    6  C           1     -37.302  -0.668 -11.314  0.00  0.00     0.023 C 
BRANCH   6   7
HETATM    7  C           1     -37.614   0.467 -10.346  0.00  0.00     0.138 C 
BRANCH   7   8
HETATM    8  N           1     -37.111   0.123  -9.008  0.00  0.00    -0.227 N 
HETATM    9  H           1     -36.757  -0.847  -8.813  0.00  0.00     0.177 HD
HETATM   10  C           1     -37.104   0.996  -8.091  0.00  0.00     0.665 C 
HETATM   11  N           1     -36.659   0.692  -6.908  0.00  0.00    -0.235 N 
HETATM   12  N           1     -37.531   2.165  -8.326  0.00  0.00    -0.235 N 
HETATM   13  H           1     -36.307  -0.273  -6.714  0.00  0.00     0.174 HD
HETATM   14  H           1     -36.654   1.412  -6.151  0.00  0.00     0.174 HD
HETATM   15  H           1     -37.526   2.888  -7.565  0.00  0.00     0.174 HD
HETATM   16  H           1     -37.891   2.410  -9.281  0.00  0.00     0.174 HD
ENDBRANCH   7   8
ENDBRANCH   6   7
ENDBRANCH   5   6
ENDBRANCH   1   5
BRANCH   1  17
HETATM   17  N           1     -34.973  -1.244 -12.283  0.00  0.00    -0.345 N 
HETATM   18  H           1     -34.842  -0.697 -11.441  0.00  0.00     0.163 HD
HETATM   19  C           1     -34.322  -2.440 -12.431  0.00  0.00     0.249 C 
HETATM   20  O           1     -34.477  -3.092 -13.435  0.00  0.00    -0.271 OA
BRANCH  19  21
HETATM   21  C           1     -33.409  -2.942 -11.339  0.00  0.00     0.278 C 
BRANCH  21  22
HETATM   22  N           1     -33.146  -1.836 -10.360  0.00  0.00    -0.066 N 
HETATM   23  H           1     -33.433  -2.141  -9.403  0.00  0.00     0.275 HD
HETATM   24  H           1     -32.126  -1.606 -10.360  0.00  0.00     0.275 HD
HETATM   25  H           1     -33.693  -0.989 -10.636  0.00  0.00     0.275 HD
ENDBRANCH  21  22
BRANCH  21  26
HETATM   26  C           1     -34.071  -4.109 -10.620  0.00  0.00     0.021 C 
HETATM   27  C           1     -35.581  -4.027 -10.801  0.00  0.00     0.012 C 
BRANCH  26  28
HETATM   28  C           1     -33.561  -5.420 -11.204  0.00  0.00     0.002 C 
HETATM   29  C           1     -34.301  -6.586 -10.559  0.00  0.00     0.005 C 
ENDBRANCH  26  28
ENDBRANCH  21  26
ENDBRANCH  19  21
ENDBRANCH   1  17
TORSDOF 10
ENDMDL
MODEL 2
REMARK VINA RESULT:      -7.0     13.813     16.067
REMARK  10 active torsions:
REMARK  status: ('A' for Active; 'I' for Inactive)
REMARK    1  A    between atoms: C_2  and  C_3 
REMARK    2  A    between atoms: C_3  and  C_24 
REMARK    3  A    between atoms: C_3  and  N_5 
REMARK    4  A    between atoms: N_4  and  C_19 
REMARK       I    between atoms: N_5  and  C_16 
REMARK    5  A    between atoms: C_6  and  C_7 
REMARK    6  A    between atoms: C_6  and  C_24 
REMARK    7  A    between atoms: C_7  and  N_10 
REMARK       I    between atoms: N_10  and  C_15 
REMARK       I    between atoms: N_11  and  C_15 
REMARK    8  A    between atoms: C_16  and  C_19 
REMARK    9  A    between atoms: C_19  and  C_20 
REMARK   10  A    between atoms: C_20  and  C_27 
ROOT
HETATM    1  C           1     -21.213  -5.975  -6.117  0.00  0.00     0.185 C 
ENDROOT
BRANCH   1   2
HETATM    2  C           1     -19.838  -5.815  -6.716  0.00  0.00     0.196 C 
HETATM    3  O           1     -19.262  -4.706  -6.672  0.00  0.00    -0.646 OA
HETATM    4  O           1     -19.274  -6.791  -7.255  0.00  0.00    -0.646 OA
ENDBRANCH   1   2
BRANCH   1   5
HETATM    5  C           1     -22.146  -4.917  -6.692  0.00  0.00     0.038 C 
BRANCH   5   6
HETATM    6  C           1     -22.101  -4.972  -8.213  0.00  0.00     0.023 C 
BRANCH   6   7
HETATM    7  C           1     -22.566  -3.638  -8.785  0.00  0.00     0.138 C 
BRANCH   7   8
HETATM    8  N           1     -24.030  -3.547  -8.691  0.00  0.00    -0.227 N 
HETATM    9  H           1     -24.498  -3.556  -7.750  0.00  0.00     0.177 HD
HETATM   10  C           1     -24.727  -3.458  -9.744  0.00  0.00     0.665 C 
HETATM   11  N           1     -26.022  -3.378  -9.661  0.00  0.00    -0.235 N 
HETATM   12  N           1     -24.164  -3.448 -10.878  0.00  0.00    -0.235 N 
HETATM   13  H           1     -26.487  -3.387  -8.725  0.00  0.00     0.174 HD
HETATM   14  H           1     -26.597  -3.305 -10.530  0.00  0.00     0.174 HD
HETATM   15  H           1     -24.742  -3.374 -11.751  0.00  0.00     0.174 HD
HETATM   16  H           1     -23.118  -3.512 -10.945  0.00  0.00     0.174 HD
ENDBRANCH   7   8
ENDBRANCH   6   7
ENDBRANCH   5   6
ENDBRANCH   1   5
BRANCH   1  17
HETATM   17  N           1     -21.135  -5.817  -4.678  0.00  0.00    -0.345 N 
HETATM   18  H           1     -20.854  -4.930  -4.280  0.00  0.00     0.163 HD
HETATM   19  C           1     -21.443  -6.869  -3.856  0.00  0.00     0.249 C 
HETATM   20  O           1     -21.779  -7.928  -4.331  0.00  0.00    -0.271 OA
BRANCH  19  21
HETATM   21  C           1     -21.361  -6.705  -2.359  0.00  0.00     0.278 C 
BRANCH  21  22
HETATM   22  N           1     -22.322  -5.641  -1.919  0.00  0.00    -0.066 N 
HETATM   23  H           1     -23.294  -5.916  -2.185  0.00  0.00     0.275 HD
HETATM   24  H           1     -22.264  -5.526  -0.882  0.00  0.00     0.275 HD
HETATM   25  H           1     -22.076  -4.737  -2.384  0.00  0.00     0.275 HD
ENDBRANCH  21  22
BRANCH  21  26
HETATM   26  C           1     -21.719  -8.022  -1.683  0.00  0.00     0.021 C 
HETATM   27  C           1     -20.443  -8.779  -1.336  0.00  0.00     0.012 C 
BRANCH  26  28
HETATM   28  C           1     -22.505  -7.743  -0.409  0.00  0.00     0.002 C 
HETATM   29  C           1     -21.753  -8.314   0.787  0.00  0.00     0.005 C 
ENDBRANCH  26  28
ENDBRANCH  21  26
ENDBRANCH  19  21
ENDBRANCH   1  17
TORSDOF 10
ENDMDL
MODEL 3
REMARK VINA RESULT:      -6.7     13.098     15.511
REMARK  10 active torsions:
REMARK  status: ('A' for Active; 'I' for Inactive)
REMARK    1  A    between atoms: C_2  and  C_3 
REMARK    2  A    between atoms: C_3  and  C_24 
REMARK    3  A    between atoms: C_3  and  N_5 
REMARK    4  A    between atoms: N_4  and  C_19 
REMARK       I    between atoms: N_5  and  C_16 
REMARK    5  A    between atoms: C_6  and  C_7 
REMARK    6  A    between atoms: C_6  and  C_24 
REMARK    7  A    between atoms: C_7  and  N_10 
REMARK       I    between atoms: N_10  and  C_15 
REMARK       I    between atoms: N_11  and  C_15 
REMARK    8  A    between atoms: C_16  and  C_19 
REMARK    9  A    between atoms: C_19  and  C_20 
REMARK   10  A    between atoms: C_20  and  C_27 
ROOT
HETATM    1  C           1     -21.126  -5.012  -7.071  0.00  0.00     0.185 C 
ENDROOT
BRANCH   1   2
HETATM    2  C           1     -19.711  -4.499  -7.174  0.00  0.00     0.196 C 
HETATM    3  O           1     -19.360  -3.830  -8.170  0.00  0.00    -0.646 OA
HETATM    4  O           1     -18.890  -4.742  -6.263  0.00  0.00    -0.646 OA
ENDBRANCH   1   2
BRANCH   1   5
HETATM    5  C           1     -21.119  -6.406  -6.457  0.00  0.00     0.038 C 
BRANCH   5   6
HETATM    6  C           1     -22.034  -6.432  -5.240  0.00  0.00     0.023 C 
BRANCH   6   7
HETATM    7  C           1     -21.240  -6.043  -3.998  0.00  0.00     0.138 C 
BRANCH   7   8
HETATM    8  N           1     -22.108  -6.128  -2.815  0.00  0.00    -0.227 N 
HETATM    9  H           1     -22.988  -5.556  -2.767  0.00  0.00     0.177 HD
HETATM   10  C           1     -21.795  -6.889  -1.853  0.00  0.00     0.665 C 
HETATM   11  N           1     -22.562  -6.964  -0.807  0.00  0.00    -0.235 N 
HETATM   12  N           1     -20.734  -7.578  -1.911  0.00  0.00    -0.235 N 
HETATM   13  H           1     -23.437  -6.396  -0.759  0.00  0.00     0.174 HD
HETATM   14  H           1     -22.303  -7.593  -0.013  0.00  0.00     0.174 HD
HETATM   15  H           1     -20.474  -8.210  -1.114  0.00  0.00     0.174 HD
HETATM   16  H           1     -20.114  -7.518  -2.756  0.00  0.00     0.174 HD
ENDBRANCH   7   8
ENDBRANCH   6   7
ENDBRANCH   5   6
ENDBRANCH   1   5
BRANCH   1  17
HETATM   17  N           1     -21.717  -5.071  -8.393  0.00  0.00    -0.345 N 
HETATM   18  H           1     -21.207  -5.495  -9.157  0.00  0.00     0.163 HD
HETATM   19  C           1     -22.966  -4.553  -8.608  0.00  0.00     0.249 C 
HETATM   20  O           1     -23.576  -4.046  -7.697  0.00  0.00    -0.271 OA
BRANCH  19  21
HETATM   21  C           1     -23.581  -4.614  -9.985  0.00  0.00     0.278 C 
BRANCH  21  22
HETATM   22  N           1     -25.050  -4.324  -9.890  0.00  0.00    -0.066 N 
HETATM   23  H           1     -25.520  -4.607 -10.779  0.00  0.00     0.275 HD
HETATM   24  H           1     -25.460  -4.861  -9.093  0.00  0.00     0.275 HD
HETATM   25  H           1     -25.193  -3.300  -9.730  0.00  0.00     0.275 HD
ENDBRANCH  21  22
BRANCH  21  26
HETATM   26  C           1     -22.917  -3.581 -10.884  0.00  0.00     0.021 C 
HETATM   27  C           1     -21.799  -4.243 -11.680  0.00  0.00     0.012 C 
BRANCH  26  28
HETATM   28  C           1     -23.949  -3.004 -11.844  0.00  0.00     0.002 C 
HETATM   29  C           1     -23.285  -2.696 -13.181  0.00  0.00     0.005 C 
ENDBRANCH  26  28
ENDBRANCH  21  26
ENDBRANCH  19  21
ENDBRANCH   1  17
TORSDOF 10
ENDMDL
MODEL 4
REMARK VINA RESULT:      -6.6     14.299     16.240
REMARK  10 active torsions:
REMARK  status: ('A' for Active; 'I' for Inactive)
REMARK    1  A    between atoms: C_2  and  C_3 
REMARK    2  A    between atoms: C_3  and  C_24 
REMARK    3  A    between atoms: C_3  and  N_5 
REMARK    4  A    between atoms: N_4  and  C_19 
REMARK       I    between atoms: N_5  and  C_16 
REMARK    5  A    between atoms: C_6  and  C_7 
REMARK    6  A    between atoms: C_6  and  C_24 
REMARK    7  A    between atoms: C_7  and  N_10 
REMARK       I    between atoms: N_10  and  C_15 
REMARK       I    between atoms: N_11  and  C_15 
REMARK    8  A    between atoms: C_16  and  C_19 
REMARK    9  A    between atoms: C_19  and  C_20 
REMARK   10  A    between atoms: C_20  and  C_27 
ROOT
HETATM    1  C           1     -21.419  -5.458  -6.855  0.00  0.00     0.185 C 
ENDROOT
BRANCH   1   2
HETATM    2  C           1     -20.097  -4.746  -6.705  0.00  0.00     0.196 C 
HETATM    3  O           1     -19.681  -4.431  -5.569  0.00  0.00    -0.646 OA
HETATM    4  O           1     -19.417  -4.471  -7.718  0.00  0.00    -0.646 OA
ENDBRANCH   1   2
BRANCH   1   5
HETATM    5  C           1     -22.468  -4.481  -7.368  0.00  0.00     0.038 C 
BRANCH   5   6
HETATM    6  C           1     -22.676  -4.695  -8.861  0.00  0.00     0.023 C 
BRANCH   6   7
HETATM    7  C           1     -22.261  -3.439  -9.618  0.00  0.00     0.138 C 
BRANCH   7   8
HETATM    8  N           1     -22.670  -3.556 -11.025  0.00  0.00    -0.227 N 
HETATM    9  H           1     -23.666  -3.786 -11.265  0.00  0.00     0.177 HD
HETATM   10  C           1     -21.821  -3.378 -11.948  0.00  0.00     0.665 C 
HETATM   11  N           1     -22.183  -3.482 -13.192  0.00  0.00    -0.235 N 
HETATM   12  N           1     -20.620  -3.100 -11.659  0.00  0.00    -0.235 N 
HETATM   13  H           1     -23.174  -3.711 -13.430  0.00  0.00     0.174 HD
HETATM   14  H           1     -21.482  -3.335 -13.953  0.00  0.00     0.174 HD
HETATM   15  H           1     -19.917  -2.953 -12.424  0.00  0.00     0.174 HD
HETATM   16  H           1     -20.328  -3.017 -10.653  0.00  0.00     0.174 HD
ENDBRANCH   7   8
ENDBRANCH   6   7
ENDBRANCH   5   6
ENDBRANCH   1   5
BRANCH   1  17
HETATM   17  N           1     -21.835  -5.980  -5.568  0.00  0.00    -0.345 N 
HETATM   18  H           1     -22.353  -5.393  -4.927  0.00  0.00     0.163 HD
HETATM   19  C           1     -21.527  -7.268  -5.220  0.00  0.00     0.249 C 
HETATM   20  O           1     -20.908  -7.969  -5.985  0.00  0.00    -0.271 OA
BRANCH  19  21
HETATM   21  C           1     -21.959  -7.812  -3.880  0.00  0.00     0.278 C 
BRANCH  21  22
HETATM   22  N           1     -21.646  -9.277  -3.811  0.00  0.00    -0.066 N 
HETATM   23  H           1     -22.210  -9.789  -4.526  0.00  0.00     0.275 HD
HETATM   24  H           1     -20.629  -9.425  -3.999  0.00  0.00     0.275 HD
HETATM   25  H           1     -21.880  -9.638  -2.858  0.00  0.00     0.275 HD
ENDBRANCH  21  22
BRANCH  21  26
HETATM   26  C           1     -21.216  -7.080  -2.771  0.00  0.00     0.021 C 
HETATM   27  C           1     -22.200  -6.238  -1.969  0.00  0.00     0.012 C 
BRANCH  26  28
HETATM   28  C           1     -20.549  -8.094  -1.851  0.00  0.00     0.002 C 
HETATM   29  C           1     -21.235  -8.075  -0.491  0.00  0.00     0.005 C 
ENDBRANCH  26  28
ENDBRANCH  21  26
ENDBRANCH  19  21
ENDBRANCH   1  17
TORSDOF 10
ENDMDL
MODEL 5
REMARK VINA RESULT:      -6.5     14.516     16.926
REMARK  10 active torsions:
REMARK  status: ('A' for Active; 'I' for Inactive)
REMARK    1  A    between atoms: C_2  and  C_3 
REMARK    2  A    between atoms: C_3  and  C_24 
REMARK    3  A    between atoms: C_3  and  N_5 
REMARK    4  A    between atoms: N_4  and  C_19 
REMARK       I    between atoms: N_5  and  C_16 
REMARK    5  A    between atoms: C_6  and  C_7 
REMARK    6  A    between atoms: C_6  and  C_24 
REMARK    7  A    between atoms: C_7  and  N_10 
REMARK       I    between atoms: N_10  and  C_15 
REMARK       I    between atoms: N_11  and  C_15 
REMARK    8  A    between atoms: C_16  and  C_19 
REMARK    9  A    between atoms: C_19  and  C_20 
REMARK   10  A    between atoms: C_20  and  C_27 
ROOT
HETATM    1  C           1     -20.915  -6.529  -4.998  0.00  0.00     0.185 C 
ENDROOT
BRANCH   1   2
HETATM    2  C           1     -20.065  -7.770  -5.117  0.00  0.00     0.196 C 
HETATM    3  O           1     -19.383  -7.964  -6.146  0.00  0.00    -0.646 OA
HETATM    4  O           1     -20.042  -8.603  -4.185  0.00  0.00    -0.646 OA
ENDBRANCH   1   2
BRANCH   1   5
HETATM    5  C           1     -21.956  -6.728  -3.904  0.00  0.00     0.038 C 
BRANCH   5   6
HETATM    6  C           1     -21.468  -6.083  -2.614  0.00  0.00     0.023 C 
BRANCH   6   7
HETATM    7  C           1     -22.317  -6.574  -1.447  0.00  0.00     0.138 C 
BRANCH   7   8
HETATM    8  N           1     -21.567  -7.580  -0.682  0.00  0.00    -0.227 N 
HETATM    9  H           1     -20.561  -7.774  -0.915  0.00  0.00     0.177 HD
HETATM   10  C           1     -22.133  -8.213   0.257  0.00  0.00     0.665 C 
HETATM   11  N           1     -21.469  -9.103   0.933  0.00  0.00    -0.235 N 
HETATM   12  N           1     -23.345  -7.979   0.537  0.00  0.00    -0.235 N 
HETATM   13  H           1     -20.469  -9.296   0.701  0.00  0.00     0.174 HD
HETATM   14  H           1     -21.937  -9.625   1.708  0.00  0.00     0.174 HD
HETATM   15  H           1     -23.815  -8.503   1.316  0.00  0.00     0.174 HD
HETATM   16  H           1     -23.881  -7.260  -0.009  0.00  0.00     0.174 HD
ENDBRANCH   7   8
ENDBRANCH   6   7
ENDBRANCH   5   6
ENDBRANCH   1   5
BRANCH   1  17
HETATM   17  N           1     -21.584  -6.278  -6.260  0.00  0.00    -0.345 N 
HETATM   18  H           1     -22.082  -7.025  -6.726  0.00  0.00     0.163 HD
HETATM   19  C           1     -21.542  -5.029  -6.820  0.00  0.00     0.249 C 
HETATM   20  O           1     -20.947  -4.137  -6.264  0.00  0.00    -0.271 OA
BRANCH  19  21
HETATM   21  C           1     -22.237  -4.768  -8.134  0.00  0.00     0.278 C 
BRANCH  21  22
HETATM   22  N           1     -23.510  -4.015  -7.884  0.00  0.00    -0.066 N 
HETATM   23  H           1     -23.814  -4.162  -6.895  0.00  0.00     0.275 HD
HETATM   24  H           1     -23.351  -2.996  -8.052  0.00  0.00     0.275 HD
HETATM   25  H           1     -24.253  -4.363  -8.533  0.00  0.00     0.275 HD
ENDBRANCH  21  22
BRANCH  21  26
HETATM   26  C           1     -21.328  -3.944  -9.035  0.00  0.00     0.021 C 
HETATM   27  C           1     -20.071  -4.743  -9.357  0.00  0.00     0.012 C 
BRANCH  26  28
HETATM   28  C           1     -22.061  -3.611 -10.328  0.00  0.00     0.002 C 
HETATM   29  C           1     -21.157  -3.911 -11.517  0.00  0.00     0.005 C 
ENDBRANCH  26  28
ENDBRANCH  21  26
ENDBRANCH  19  21
ENDBRANCH   1  17
TORSDOF 10
ENDMDL
MODEL 6
REMARK VINA RESULT:      -6.4      1.531      1.977
REMARK  10 active torsions:
REMARK  status: ('A' for Active; 'I' for Inactive)
REMARK    1  A    between atoms: C_2  and  C_3 
REMARK    2  A    between atoms: C_3  and  C_24 
REMARK    3  A    between atoms: C_3  and  N_5 
REMARK    4  A    between atoms: N_4  and  C_19 
REMARK       I    between atoms: N_5  and  C_16 
REMARK    5  A    between atoms: C_6  and  C_7 
REMARK    6  A    between atoms: C_6  and  C_24 
REMARK    7  A    between atoms: C_7  and  N_10 
REMARK       I    between atoms: N_10  and  C_15 
REMARK       I    between atoms: N_11  and  C_15 
REMARK    8  A    between atoms: C_16  and  C_19 
REMARK    9  A    between atoms: C_19  and  C_20 
REMARK   10  A    between atoms: C_20  and  C_27 
ROOT
HETATM    1  C           1     -35.714  -0.823 -13.549  0.00  0.00     0.185 C 
ENDROOT
BRANCH   1   2
HETATM    2  C           1     -35.963  -0.326 -14.952  0.00  0.00     0.196 C 
HETATM    3  O           1     -36.424  -1.101 -15.817  0.00  0.00    -0.646 OA
HETATM    4  O           1     -35.709   0.862 -15.248  0.00  0.00    -0.646 OA
ENDBRANCH   1   2
BRANCH   1   5
HETATM    5  C           1     -35.054   0.277 -12.728  0.00  0.00     0.038 C 
BRANCH   5   6
HETATM    6  C           1     -35.262   0.000 -11.245  0.00  0.00     0.023 C 
BRANCH   6   7
HETATM    7  C           1     -36.698   0.334 -10.862  0.00  0.00     0.138 C 
BRANCH   7   8
HETATM    8  N           1     -36.699   1.296  -9.750  0.00  0.00    -0.227 N 
HETATM    9  H           1     -36.358   2.277  -9.905  0.00  0.00     0.177 HD
HETATM   10  C           1     -37.110   0.941  -8.607  0.00  0.00     0.665 C 
HETATM   11  N           1     -37.110   1.792  -7.623  0.00  0.00    -0.235 N 
HETATM   12  N           1     -37.520  -0.242  -8.420  0.00  0.00    -0.235 N 
HETATM   13  H           1     -36.771   2.768  -7.777  0.00  0.00     0.174 HD
HETATM   14  H           1     -37.449   1.498  -6.680  0.00  0.00     0.174 HD
HETATM   15  H           1     -37.861  -0.537  -7.472  0.00  0.00     0.174 HD
HETATM   16  H           1     -37.520  -0.929  -9.214  0.00  0.00     0.174 HD
ENDBRANCH   7   8
ENDBRANCH   6   7
ENDBRANCH   5   6
ENDBRANCH   1   5
BRANCH   1  17
HETATM   17  N           1     -34.842  -1.980 -13.594  0.00  0.00    -0.345 N 
HETATM   18  H           1     -34.094  -2.024 -14.274  0.00  0.00     0.163 HD
HETATM   19  C           1     -35.030  -3.014 -12.716  0.00  0.00     0.249 C 
HETATM   20  O           1     -35.923  -2.963 -11.905  0.00  0.00    -0.271 OA
BRANCH  19  21
HETATM   21  C           1     -34.123  -4.219 -12.764  0.00  0.00     0.278 C 
BRANCH  21  22
HETATM   22  N           1     -33.270  -4.154 -13.996  0.00  0.00    -0.066 N 
HETATM   23  H           1     -32.967  -5.118 -14.262  0.00  0.00     0.275 HD
HETATM   24  H           1     -33.821  -3.734 -14.779  0.00  0.00     0.275 HD
HETATM   25  H           1     -32.428  -3.563 -13.806  0.00  0.00     0.275 HD
ENDBRANCH  21  22
BRANCH  21  26
HETATM   26  C           1     -33.231  -4.232 -11.530  0.00  0.00     0.021 C 
HETATM   27  C           1     -32.939  -2.801 -11.098  0.00  0.00     0.012 C 
BRANCH  26  28
HETATM   28  C           1     -33.939  -4.967 -10.399  0.00  0.00     0.002 C 
HETATM   29  C           1     -34.065  -6.444 -10.753  0.00  0.00     0.005 C 
ENDBRANCH  26  28
ENDBRANCH  21  26
ENDBRANCH  19  21
ENDBRANCH   1  17
TORSDOF 10
ENDMDL
MODEL 7
REMARK VINA RESULT:      -6.2     13.578     16.334
REMARK  10 active torsions:
REMARK  status: ('A' for Active; 'I' for Inactive)
REMARK    1  A    between atoms: C_2  and  C_3 
REMARK    2  A    between atoms: C_3  and  C_24 
REMARK    3  A    between atoms: C_3  and  N_5 
REMARK    4  A    between atoms: N_4  and  C_19 
REMARK       I    between atoms: N_5  and  C_16 
REMARK    5  A    between atoms: C_6  and  C_7 
REMARK    6  A    between atoms: C_6  and  C_24 
REMARK    7  A    between atoms: C_7  and  N_10 
REMARK       I    between atoms: N_10  and  C_15 
REMARK       I    between atoms: N_11  and  C_15 
REMARK    8  A    between atoms: C_16  and  C_19 
REMARK    9  A    between atoms: C_19  and  C_20 
REMARK   10  A    between atoms: C_20  and  C_27 
ROOT
HETATM    1  C           1     -21.531  -5.337  -6.286  0.00  0.00     0.185 C 
ENDROOT
BRANCH   1   2
HETATM    2  C           1     -20.057  -5.570  -6.512  0.00  0.00     0.196 C 
HETATM    3  O           1     -19.231  -4.680  -6.216  0.00  0.00    -0.646 OA
HETATM    4  O           1     -19.663  -6.653  -6.997  0.00  0.00    -0.646 OA
ENDBRANCH   1   2
BRANCH   1   5
HETATM    5  C           1     -22.078  -6.412  -5.355  0.00  0.00     0.038 C 
BRANCH   5   6
HETATM    6  C           1     -21.274  -6.423  -4.062  0.00  0.00     0.023 C 
BRANCH   6   7
HETATM    7  C           1     -20.961  -7.862  -3.670  0.00  0.00     0.138 C 
BRANCH   7   8
HETATM    8  N           1     -19.724  -8.294  -4.337  0.00  0.00    -0.227 N 
HETATM    9  H           1     -18.812  -7.826  -4.106  0.00  0.00     0.177 HD
HETATM   10  C           1     -19.758  -9.229  -5.189  0.00  0.00     0.665 C 
HETATM   11  N           1     -18.664  -9.611  -5.779  0.00  0.00    -0.235 N 
HETATM   12  N           1     -20.857  -9.794  -5.467  0.00  0.00    -0.235 N 
HETATM   13  H           1     -17.757  -9.146  -5.549  0.00  0.00     0.174 HD
HETATM   14  H           1     -18.692 -10.384  -6.482  0.00  0.00     0.174 HD
HETATM   15  H           1     -20.885 -10.569  -6.174  0.00  0.00     0.174 HD
HETATM   16  H           1     -21.740  -9.485  -4.991  0.00  0.00     0.174 HD
ENDBRANCH   7   8
ENDBRANCH   6   7
ENDBRANCH   5   6
ENDBRANCH   1   5
BRANCH   1  17
HETATM   17  N           1     -22.230  -5.396  -7.554  0.00  0.00    -0.345 N 
HETATM   18  H           1     -22.600  -6.277  -7.888  0.00  0.00     0.163 HD
HETATM   19  C           1     -22.391  -4.259  -8.300  0.00  0.00     0.249 C 
HETATM   20  O           1     -21.950  -3.208  -7.902  0.00  0.00    -0.271 OA
BRANCH  19  21
HETATM   21  C           1     -23.119  -4.319  -9.620  0.00  0.00     0.278 C 
BRANCH  21  22
HETATM   22  N           1     -24.539  -3.876  -9.430  0.00  0.00    -0.066 N 
HETATM   23  H           1     -25.090  -4.648  -8.992  0.00  0.00     0.275 HD
HETATM   24  H           1     -24.561  -3.037  -8.807  0.00  0.00     0.275 HD
HETATM   25  H           1     -24.955  -3.632 -10.358  0.00  0.00     0.275 HD
ENDBRANCH  21  22
BRANCH  21  26
HETATM   26  C           1     -22.430  -3.402 -10.622  0.00  0.00     0.021 C 
HETATM   27  C           1     -21.314  -4.164 -11.325  0.00  0.00     0.012 C 
BRANCH  26  28
HETATM   28  C           1     -23.444  -2.924 -11.653  0.00  0.00     0.002 C 
HETATM   29  C           1     -22.833  -3.012 -13.046  0.00  0.00     0.005 C 
ENDBRANCH  26  28
ENDBRANCH  21  26
ENDBRANCH  19  21
ENDBRANCH   1  17
TORSDOF 10
ENDMDL
MODEL 8
REMARK VINA RESULT:      -6.2     14.896     17.408
REMARK  10 active torsions:
REMARK  status: ('A' for Active; 'I' for Inactive)
REMARK    1  A    between atoms: C_2  and  C_3 
REMARK    2  A    between atoms: C_3  and  C_24 
REMARK    3  A    between atoms: C_3  and  N_5 
REMARK    4  A    between atoms: N_4  and  C_19 
REMARK       I    between atoms: N_5  and  C_16 
REMARK    5  A    between atoms: C_6  and  C_7 
REMARK    6  A    between atoms: C_6  and  C_24 
REMARK    7  A    between atoms: C_7  and  N_10 
REMARK       I    between atoms: N_10  and  C_15 
REMARK       I    between atoms: N_11  and  C_15 
REMARK    8  A    between atoms: C_16  and  C_19 
REMARK    9  A    between atoms: C_19  and  C_20 
REMARK   10  A    between atoms: C_20  and  C_27 
ROOT
HETATM    1  C           1     -20.963  -7.268  -4.225  0.00  0.00     0.185 C 
ENDROOT
BRANCH   1   2
HETATM    2  C           1     -22.163  -6.415  -3.894  0.00  0.00     0.196 C 
HETATM    3  O           1     -23.014  -6.164  -4.774  0.00  0.00    -0.646 OA
HETATM    4  O           1     -22.307  -5.960  -2.738  0.00  0.00    -0.646 OA
ENDBRANCH   1   2
BRANCH   1   5
HETATM    5  C           1     -20.752  -7.286  -5.733  0.00  0.00     0.038 C 
BRANCH   5   6
HETATM    6  C           1     -19.807  -6.160  -6.129  0.00  0.00     0.023 C 
BRANCH   6   7
HETATM    7  C           1     -20.275  -5.540  -7.440  0.00  0.00     0.138 C 
BRANCH   7   8
HETATM    8  N           1     -21.743  -5.463  -7.451  0.00  0.00    -0.227 N 
HETATM    9  H           1     -22.314  -6.343  -7.501  0.00  0.00     0.177 HD
HETATM   10  C           1     -22.318  -4.337  -7.398  0.00  0.00     0.665 C 
HETATM   11  N           1     -23.616  -4.269  -7.407  0.00  0.00    -0.235 N 
HETATM   12  N           1     -21.629  -3.276  -7.337  0.00  0.00    -0.235 N 
HETATM   13  H           1     -24.184  -5.145  -7.458  0.00  0.00     0.174 HD
HETATM   14  H           1     -24.091  -3.339  -7.364  0.00  0.00     0.174 HD
HETATM   15  H           1     -22.106  -2.342  -7.293  0.00  0.00     0.174 HD
HETATM   16  H           1     -20.580  -3.331  -7.329  0.00  0.00     0.174 HD
ENDBRANCH   7   8
ENDBRANCH   6   7
ENDBRANCH   5   6
ENDBRANCH   1   5
BRANCH   1  17
HETATM   17  N           1     -21.185  -8.620  -3.752  0.00  0.00    -0.345 N 
HETATM   18  H           1     -21.786  -9.246  -4.273  0.00  0.00     0.163 HD
HETATM   19  C           1     -20.581  -9.051  -2.601  0.00  0.00     0.249 C 
HETATM   20  O           1     -19.864  -8.304  -1.979  0.00  0.00    -0.271 OA
BRANCH  19  21
HETATM   21  C           1     -20.813 -10.458  -2.108  0.00  0.00     0.278 C 
BRANCH  21  22
HETATM   22  N           1     -20.132 -10.643  -0.785  0.00  0.00    -0.066 N 
HETATM   23  H           1     -19.534  -9.810  -0.580  0.00  0.00     0.275 HD
HETATM   24  H           1     -20.851 -10.748  -0.034  0.00  0.00     0.275 HD
HETATM   25  H           1     -19.534 -11.500  -0.818  0.00  0.00     0.275 HD
ENDBRANCH  21  22
BRANCH  21  26
HETATM   26  C           1     -22.307 -10.701  -1.949  0.00  0.00     0.021 C 
HETATM   27  C           1     -22.756 -11.772  -2.934  0.00  0.00     0.012 C 
BRANCH  26  28
HETATM   28  C           1     -22.598 -11.165  -0.528  0.00  0.00     0.002 C 
HETATM   29  C           1     -24.028 -10.796  -0.154  0.00  0.00     0.005 C 
ENDBRANCH  26  28
ENDBRANCH  21  26
ENDBRANCH  19  21
ENDBRANCH   1  17
TORSDOF 10
ENDMDL
MODEL 9
REMARK VINA RESULT:      -6.1     15.413     17.952
REMARK  10 active torsions:
REMARK  status: ('A' for Active; 'I' for Inactive)
REMARK    1  A    between atoms: C_2  and  C_3 
REMARK    2  A    between atoms: C_3  and  C_24 
REMARK    3  A    between atoms: C_3  and  N_5 
REMARK    4  A    between atoms: N_4  and  C_19 
REMARK       I    between atoms: N_5  and  C_16 
REMARK    5  A    between atoms: C_6  and  C_7 
REMARK    6  A    between atoms: C_6  and  C_24 
REMARK    7  A    between atoms: C_7  and  N_10 
REMARK       I    between atoms: N_10  and  C_15 
REMARK       I    between atoms: N_11  and  C_15 
REMARK    8  A    between atoms: C_16  and  C_19 
REMARK    9  A    between atoms: C_19  and  C_20 
REMARK   10  A    between atoms: C_20  and  C_27 
ROOT
HETATM    1  C           1     -20.386  -8.409  -4.667  0.00  0.00     0.185 C 
ENDROOT
BRANCH   1   2
HETATM    2  C           1     -19.057  -9.110  -4.806  0.00  0.00     0.196 C 
HETATM    3  O           1     -18.763  -9.686  -5.876  0.00  0.00    -0.646 OA
HETATM    4  O           1     -18.249  -9.114  -3.852  0.00  0.00    -0.646 OA
ENDBRANCH   1   2
BRANCH   1   5
HETATM    5  C           1     -20.478  -7.284  -5.689  0.00  0.00     0.038 C 
BRANCH   5   6
HETATM    6  C           1     -20.895  -5.996  -4.992  0.00  0.00     0.023 C 
BRANCH   6   7
HETATM    7  C           1     -20.770  -4.828  -5.963  0.00  0.00     0.138 C 
BRANCH   7   8
HETATM    8  N           1     -21.247  -5.241  -7.291  0.00  0.00    -0.227 N 
HETATM    9  H           1     -21.062  -6.216  -7.636  0.00  0.00     0.177 HD
HETATM   10  C           1     -21.881  -4.422  -8.018  0.00  0.00     0.665 C 
HETATM   11  N           1     -22.304  -4.787  -9.192  0.00  0.00    -0.235 N 
HETATM   12  N           1     -22.105  -3.247  -7.602  0.00  0.00    -0.235 N 
HETATM   13  H           1     -22.119  -5.756  -9.535  0.00  0.00     0.174 HD
HETATM   14  H           1     -22.827  -4.110  -9.792  0.00  0.00     0.174 HD
HETATM   15  H           1     -22.631  -2.567  -8.205  0.00  0.00     0.174 HD
HETATM   16  H           1     -21.764  -2.952  -6.654  0.00  0.00     0.174 HD
ENDBRANCH   7   8
ENDBRANCH   6   7
ENDBRANCH   5   6
ENDBRANCH   1   5
BRANCH   1  17
HETATM   17  N           1     -20.504  -7.859  -3.331  0.00  0.00    -0.345 N 
HETATM   18  H           1     -20.019  -7.003  -3.091  0.00  0.00     0.163 HD
HETATM   19  C           1     -21.272  -8.496  -2.393  0.00  0.00     0.249 C 
HETATM   20  O           1     -21.850  -9.517  -2.679  0.00  0.00    -0.271 OA
BRANCH  19  21
HETATM   21  C           1     -21.394  -7.923  -1.003  0.00  0.00     0.278 C 
BRANCH  21  22
HETATM   22  N           1     -22.451  -6.858  -0.992  0.00  0.00    -0.066 N 
HETATM   23  H           1     -22.845  -6.748  -1.954  0.00  0.00     0.275 HD
HETATM   24  H           1     -23.214  -7.131  -0.332  0.00  0.00     0.275 HD
HETATM   25  H           1     -22.029  -5.953  -0.682  0.00  0.00     0.275 HD
ENDBRANCH  21  22
BRANCH  21  26
HETATM   26  C           1     -21.779  -9.029  -0.029  0.00  0.00     0.021 C 
HETATM   27  C           1     -21.048  -8.821   1.291  0.00  0.00     0.012 C 
BRANCH  26  28
HETATM   28  C           1     -23.282  -8.994   0.212  0.00  0.00     0.002 C 
HETATM   29  C           1     -23.866 -10.383  -0.014  0.00  0.00     0.005 C 
ENDBRANCH  26  28
ENDBRANCH  21  26
ENDBRANCH  19  21
ENDBRANCH   1  17
TORSDOF 10
ENDMDL
