MODEL 1
REMARK VINA RESULT:      -5.8      0.000      0.000
REMARK  9 active torsions:
REMARK  status: ('A' for Active; 'I' for Inactive)
REMARK    1  A    between atoms: N_1  and  C_19 
REMARK       I    between atoms: N_1  and  C_2 
REMARK    2  A    between atoms: C_2  and  C_3 
REMARK    3  A    between atoms: C_3  and  C_4 
REMARK    4  A    between atoms: C_3  and  N_13 
REMARK    5  A    between atoms: C_4  and  C_5 
REMARK    6  A    between atoms: C_5  and  C_8 
REMARK    7  A    between atoms: C_18  and  C_19 
REMARK    8  A    between atoms: C_19  and  C_20 
REMARK    9  A    between atoms: C_20  and  Se_21 
ROOT
HETATM    1  N           1     -22.276  -4.752  -8.842  0.00  0.00    -0.345 N 
HETATM    2  C           1     -21.709  -4.652  -7.600  0.00  0.00     0.249 C 
HETATM    3  O           1     -21.666  -3.582  -7.040  0.00  0.00    -0.271 OA
HETATM    4  H           1     -22.313  -5.648  -9.310  0.00  0.00     0.163 HD
ENDROOT
BRANCH   2   5
HETATM    5  C           1     -21.138  -5.878  -6.930  0.00  0.00     0.275 C 
BRANCH   5   6
HETATM    6  C           1     -21.052  -5.642  -5.428  0.00  0.00     0.053 C 
BRANCH   6   7
HETATM    7  C           1     -22.116  -6.471  -4.721  0.00  0.00     0.115 C 
BRANCH   7   8
HETATM    8  C           1     -21.785  -6.568  -3.252  0.00  0.00     0.172 C 
HETATM    9  O           1     -20.843  -7.297  -2.870  0.00  0.00    -0.648 OA
HETATM   10  O           1     -22.450  -5.919  -2.416  0.00  0.00    -0.648 OA
ENDBRANCH   7   8
ENDBRANCH   6   7
ENDBRANCH   5   6
BRANCH   5  11
HETATM   11  N           1     -19.767  -6.150  -7.472  0.00  0.00    -0.066 N 
HETATM   12  H           1     -19.543  -5.452  -8.217  0.00  0.00     0.275 HD
HETATM   13  H           1     -19.066  -6.076  -6.700  0.00  0.00     0.275 HD
HETATM   14  H           1     -19.737  -7.113  -7.877  0.00  0.00     0.275 HD
ENDBRANCH   5  11
ENDBRANCH   2   5
BRANCH   1  15
HETATM   15  C           1     -22.825  -3.575  -9.486  0.00  0.00     0.185 C 
BRANCH  15  16
HETATM   16  C           1     -24.314  -3.748  -9.664  0.00  0.00     0.196 C 
HETATM   17  O           1     -24.784  -4.877  -9.926  0.00  0.00    -0.646 OA
HETATM   18  O           1     -25.076  -2.765  -9.551  0.00  0.00    -0.646 OA
ENDBRANCH  15  16
BRANCH  15  19
HETATM   19  C           1     -22.168  -3.388 -10.846  0.00  0.00     0.039 C 
BRANCH  19  20
HETATM   20 Se           1     -20.441  -4.292 -10.864  0.00  0.00     0.000 Se
HETATM   21  H           1     -21.014  -5.641 -10.717  0.00  0.00     0.000 HD
ENDBRANCH  19  20
ENDBRANCH  15  19
ENDBRANCH   1  15
TORSDOF 9
ENDMDL
MODEL 2
REMARK VINA RESULT:      -5.6      3.066      6.885
REMARK  9 active torsions:
REMARK  status: ('A' for Active; 'I' for Inactive)
REMARK    1  A    between atoms: N_1  and  C_19 
REMARK       I    between atoms: N_1  and  C_2 
REMARK    2  A    between atoms: C_2  and  C_3 
REMARK    3  A    between atoms: C_3  and  C_4 
REMARK    4  A    between atoms: C_3  and  N_13 
REMARK    5  A    between atoms: C_4  and  C_5 
REMARK    6  A    between atoms: C_5  and  C_8 
REMARK    7  A    between atoms: C_18  and  C_19 
REMARK    8  A    between atoms: C_19  and  C_20 
REMARK    9  A    between atoms: C_20  and  Se_21 
ROOT
HETATM    1  N           1     -21.855  -4.775  -8.677  0.00  0.00    -0.345 N 
HETATM    2  C           1     -23.171  -4.400  -8.730  0.00  0.00     0.249 C 
HETATM    3  O           1     -23.767  -4.142  -7.712  0.00  0.00    -0.271 OA
HETATM    4  H           1     -21.355  -4.990  -9.530  0.00  0.00     0.163 HD
ENDROOT
BRANCH   2   5
HETATM    5  C           1     -23.875  -4.308 -10.062  0.00  0.00     0.275 C 
BRANCH   5   6
HETATM    6  C           1     -23.139  -3.322 -10.959  0.00  0.00     0.053 C 
BRANCH   6   7
HETATM    7  C           1     -22.947  -3.935 -12.340  0.00  0.00     0.115 C 
BRANCH   7   8
HETATM    8  C           1     -23.932  -3.321 -13.304  0.00  0.00     0.172 C 
HETATM    9  O           1     -23.639  -3.218 -14.515  0.00  0.00    -0.648 OA
HETATM   10  O           1     -25.040  -2.914 -12.893  0.00  0.00    -0.648 OA
ENDBRANCH   7   8
ENDBRANCH   6   7
ENDBRANCH   5   6
BRANCH   5  11
HETATM   11  N           1     -25.283  -3.835  -9.850  0.00  0.00    -0.066 N 
HETATM   12  H           1     -25.628  -4.176  -8.924  0.00  0.00     0.275 HD
HETATM   13  H           1     -25.306  -2.790  -9.869  0.00  0.00     0.275 HD
HETATM   14  H           1     -25.894  -4.210 -10.610  0.00  0.00     0.275 HD
ENDBRANCH   5  11
ENDBRANCH   2   5
BRANCH   1  15
HETATM   15  C           1     -21.177  -4.864  -7.398  0.00  0.00     0.185 C 
BRANCH  15  16
HETATM   16  C           1     -19.760  -4.367  -7.546  0.00  0.00     0.196 C 
HETATM   17  O           1     -19.467  -3.585  -8.476  0.00  0.00    -0.646 OA
HETATM   18  O           1     -18.880  -4.735  -6.738  0.00  0.00    -0.646 OA
ENDBRANCH  15  16
BRANCH  15  19
HETATM   19  C           1     -21.162  -6.313  -6.932  0.00  0.00     0.039 C 
BRANCH  19  20
HETATM   20 Se           1     -21.884  -6.423  -5.125  0.00  0.00     0.000 Se
HETATM   21  H           1     -21.524  -7.839  -4.942  0.00  0.00     0.000 HD
ENDBRANCH  19  20
ENDBRANCH  15  19
ENDBRANCH   1  15
TORSDOF 9
ENDMDL
MODEL 3
REMARK VINA RESULT:      -5.5      2.610      2.972
REMARK  9 active torsions:
REMARK  status: ('A' for Active; 'I' for Inactive)
REMARK    1  A    between atoms: N_1  and  C_19 
REMARK       I    between atoms: N_1  and  C_2 
REMARK    2  A    between atoms: C_2  and  C_3 
REMARK    3  A    between atoms: C_3  and  C_4 
REMARK    4  A    between atoms: C_3  and  N_13 
REMARK    5  A    between atoms: C_4  and  C_5 
REMARK    6  A    between atoms: C_5  and  C_8 
REMARK    7  A    between atoms: C_18  and  C_19 
REMARK    8  A    between atoms: C_19  and  C_20 
REMARK    9  A    between atoms: C_20  and  Se_21 
ROOT
HETATM    1  N           1     -21.894  -3.896  -9.684  0.00  0.00    -0.345 N 
HETATM    2  C           1     -20.718  -4.297  -9.109  0.00  0.00     0.249 C 
HETATM    3  O           1     -19.973  -5.037  -9.709  0.00  0.00    -0.271 OA
HETATM    4  H           1     -22.517  -3.276  -9.183  0.00  0.00     0.163 HD
ENDROOT
BRANCH   2   5
HETATM    5  C           1     -20.351  -3.815  -7.727  0.00  0.00     0.275 C 
BRANCH   5   6
HETATM    6  C           1     -19.775  -4.972  -6.921  0.00  0.00     0.053 C 
BRANCH   6   7
HETATM    7  C           1     -20.206  -4.843  -5.466  0.00  0.00     0.115 C 
BRANCH   7   8
HETATM    8  C           1     -21.105  -6.000  -5.104  0.00  0.00     0.172 C 
HETATM    9  O           1     -20.611  -7.065  -4.673  0.00  0.00    -0.648 OA
HETATM   10  O           1     -22.344  -5.895  -5.235  0.00  0.00    -0.648 OA
ENDBRANCH   7   8
ENDBRANCH   6   7
ENDBRANCH   5   6
BRANCH   5  11
HETATM   11  N           1     -21.576  -3.289  -7.040  0.00  0.00    -0.066 N 
HETATM   12  H           1     -21.395  -2.317  -6.702  0.00  0.00     0.275 HD
HETATM   13  H           1     -22.376  -3.283  -7.712  0.00  0.00     0.275 HD
HETATM   14  H           1     -21.810  -3.903  -6.227  0.00  0.00     0.275 HD
ENDBRANCH   5  11
ENDBRANCH   2   5
BRANCH   1  15
HETATM   15  C           1     -22.247  -4.359 -11.012  0.00  0.00     0.185 C 
BRANCH  15  16
HETATM   16  C           1     -22.017  -3.249 -12.008  0.00  0.00     0.196 C 
HETATM   17  O           1     -21.337  -2.251 -11.685  0.00  0.00    -0.646 OA
HETATM   18  O           1     -22.506  -3.326 -13.155  0.00  0.00    -0.646 OA
ENDBRANCH  15  16
BRANCH  15  19
HETATM   19  C           1     -23.714  -4.767 -11.033  0.00  0.00     0.039 C 
BRANCH  19  20
HETATM   20 Se           1     -24.738  -3.568  -9.888  0.00  0.00     0.000 Se
HETATM   21  H           1     -25.807  -4.546  -9.623  0.00  0.00     0.000 HD
ENDBRANCH  19  20
ENDBRANCH  15  19
ENDBRANCH   1  15
TORSDOF 9
ENDMDL
MODEL 4
REMARK VINA RESULT:      -5.3      2.789      6.616
REMARK  9 active torsions:
REMARK  status: ('A' for Active; 'I' for Inactive)
REMARK    1  A    between atoms: N_1  and  C_19 
REMARK       I    between atoms: N_1  and  C_2 
REMARK    2  A    between atoms: C_2  and  C_3 
REMARK    3  A    between atoms: C_3  and  C_4 
REMARK    4  A    between atoms: C_3  and  N_13 
REMARK    5  A    between atoms: C_4  and  C_5 
REMARK    6  A    between atoms: C_5  and  C_8 
REMARK    7  A    between atoms: C_18  and  C_19 
REMARK    8  A    between atoms: C_19  and  C_20 
REMARK    9  A    between atoms: C_20  and  Se_21 
ROOT
HETATM    1  N           1     -21.600  -5.657  -6.977  0.00  0.00    -0.345 N 
HETATM    2  C           1     -21.473  -5.055  -8.200  0.00  0.00     0.249 C 
HETATM    3  O           1     -20.377  -4.787  -8.631  0.00  0.00    -0.271 OA
HETATM    4  H           1     -22.518  -5.882  -6.617  0.00  0.00     0.163 HD
ENDROOT
BRANCH   2   5
HETATM    5  C           1     -22.703  -4.727  -9.011  0.00  0.00     0.275 C 
BRANCH   5   6
HETATM    6  C           1     -22.310  -3.873 -10.208  0.00  0.00     0.053 C 
BRANCH   6   7
HETATM    7  C           1     -23.115  -4.303 -11.427  0.00  0.00     0.115 C 
BRANCH   7   8
HETATM    8  C           1     -24.219  -3.305 -11.679  0.00  0.00     0.172 C 
HETATM    9  O           1     -24.215  -2.620 -12.724  0.00  0.00    -0.648 OA
HETATM   10  O           1     -25.137  -3.164 -10.842  0.00  0.00    -0.648 OA
ENDBRANCH   7   8
ENDBRANCH   6   7
ENDBRANCH   5   6
BRANCH   5  11
HETATM   11  N           1     -23.677  -3.971  -8.156  0.00  0.00    -0.066 N 
HETATM   12  H           1     -23.693  -2.969  -8.452  0.00  0.00     0.275 HD
HETATM   13  H           1     -24.630  -4.384  -8.266  0.00  0.00     0.275 HD
HETATM   14  H           1     -23.384  -4.034  -7.155  0.00  0.00     0.275 HD
ENDBRANCH   5  11
ENDBRANCH   2   5
BRANCH   1  15
HETATM   15  C           1     -20.419  -5.972  -6.197  0.00  0.00     0.185 C 
BRANCH  15  16
HETATM   16  C           1     -20.360  -7.461  -5.955  0.00  0.00     0.196 C 
HETATM   17  O           1     -19.285  -7.994  -5.604  0.00  0.00    -0.646 OA
HETATM   18  O           1     -21.385  -8.160  -6.105  0.00  0.00    -0.646 OA
ENDBRANCH  15  16
BRANCH  15  19
HETATM   19  C           1     -20.481  -5.241  -4.863  0.00  0.00     0.039 C 
BRANCH  19  20
HETATM   20 Se           1     -21.556  -6.273  -3.607  0.00  0.00     0.000 Se
HETATM   21  H           1     -22.773  -5.468  -3.806  0.00  0.00     0.000 HD
ENDBRANCH  19  20
ENDBRANCH  15  19
ENDBRANCH   1  15
TORSDOF 9
ENDMDL
MODEL 5
REMARK VINA RESULT:      -5.2      1.651      1.916
REMARK  9 active torsions:
REMARK  status: ('A' for Active; 'I' for Inactive)
REMARK    1  A    between atoms: N_1  and  C_19 
REMARK       I    between atoms: N_1  and  C_2 
REMARK    2  A    between atoms: C_2  and  C_3 
REMARK    3  A    between atoms: C_3  and  C_4 
REMARK    4  A    between atoms: C_3  and  N_13 
REMARK    5  A    between atoms: C_4  and  C_5 
REMARK    6  A    between atoms: C_5  and  C_8 
REMARK    7  A    between atoms: C_18  and  C_19 
REMARK    8  A    between atoms: C_19  and  C_20 
REMARK    9  A    between atoms: C_20  and  Se_21 
ROOT
HETATM    1  N           1     -22.237  -4.551  -9.082  0.00  0.00    -0.345 N 
HETATM    2  C           1     -20.889  -4.403  -8.895  0.00  0.00     0.249 C 
HETATM    3  O           1     -20.267  -3.620  -9.573  0.00  0.00    -0.271 OA
HETATM    4  H           1     -22.758  -5.206  -8.514  0.00  0.00     0.163 HD
ENDROOT
BRANCH   2   5
HETATM    5  C           1     -20.180  -5.219  -7.842  0.00  0.00     0.275 C 
BRANCH   5   6
HETATM    6  C           1     -21.061  -5.328  -6.605  0.00  0.00     0.053 C 
BRANCH   6   7
HETATM    7  C           1     -20.640  -6.541  -5.786  0.00  0.00     0.115 C 
BRANCH   7   8
HETATM    8  C           1     -21.806  -7.015  -4.954  0.00  0.00     0.172 C 
HETATM    9  O           1     -21.844  -8.197  -4.546  0.00  0.00    -0.648 OA
HETATM   10  O           1     -22.735  -6.228  -4.672  0.00  0.00    -0.648 OA
ENDBRANCH   7   8
ENDBRANCH   6   7
ENDBRANCH   5   6
BRANCH   5  11
HETATM   11  N           1     -18.888  -4.549  -7.478  0.00  0.00    -0.066 N 
HETATM   12  H           1     -18.100  -5.226  -7.596  0.00  0.00     0.275 HD
HETATM   13  H           1     -18.737  -3.723  -8.099  0.00  0.00     0.275 HD
HETATM   14  H           1     -18.929  -4.233  -6.483  0.00  0.00     0.275 HD
ENDBRANCH   5  11
ENDBRANCH   2   5
BRANCH   1  15
HETATM   15  C           1     -22.919  -3.767 -10.094  0.00  0.00     0.185 C 
BRANCH  15  16
HETATM   16  C           1     -24.406  -3.800  -9.835  0.00  0.00     0.196 C 
HETATM   17  O           1     -25.025  -2.736  -9.615  0.00  0.00    -0.646 OA
HETATM   18  O           1     -25.019  -4.889  -9.842  0.00  0.00    -0.646 OA
ENDBRANCH  15  16
BRANCH  15  19
HETATM   19  C           1     -22.629  -4.352 -11.469  0.00  0.00     0.039 C 
BRANCH  19  20
HETATM   20 Se           1     -23.254  -3.121 -12.845  0.00  0.00     0.000 Se
HETATM   21  H           1     -22.084  -2.232 -12.746  0.00  0.00     0.000 HD
ENDBRANCH  19  20
ENDBRANCH  15  19
ENDBRANCH   1  15
TORSDOF 9
ENDMDL
MODEL 6
REMARK VINA RESULT:      -5.2      2.450      6.251
REMARK  9 active torsions:
REMARK  status: ('A' for Active; 'I' for Inactive)
REMARK    1  A    between atoms: N_1  and  C_19 
REMARK       I    between atoms: N_1  and  C_2 
REMARK    2  A    between atoms: C_2  and  C_3 
REMARK    3  A    between atoms: C_3  and  C_4 
REMARK    4  A    between atoms: C_3  and  N_13 
REMARK    5  A    between atoms: C_4  and  C_5 
REMARK    6  A    between atoms: C_5  and  C_8 
REMARK    7  A    between atoms: C_18  and  C_19 
REMARK    8  A    between atoms: C_19  and  C_20 
REMARK    9  A    between atoms: C_20  and  Se_21 
ROOT
HETATM    1  N           1     -20.877  -6.655  -4.877  0.00  0.00    -0.345 N 
HETATM    2  C           1     -21.420  -5.729  -5.728  0.00  0.00     0.249 C 
HETATM    3  O           1     -22.616  -5.553  -5.745  0.00  0.00    -0.271 OA
HETATM    4  H           1     -19.876  -6.802  -4.862  0.00  0.00     0.163 HD
ENDROOT
BRANCH   2   5
HETATM    5  C           1     -20.526  -4.929  -6.642  0.00  0.00     0.275 C 
BRANCH   5   6
HETATM    6  C           1     -21.347  -3.856  -7.345  0.00  0.00     0.053 C 
BRANCH   6   7
HETATM    7  C           1     -21.386  -4.142  -8.840  0.00  0.00     0.115 C 
BRANCH   7   8
HETATM    8  C           1     -22.813  -4.370  -9.272  0.00  0.00     0.172 C 
HETATM    9  O           1     -23.054  -4.904 -10.377  0.00  0.00    -0.648 OA
HETATM   10  O           1     -23.755  -4.027  -8.526  0.00  0.00    -0.648 OA
ENDBRANCH   7   8
ENDBRANCH   6   7
ENDBRANCH   5   6
BRANCH   5  11
HETATM   11  N           1     -19.915  -5.840  -7.666  0.00  0.00    -0.066 N 
HETATM   12  H           1     -19.010  -6.214  -7.302  0.00  0.00     0.275 HD
HETATM   13  H           1     -20.568  -6.632  -7.861  0.00  0.00     0.275 HD
HETATM   14  H           1     -19.742  -5.306  -8.547  0.00  0.00     0.275 HD
ENDBRANCH   5  11
ENDBRANCH   2   5
BRANCH   1  15
HETATM   15  C           1     -21.736  -7.424  -3.998  0.00  0.00     0.185 C 
BRANCH  15  16
HETATM   16  C           1     -21.639  -6.875  -2.596  0.00  0.00     0.196 C 
HETATM   17  O           1     -20.853  -7.395  -1.774  0.00  0.00    -0.646 OA
HETATM   18  O           1     -22.344  -5.901  -2.256  0.00  0.00    -0.646 OA
ENDBRANCH  15  16
BRANCH  15  19
HETATM   19  C           1     -21.294  -8.881  -4.005  0.00  0.00     0.039 C 
BRANCH  19  20
HETATM   20 Se           1     -19.517  -9.018  -4.794  0.00  0.00     0.000 Se
HETATM   21  H           1     -19.493  -7.624  -5.269  0.00  0.00     0.000 HD
ENDBRANCH  19  20
ENDBRANCH  15  19
ENDBRANCH   1  15
TORSDOF 9
ENDMDL
MODEL 7
REMARK VINA RESULT:      -5.2      1.743      2.079
REMARK  9 active torsions:
REMARK  status: ('A' for Active; 'I' for Inactive)
REMARK    1  A    between atoms: N_1  and  C_19 
REMARK       I    between atoms: N_1  and  C_2 
REMARK    2  A    between atoms: C_2  and  C_3 
REMARK    3  A    between atoms: C_3  and  C_4 
REMARK    4  A    between atoms: C_3  and  N_13 
REMARK    5  A    between atoms: C_4  and  C_5 
REMARK    6  A    between atoms: C_5  and  C_8 
REMARK    7  A    between atoms: C_18  and  C_19 
REMARK    8  A    between atoms: C_19  and  C_20 
REMARK    9  A    between atoms: C_20  and  Se_21 
ROOT
HETATM    1  N           1     -23.208  -4.323  -8.790  0.00  0.00    -0.345 N 
HETATM    2  C           1     -22.303  -4.076  -7.793  0.00  0.00     0.249 C 
HETATM    3  O           1     -21.419  -3.271  -7.965  0.00  0.00    -0.271 OA
HETATM    4  H           1     -23.949  -4.996  -8.646  0.00  0.00     0.163 HD
ENDROOT
BRANCH   2   5
HETATM    5  C           1     -22.411  -4.809  -6.478  0.00  0.00     0.275 C 
BRANCH   5   6
HETATM    6  C           1     -21.566  -6.075  -6.532  0.00  0.00     0.053 C 
BRANCH   6   7
HETATM    7  C           1     -21.653  -6.802  -5.196  0.00  0.00     0.115 C 
BRANCH   7   8
HETATM    8  C           1     -20.464  -7.718  -5.044  0.00  0.00     0.172 C 
HETATM    9  O           1     -19.624  -7.811  -5.966  0.00  0.00    -0.648 OA
HETATM   10  O           1     -20.317  -8.385  -3.997  0.00  0.00    -0.648 OA
ENDBRANCH   7   8
ENDBRANCH   6   7
ENDBRANCH   5   6
BRANCH   5  11
HETATM   11  N           1     -23.844  -5.176  -6.227  0.00  0.00    -0.066 N 
HETATM   12  H           1     -24.136  -5.917  -6.903  0.00  0.00     0.275 HD
HETATM   13  H           1     -23.946  -5.532  -5.250  0.00  0.00     0.275 HD
HETATM   14  H           1     -24.446  -4.332  -6.354  0.00  0.00     0.275 HD
ENDBRANCH   5  11
ENDBRANCH   2   5
BRANCH   1  15
HETATM   15  C           1     -23.105  -3.619 -10.053  0.00  0.00     0.185 C 
BRANCH  15  16
HETATM   16  C           1     -24.488  -3.262 -10.543  0.00  0.00     0.196 C 
HETATM   17  O           1     -25.442  -3.212  -9.737  0.00  0.00    -0.646 OA
HETATM   18  O           1     -24.679  -3.017 -11.753  0.00  0.00    -0.646 OA
ENDBRANCH  15  16
BRANCH  15  19
HETATM   19  C           1     -22.418  -4.511 -11.077  0.00  0.00     0.039 C 
BRANCH  19  20
HETATM   20 Se           1     -20.532  -4.032 -11.196  0.00  0.00     0.000 Se
HETATM   21  H           1     -20.113  -4.943 -10.117  0.00  0.00     0.000 HD
ENDBRANCH  19  20
ENDBRANCH  15  19
ENDBRANCH   1  15
TORSDOF 9
ENDMDL
MODEL 8
REMARK VINA RESULT:      -4.9      2.552      6.267
REMARK  9 active torsions:
REMARK  status: ('A' for Active; 'I' for Inactive)
REMARK    1  A    between atoms: N_1  and  C_19 
REMARK       I    between atoms: N_1  and  C_2 
REMARK    2  A    between atoms: C_2  and  C_3 
REMARK    3  A    between atoms: C_3  and  C_4 
REMARK    4  A    between atoms: C_3  and  N_13 
REMARK    5  A    between atoms: C_4  and  C_5 
REMARK    6  A    between atoms: C_5  and  C_8 
REMARK    7  A    between atoms: C_18  and  C_19 
REMARK    8  A    between atoms: C_19  and  C_20 
REMARK    9  A    between atoms: C_20  and  Se_21 
ROOT
HETATM    1  N           1     -21.012  -5.831  -6.950  0.00  0.00    -0.345 N 
HETATM    2  C           1     -21.872  -4.913  -7.492  0.00  0.00     0.249 C 
HETATM    3  O           1     -22.939  -4.701  -6.966  0.00  0.00    -0.271 OA
HETATM    4  H           1     -20.118  -6.008  -7.390  0.00  0.00     0.163 HD
ENDROOT
BRANCH   2   5
HETATM    5  C           1     -21.486  -4.167  -8.746  0.00  0.00     0.275 C 
BRANCH   5   6
HETATM    6  C           1     -22.339  -4.654  -9.910  0.00  0.00     0.053 C 
BRANCH   6   7
HETATM    7  C           1     -22.868  -3.457 -10.689  0.00  0.00     0.115 C 
BRANCH   7   8
HETATM    8  C           1     -24.372  -3.541 -10.781  0.00  0.00     0.172 C 
HETATM    9  O           1     -24.968  -3.034 -11.756  0.00  0.00    -0.648 OA
HETATM   10  O           1     -25.022  -4.117  -9.882  0.00  0.00    -0.648 OA
ENDBRANCH   7   8
ENDBRANCH   6   7
ENDBRANCH   5   6
BRANCH   5  11
HETATM   11  N           1     -20.039  -4.416  -9.049  0.00  0.00    -0.066 N 
HETATM   12  H           1     -19.788  -3.953  -9.952  0.00  0.00     0.275 HD
HETATM   13  H           1     -19.449  -4.026  -8.280  0.00  0.00     0.275 HD
HETATM   14  H           1     -19.871  -5.445  -9.128  0.00  0.00     0.275 HD
ENDBRANCH   5  11
ENDBRANCH   2   5
BRANCH   1  15
HETATM   15  C           1     -21.382  -6.548  -5.745  0.00  0.00     0.185 C 
BRANCH  15  16
HETATM   16  C           1     -21.092  -5.688  -4.540  0.00  0.00     0.196 C 
HETATM   17  O           1     -20.203  -4.811  -4.598  0.00  0.00    -0.646 OA
HETATM   18  O           1     -21.740  -5.850  -3.484  0.00  0.00    -0.646 OA
ENDBRANCH  15  16
BRANCH  15  19
HETATM   19  C           1     -20.577  -7.837  -5.656  0.00  0.00     0.039 C 
BRANCH  19  20
HETATM   20 Se           1     -21.442  -9.058  -4.406  0.00  0.00     0.000 Se
HETATM   21  H           1     -22.625  -9.275  -5.255  0.00  0.00     0.000 HD
ENDBRANCH  19  20
ENDBRANCH  15  19
ENDBRANCH   1  15
TORSDOF 9
ENDMDL
MODEL 9
REMARK VINA RESULT:      -4.9      3.333      4.863
REMARK  9 active torsions:
REMARK  status: ('A' for Active; 'I' for Inactive)
REMARK    1  A    between atoms: N_1  and  C_19 
REMARK       I    between atoms: N_1  and  C_2 
REMARK    2  A    between atoms: C_2  and  C_3 
REMARK    3  A    between atoms: C_3  and  C_4 
REMARK    4  A    between atoms: C_3  and  N_13 
REMARK    5  A    between atoms: C_4  and  C_5 
REMARK    6  A    between atoms: C_5  and  C_8 
REMARK    7  A    between atoms: C_18  and  C_19 
REMARK    8  A    between atoms: C_19  and  C_20 
REMARK    9  A    between atoms: C_20  and  Se_21 
ROOT
HETATM    1  N           1     -21.342  -5.603  -4.813  0.00  0.00    -0.345 N 
HETATM    2  C           1     -21.401  -6.736  -4.047  0.00  0.00     0.249 C 
HETATM    3  O           1     -21.532  -7.815  -4.574  0.00  0.00    -0.271 OA
HETATM    4  H           1     -21.231  -4.699  -4.372  0.00  0.00     0.163 HD
ENDROOT
BRANCH   2   5
HETATM    5  C           1     -21.301  -6.637  -2.544  0.00  0.00     0.275 C 
BRANCH   5   6
HETATM    6  C           1     -21.309  -8.035  -1.941  0.00  0.00     0.053 C 
BRANCH   6   7
HETATM    7  C           1     -22.130  -8.032  -0.659  0.00  0.00     0.115 C 
BRANCH   7   8
HETATM    8  C           1     -21.461  -8.911   0.369  0.00  0.00     0.172 C 
HETATM    9  O           1     -21.190  -8.454   1.501  0.00  0.00    -0.648 OA
HETATM   10  O           1     -21.177 -10.096   0.090  0.00  0.00    -0.648 OA
ENDBRANCH   7   8
ENDBRANCH   6   7
ENDBRANCH   5   6
BRANCH   5  11
HETATM   11  N           1     -22.471  -5.860  -2.017  0.00  0.00    -0.066 N 
HETATM   12  H           1     -22.164  -4.889  -1.778  0.00  0.00     0.275 HD
HETATM   13  H           1     -23.220  -5.821  -2.744  0.00  0.00     0.275 HD
HETATM   14  H           1     -22.841  -6.328  -1.159  0.00  0.00     0.275 HD
ENDBRANCH   5  11
ENDBRANCH   2   5
BRANCH   1  15
HETATM   15  C           1     -21.438  -5.697  -6.257  0.00  0.00     0.185 C 
BRANCH  15  16
HETATM   16  C           1     -20.055  -5.621  -6.857  0.00  0.00     0.196 C 
HETATM   17  O           1     -19.407  -4.554  -6.798  0.00  0.00    -0.646 OA
HETATM   18  O           1     -19.558  -6.624  -7.413  0.00  0.00    -0.646 OA
ENDBRANCH  15  16
BRANCH  15  19
HETATM   19  C           1     -22.286  -4.548  -6.785  0.00  0.00     0.039 C 
BRANCH  19  20
HETATM   20 Se           1     -22.273  -4.572  -8.733  0.00  0.00     0.000 Se
HETATM   21  H           1     -23.217  -5.697  -8.842  0.00  0.00     0.000 HD
ENDBRANCH  19  20
ENDBRANCH  15  19
ENDBRANCH   1  15
TORSDOF 9
ENDMDL
